MODEL 1
REMARK VINA RESULT:     -10.5      0.000      0.000
REMARK  7 active torsions:
REMARK  status: ('A' for Active; 'I' for Inactive)
REMARK    1  A    between atoms: C_2  and  C_3 
REMARK    2  A    between atoms: N_21  and  N_23 
REMARK       I    between atoms: N_23  and  C_24 
REMARK    3  A    between atoms: C_24  and  C_25 
REMARK    4  A    between atoms: C_25  and  N_26 
REMARK    5  A    between atoms: C_25  and  C_34 
REMARK       I    between atoms: N_26  and  C_27 
REMARK    6  A    between atoms: C_27  and  O_28 
REMARK    7  A    between atoms: O_28  and  C_29 
ROOT
HETATM    1  C   UNL     1       9.062  29.278  57.515  1.00  0.00    -0.041 C 
HETATM    2  C   UNL     1       8.119  28.172  57.283  1.00  0.00     0.005 C 
HETATM    3  C   UNL     1       6.757  28.475  57.204  1.00  0.00     0.091 C 
HETATM    4  C   UNL     1       5.879  27.643  56.517  1.00  0.00     0.075 C 
HETATM    5  C   UNL     1       6.374  26.458  55.978  1.00  0.00     0.079 C 
HETATM    6  C   UNL     1       7.641  25.990  56.337  1.00  0.00    -0.024 C 
HETATM    7  C   UNL     1       8.100  24.614  55.932  1.00  0.00     0.044 C 
HETATM    8  C   UNL     1       7.084  23.926  55.024  1.00  0.00     0.043 C 
HETATM    9  C   UNL     1       6.373  24.963  54.137  1.00  0.00     0.068 C 
HETATM   10  C   UNL     1       7.379  25.739  53.235  1.00  0.00     0.038 C 
HETATM   11  C   UNL     1       6.693  26.712  52.283  1.00  0.00     0.003 C 
HETATM   12  C   UNL     1       5.698  25.983  51.394  1.00  0.00     0.000 C 
HETATM   13  C   UNL     1       4.681  25.207  52.225  1.00  0.00     0.003 C 
HETATM   14  C   UNL     1       5.352  24.253  53.220  1.00  0.00     0.038 C 
HETATM   15  O   UNL     1       5.617  25.842  55.014  1.00  0.00    -0.340 OA
HETATM   16  C   UNL     1       8.527  26.872  56.965  1.00  0.00     0.024 C 
HETATM   17  O   UNL     1       6.242  29.655  57.784  1.00  0.00    -0.292 OA
HETATM   18  C   UNL     1       7.143  30.614  58.172  1.00  0.00     0.163 C 
HETATM   19  N   UNL     1       6.648  31.634  58.768  1.00  0.00    -0.277 N 
HETATM   20  H   UNL     1       7.259  32.454  58.922  1.00  0.00     0.189 HD
HETATM   21  C   UNL     1       8.566  30.469  57.882  1.00  0.00     0.065 C 
ENDROOT
BRANCH  19  22
HETATM   22  N   UNL     1       5.393  31.675  59.405  1.00  0.00    -0.266 N 
HETATM   23  C   UNL     1       4.706  32.859  59.185  1.00  0.00     0.263 C 
HETATM   24  O   UNL     1       4.923  33.501  58.151  1.00  0.00    -0.269 OA
HETATM   25  H   UNL     1       5.281  31.103  60.238  1.00  0.00     0.190 HD
BRANCH  23  26
HETATM   26  C   UNL     1       3.911  33.409  60.396  1.00  0.00     0.214 C 
BRANCH  26  27
HETATM   27  N   UNL     1       4.777  33.292  61.556  1.00  0.00    -0.319 N 
HETATM   28  C   UNL     1       4.285  33.119  62.811  1.00  0.00     0.362 C 
HETATM   29  O   UNL     1       3.087  33.048  63.056  1.00  0.00    -0.238 OA
HETATM   30  H   UNL     1       5.785  33.279  61.452  1.00  0.00     0.166 HD
BRANCH  28  31
HETATM   31  O   UNL     1       5.309  32.954  63.670  1.00  0.00    -0.294 OA
BRANCH  31  32
HETATM   32  C   UNL     1       5.648  33.961  64.659  1.00  0.00     0.061 C 
HETATM   33  C   UNL     1       4.768  33.839  65.910  1.00  0.00     0.046 C 
HETATM   34  C   UNL     1       7.101  33.654  65.055  1.00  0.00     0.046 C 
HETATM   35  C   UNL     1       5.580  35.363  64.049  1.00  0.00     0.046 C 
ENDBRANCH  31  32
ENDBRANCH  28  31
ENDBRANCH  26  27
BRANCH  26  36
HETATM   36  C   UNL     1       3.464  34.843  60.228  1.00  0.00    -0.026 A 
HETATM   37  C   UNL     1       2.169  35.118  59.757  1.00  0.00     0.010 A 
HETATM   38  C   UNL     1       1.711  36.433  59.660  1.00  0.00     0.001 A 
HETATM   39  C   UNL     1       2.535  37.491  60.038  1.00  0.00     0.000 A 
HETATM   40  C   UNL     1       3.815  37.234  60.521  1.00  0.00     0.001 A 
HETATM   41  C   UNL     1       4.276  35.921  60.621  1.00  0.00     0.010 A 
ENDBRANCH  26  36
ENDBRANCH  23  26
ENDBRANCH  19  22
BRANCH   1  42
HETATM   42  C   UNL     1      10.517  29.133  57.126  1.00  0.00     0.035 C 
HETATM   43  C   UNL     1      11.357  30.334  57.522  1.00  0.00     0.010 C 
ENDBRANCH   1  42
TORSDOF 7
ENDMDL
MODEL 2
REMARK VINA RESULT:     -10.4      4.693      8.563
REMARK  7 active torsions:
REMARK  status: ('A' for Active; 'I' for Inactive)
REMARK    1  A    between atoms: C_2  and  C_3 
REMARK    2  A    between atoms: N_21  and  N_23 
REMARK       I    between atoms: N_23  and  C_24 
REMARK    3  A    between atoms: C_24  and  C_25 
REMARK    4  A    between atoms: C_25  and  N_26 
REMARK    5  A    between atoms: C_25  and  C_34 
REMARK       I    between atoms: N_26  and  C_27 
REMARK    6  A    between atoms: C_27  and  O_28 
REMARK    7  A    between atoms: O_28  and  C_29 
ROOT
HETATM    1  C   UNL     1       3.359  31.948  53.181  1.00  0.00    -0.041 C 
HETATM    2  C   UNL     1       4.077  30.927  52.401  1.00  0.00     0.005 C 
HETATM    3  C   UNL     1       4.137  29.628  52.915  1.00  0.00     0.091 C 
HETATM    4  C   UNL     1       4.328  28.535  52.076  1.00  0.00     0.075 C 
HETATM    5  C   UNL     1       4.540  28.771  50.719  1.00  0.00     0.079 C 
HETATM    6  C   UNL     1       4.814  30.062  50.257  1.00  0.00    -0.024 C 
HETATM    7  C   UNL     1       5.253  30.297  48.836  1.00  0.00     0.044 C 
HETATM    8  C   UNL     1       5.219  29.009  48.016  1.00  0.00     0.043 C 
HETATM    9  C   UNL     1       4.070  28.103  48.492  1.00  0.00     0.068 C 
HETATM   10  C   UNL     1       2.686  28.803  48.350  1.00  0.00     0.038 C 
HETATM   11  C   UNL     1       1.522  27.896  48.732  1.00  0.00     0.003 C 
HETATM   12  C   UNL     1       1.523  26.633  47.886  1.00  0.00     0.000 C 
HETATM   13  C   UNL     1       2.857  25.900  47.991  1.00  0.00     0.003 C 
HETATM   14  C   UNL     1       4.045  26.808  47.651  1.00  0.00     0.038 C 
HETATM   15  O   UNL     1       4.362  27.714  49.862  1.00  0.00    -0.340 OA
HETATM   16  C   UNL     1       4.546  31.145  51.101  1.00  0.00     0.024 C 
HETATM   17  O   UNL     1       3.964  29.386  54.295  1.00  0.00    -0.292 OA
HETATM   18  C   UNL     1       3.463  30.411  55.059  1.00  0.00     0.163 C 
HETATM   19  N   UNL     1       3.397  30.185  56.318  1.00  0.00    -0.277 N 
HETATM   20  H   UNL     1       2.871  30.853  56.906  1.00  0.00     0.189 HD
HETATM   21  C   UNL     1       3.014  31.655  54.443  1.00  0.00     0.065 C 
ENDROOT
BRANCH  19  22
HETATM   22  N   UNL     1       4.135  29.206  57.009  1.00  0.00    -0.266 N 
HETATM   23  C   UNL     1       5.420  29.616  57.332  1.00  0.00     0.263 C 
HETATM   24  O   UNL     1       5.650  30.821  57.483  1.00  0.00    -0.269 OA
HETATM   25  H   UNL     1       3.874  28.236  56.852  1.00  0.00     0.190 HD
BRANCH  23  26
HETATM   26  C   UNL     1       6.520  28.532  57.213  1.00  0.00     0.214 C 
BRANCH  26  27
HETATM   27  N   UNL     1       6.296  27.841  55.955  1.00  0.00    -0.319 N 
HETATM   28  C   UNL     1       5.580  26.688  55.880  1.00  0.00     0.362 C 
HETATM   29  O   UNL     1       5.074  26.151  56.857  1.00  0.00    -0.238 OA
HETATM   30  H   UNL     1       6.625  28.236  55.081  1.00  0.00     0.166 HD
BRANCH  28  31
HETATM   31  O   UNL     1       5.462  26.323  54.590  1.00  0.00    -0.294 OA
BRANCH  31  32
HETATM   32  C   UNL     1       6.414  25.430  53.956  1.00  0.00     0.061 C 
HETATM   33  C   UNL     1       6.969  24.402  54.950  1.00  0.00     0.046 C 
HETATM   34  C   UNL     1       5.603  24.682  52.885  1.00  0.00     0.046 C 
HETATM   35  C   UNL     1       7.529  26.225  53.274  1.00  0.00     0.046 C 
ENDBRANCH  31  32
ENDBRANCH  28  31
ENDBRANCH  26  27
BRANCH  26  36
HETATM   36  C   UNL     1       7.926  29.086  57.256  1.00  0.00    -0.026 A 
HETATM   37  C   UNL     1       8.720  29.059  56.097  1.00  0.00     0.010 A 
HETATM   38  C   UNL     1       9.995  29.627  56.094  1.00  0.00     0.001 A 
HETATM   39  C   UNL     1      10.493  30.235  57.244  1.00  0.00     0.000 A 
HETATM   40  C   UNL     1       9.713  30.283  58.396  1.00  0.00     0.001 A 
HETATM   41  C   UNL     1       8.436  29.719  58.402  1.00  0.00     0.010 A 
ENDBRANCH  26  36
ENDBRANCH  23  26
ENDBRANCH  19  22
BRANCH   1  42
HETATM   42  C   UNL     1       2.828  33.190  52.501  1.00  0.00     0.035 C 
HETATM   43  C   UNL     1       1.440  32.996  51.915  1.00  0.00     0.010 C 
ENDBRANCH   1  42
TORSDOF 7
ENDMDL
MODEL 3
REMARK VINA RESULT:     -10.2      6.455     11.364
REMARK  7 active torsions:
REMARK  status: ('A' for Active; 'I' for Inactive)
REMARK    1  A    between atoms: C_2  and  C_3 
REMARK    2  A    between atoms: N_21  and  N_23 
REMARK       I    between atoms: N_23  and  C_24 
REMARK    3  A    between atoms: C_24  and  C_25 
REMARK    4  A    between atoms: C_25  and  N_26 
REMARK    5  A    between atoms: C_25  and  C_34 
REMARK       I    between atoms: N_26  and  C_27 
REMARK    6  A    between atoms: C_27  and  O_28 
REMARK    7  A    between atoms: O_28  and  C_29 
ROOT
HETATM    1  C   UNL     1       2.777  29.553  50.102  1.00  0.00    -0.041 C 
HETATM    2  C   UNL     1       3.943  30.450  50.172  1.00  0.00     0.005 C 
HETATM    3  C   UNL     1       5.201  29.916  49.879  1.00  0.00     0.091 C 
HETATM    4  C   UNL     1       6.238  30.731  49.435  1.00  0.00     0.075 C 
HETATM    5  C   UNL     1       6.016  32.105  49.366  1.00  0.00     0.079 C 
HETATM    6  C   UNL     1       4.890  32.674  49.968  1.00  0.00    -0.024 C 
HETATM    7  C   UNL     1       4.749  34.169  50.086  1.00  0.00     0.044 C 
HETATM    8  C   UNL     1       5.886  34.899  49.374  1.00  0.00     0.043 C 
HETATM    9  C   UNL     1       6.336  34.107  48.135  1.00  0.00     0.068 C 
HETATM   10  C   UNL     1       5.173  33.916  47.117  1.00  0.00     0.038 C 
HETATM   11  C   UNL     1       5.613  33.209  45.839  1.00  0.00     0.003 C 
HETATM   12  C   UNL     1       6.738  33.975  45.162  1.00  0.00     0.000 C 
HETATM   13  C   UNL     1       7.912  34.188  46.113  1.00  0.00     0.003 C 
HETATM   14  C   UNL     1       7.482  34.859  47.422  1.00  0.00     0.038 C 
HETATM   15  O   UNL     1       6.884  32.843  48.601  1.00  0.00    -0.340 OA
HETATM   16  C   UNL     1       3.835  31.834  50.341  1.00  0.00     0.024 C 
HETATM   17  O   UNL     1       5.443  28.529  49.987  1.00  0.00    -0.292 OA
HETATM   18  C   UNL     1       4.353  27.705  50.109  1.00  0.00     0.163 C 
HETATM   19  N   UNL     1       4.612  26.463  50.286  1.00  0.00    -0.277 N 
HETATM   20  H   UNL     1       3.833  25.787  50.210  1.00  0.00     0.189 HD
HETATM   21  C   UNL     1       2.997  28.234  50.007  1.00  0.00     0.065 C 
ENDROOT
BRANCH  19  22
HETATM   22  N   UNL     1       5.831  25.946  50.763  1.00  0.00    -0.266 N 
HETATM   23  C   UNL     1       5.708  25.288  51.979  1.00  0.00     0.263 C 
HETATM   24  O   UNL     1       4.628  24.767  52.277  1.00  0.00    -0.269 OA
HETATM   25  H   UNL     1       6.681  26.412  50.457  1.00  0.00     0.190 HD
BRANCH  23  26
HETATM   26  C   UNL     1       6.876  25.496  52.975  1.00  0.00     0.214 C 
BRANCH  26  27
HETATM   27  N   UNL     1       6.407  26.432  53.983  1.00  0.00    -0.319 N 
HETATM   28  C   UNL     1       6.483  27.777  53.810  1.00  0.00     0.362 C 
HETATM   29  O   UNL     1       6.945  28.297  52.803  1.00  0.00    -0.238 OA
HETATM   30  H   UNL     1       5.955  26.101  54.827  1.00  0.00     0.166 HD
BRANCH  28  31
HETATM   31  O   UNL     1       5.899  28.392  54.857  1.00  0.00    -0.294 OA
BRANCH  31  32
HETATM   32  C   UNL     1       4.556  28.935  54.774  1.00  0.00     0.061 C 
HETATM   33  C   UNL     1       3.732  28.234  53.685  1.00  0.00     0.046 C 
HETATM   34  C   UNL     1       3.920  28.628  56.139  1.00  0.00     0.046 C 
HETATM   35  C   UNL     1       4.598  30.451  54.571  1.00  0.00     0.046 C 
ENDBRANCH  31  32
ENDBRANCH  28  31
ENDBRANCH  26  27
BRANCH  26  36
HETATM   36  C   UNL     1       7.346  24.219  53.635  1.00  0.00    -0.026 A 
HETATM   37  C   UNL     1       7.265  24.086  55.031  1.00  0.00     0.010 A 
HETATM   38  C   UNL     1       7.628  22.892  55.654  1.00  0.00     0.001 A 
HETATM   39  C   UNL     1       8.070  21.811  54.894  1.00  0.00     0.000 A 
HETATM   40  C   UNL     1       8.142  21.922  53.509  1.00  0.00     0.001 A 
HETATM   41  C   UNL     1       7.777  23.114  52.881  1.00  0.00     0.010 A 
ENDBRANCH  26  36
ENDBRANCH  23  26
ENDBRANCH  19  22
BRANCH   1  42
HETATM   42  C   UNL     1       1.389  30.123  49.910  1.00  0.00     0.035 C 
HETATM   43  C   UNL     1       1.001  30.254  48.448  1.00  0.00     0.010 C 
ENDBRANCH   1  42
TORSDOF 7
ENDMDL
MODEL 4
REMARK VINA RESULT:      -9.5      4.096      7.600
REMARK  7 active torsions:
REMARK  status: ('A' for Active; 'I' for Inactive)
REMARK    1  A    between atoms: C_2  and  C_3 
REMARK    2  A    between atoms: N_21  and  N_23 
REMARK       I    between atoms: N_23  and  C_24 
REMARK    3  A    between atoms: C_24  and  C_25 
REMARK    4  A    between atoms: C_25  and  N_26 
REMARK    5  A    between atoms: C_25  and  C_34 
REMARK       I    between atoms: N_26  and  C_27 
REMARK    6  A    between atoms: C_27  and  O_28 
REMARK    7  A    between atoms: O_28  and  C_29 
ROOT
HETATM    1  C   UNL     1       2.957  31.841  53.284  1.00  0.00    -0.041 C 
HETATM    2  C   UNL     1       3.777  31.032  52.368  1.00  0.00     0.005 C 
HETATM    3  C   UNL     1       4.134  29.742  52.771  1.00  0.00     0.091 C 
HETATM    4  C   UNL     1       4.447  28.761  51.835  1.00  0.00     0.075 C 
HETATM    5  C   UNL     1       4.475  29.117  50.488  1.00  0.00     0.079 C 
HETATM    6  C   UNL     1       4.450  30.462  50.108  1.00  0.00    -0.024 C 
HETATM    7  C   UNL     1       4.693  30.865  48.678  1.00  0.00     0.044 C 
HETATM    8  C   UNL     1       4.825  29.649  47.764  1.00  0.00     0.043 C 
HETATM    9  C   UNL     1       3.924  28.506  48.263  1.00  0.00     0.068 C 
HETATM   10  C   UNL     1       2.424  28.925  48.295  1.00  0.00     0.038 C 
HETATM   11  C   UNL     1       1.499  27.784  48.702  1.00  0.00     0.003 C 
HETATM   12  C   UNL     1       1.658  26.601  47.762  1.00  0.00     0.000 C 
HETATM   13  C   UNL     1       3.111  26.141  47.695  1.00  0.00     0.003 C 
HETATM   14  C   UNL     1       4.064  27.284  47.328  1.00  0.00     0.038 C 
HETATM   15  O   UNL     1       4.419  28.100  49.569  1.00  0.00    -0.340 OA
HETATM   16  C   UNL     1       4.064  31.417  51.054  1.00  0.00     0.024 C 
HETATM   17  O   UNL     1       4.148  29.387  54.137  1.00  0.00    -0.292 OA
HETATM   18  C   UNL     1       3.539  30.244  55.019  1.00  0.00     0.163 C 
HETATM   19  N   UNL     1       3.641  29.933  56.258  1.00  0.00    -0.277 N 
HETATM   20  H   UNL     1       3.058  30.447  56.940  1.00  0.00     0.189 HD
HETATM   21  C   UNL     1       2.801  31.410  54.544  1.00  0.00     0.065 C 
ENDROOT
BRANCH  19  22
HETATM   22  N   UNL     1       4.618  29.079  56.805  1.00  0.00    -0.266 N 
HETATM   23  C   UNL     1       5.585  29.752  57.537  1.00  0.00     0.263 C 
HETATM   24  O   UNL     1       5.297  30.827  58.074  1.00  0.00    -0.269 OA
HETATM   25  H   UNL     1       4.785  28.201  56.321  1.00  0.00     0.190 HD
BRANCH  23  26
HETATM   26  C   UNL     1       7.031  29.215  57.392  1.00  0.00     0.214 C 
BRANCH  26  27
HETATM   27  N   UNL     1       7.636  29.276  58.712  1.00  0.00    -0.319 N 
HETATM   28  C   UNL     1       8.624  30.159  59.014  1.00  0.00     0.362 C 
HETATM   29  O   UNL     1       9.072  30.962  58.206  1.00  0.00    -0.238 OA
HETATM   30  H   UNL     1       7.294  28.692  59.466  1.00  0.00     0.166 HD
BRANCH  28  31
HETATM   31  O   UNL     1       8.929  30.051  60.321  1.00  0.00    -0.294 OA
BRANCH  31  32
HETATM   32  C   UNL     1       8.610  31.101  61.270  1.00  0.00     0.061 C 
HETATM   33  C   UNL     1       8.487  30.551  62.697  1.00  0.00     0.046 C 
HETATM   34  C   UNL     1       9.812  32.058  61.220  1.00  0.00     0.046 C 
HETATM   35  C   UNL     1       7.351  31.857  60.839  1.00  0.00     0.046 C 
ENDBRANCH  31  32
ENDBRANCH  28  31
ENDBRANCH  26  27
BRANCH  26  36
HETATM   36  C   UNL     1       7.103  27.804  56.855  1.00  0.00    -0.026 A 
HETATM   37  C   UNL     1       7.172  27.589  55.469  1.00  0.00     0.010 A 
HETATM   38  C   UNL     1       7.309  26.299  54.954  1.00  0.00     0.001 A 
HETATM   39  C   UNL     1       7.387  25.207  55.814  1.00  0.00     0.000 A 
HETATM   40  C   UNL     1       7.335  25.404  57.191  1.00  0.00     0.001 A 
HETATM   41  C   UNL     1       7.200  26.692  57.710  1.00  0.00     0.010 A 
ENDBRANCH  26  36
ENDBRANCH  23  26
ENDBRANCH  19  22
BRANCH   1  42
HETATM   42  C   UNL     1       2.134  32.993  52.753  1.00  0.00     0.035 C 
HETATM   43  C   UNL     1       1.427  33.770  53.850  1.00  0.00     0.010 C 
ENDBRANCH   1  42
TORSDOF 7
ENDMDL
MODEL 5
REMARK VINA RESULT:      -9.2      5.799     10.433
REMARK  7 active torsions:
REMARK  status: ('A' for Active; 'I' for Inactive)
REMARK    1  A    between atoms: C_2  and  C_3 
REMARK    2  A    between atoms: N_21  and  N_23 
REMARK       I    between atoms: N_23  and  C_24 
REMARK    3  A    between atoms: C_24  and  C_25 
REMARK    4  A    between atoms: C_25  and  N_26 
REMARK    5  A    between atoms: C_25  and  C_34 
REMARK       I    between atoms: N_26  and  C_27 
REMARK    6  A    between atoms: C_27  and  O_28 
REMARK    7  A    between atoms: O_28  and  C_29 
ROOT
HETATM    1  C   UNL     1       4.344  26.701  49.446  1.00  0.00    -0.041 C 
HETATM    2  C   UNL     1       3.672  27.990  49.677  1.00  0.00     0.005 C 
HETATM    3  C   UNL     1       4.143  28.800  50.714  1.00  0.00     0.091 C 
HETATM    4  C   UNL     1       3.937  30.176  50.696  1.00  0.00     0.075 C 
HETATM    5  C   UNL     1       3.179  30.719  49.660  1.00  0.00     0.079 C 
HETATM    6  C   UNL     1       2.432  29.890  48.818  1.00  0.00    -0.024 C 
HETATM    7  C   UNL     1       1.448  30.471  47.837  1.00  0.00     0.044 C 
HETATM    8  C   UNL     1       1.499  31.997  47.825  1.00  0.00     0.043 C 
HETATM    9  C   UNL     1       2.933  32.485  48.097  1.00  0.00     0.068 C 
HETATM   10  C   UNL     1       3.935  31.960  47.026  1.00  0.00     0.038 C 
HETATM   11  C   UNL     1       5.347  32.500  47.222  1.00  0.00     0.003 C 
HETATM   12  C   UNL     1       5.351  34.019  47.194  1.00  0.00     0.000 C 
HETATM   13  C   UNL     1       4.388  34.592  48.229  1.00  0.00     0.003 C 
HETATM   14  C   UNL     1       2.971  34.030  48.077  1.00  0.00     0.038 C 
HETATM   15  O   UNL     1       3.286  32.069  49.445  1.00  0.00    -0.340 OA
HETATM   16  C   UNL     1       2.711  28.519  48.809  1.00  0.00     0.024 C 
HETATM   17  O   UNL     1       4.876  28.251  51.788  1.00  0.00    -0.292 OA
HETATM   18  C   UNL     1       5.347  26.970  51.642  1.00  0.00     0.163 C 
HETATM   19  N   UNL     1       5.937  26.474  52.665  1.00  0.00    -0.277 N 
HETATM   20  H   UNL     1       6.456  25.587  52.547  1.00  0.00     0.189 HD
HETATM   21  C   UNL     1       5.200  26.256  50.378  1.00  0.00     0.065 C 
ENDROOT
BRANCH  19  22
HETATM   22  N   UNL     1       5.788  26.927  53.990  1.00  0.00    -0.266 N 
HETATM   23  C   UNL     1       6.980  27.348  54.561  1.00  0.00     0.263 C 
HETATM   24  O   UNL     1       7.881  27.777  53.831  1.00  0.00    -0.269 OA
HETATM   25  H   UNL     1       5.010  26.547  54.522  1.00  0.00     0.190 HD
BRANCH  23  26
HETATM   26  C   UNL     1       7.170  26.993  56.056  1.00  0.00     0.214 C 
BRANCH  26  27
HETATM   27  N   UNL     1       7.930  25.755  56.101  1.00  0.00    -0.319 N 
HETATM   28  C   UNL     1       7.326  24.537  56.135  1.00  0.00     0.362 C 
HETATM   29  O   UNL     1       6.110  24.393  56.128  1.00  0.00    -0.238 OA
HETATM   30  H   UNL     1       8.942  25.765  56.051  1.00  0.00     0.166 HD
BRANCH  28  31
HETATM   31  O   UNL     1       8.267  23.575  56.083  1.00  0.00    -0.294 OA
BRANCH  31  32
HETATM   32  C   UNL     1       8.258  22.551  55.055  1.00  0.00     0.061 C 
HETATM   33  C   UNL     1       7.619  23.062  53.757  1.00  0.00     0.046 C 
HETATM   34  C   UNL     1       9.741  22.252  54.782  1.00  0.00     0.046 C 
HETATM   35  C   UNL     1       7.577  21.279  55.564  1.00  0.00     0.046 C 
ENDBRANCH  31  32
ENDBRANCH  28  31
ENDBRANCH  26  27
BRANCH  26  36
HETATM   36  C   UNL     1       7.882  28.064  56.850  1.00  0.00    -0.026 A 
HETATM   37  C   UNL     1       9.239  28.329  56.600  1.00  0.00     0.010 A 
HETATM   38  C   UNL     1       9.898  29.360  57.272  1.00  0.00     0.001 A 
HETATM   39  C   UNL     1       9.212  30.145  58.195  1.00  0.00     0.000 A 
HETATM   40  C   UNL     1       7.864  29.904  58.443  1.00  0.00     0.001 A 
HETATM   41  C   UNL     1       7.201  28.876  57.772  1.00  0.00     0.010 A 
ENDBRANCH  26  36
ENDBRANCH  23  26
ENDBRANCH  19  22
BRANCH   1  42
HETATM   42  C   UNL     1       4.246  26.022  48.098  1.00  0.00     0.035 C 
HETATM   43  C   UNL     1       3.109  25.018  48.024  1.00  0.00     0.010 C 
ENDBRANCH   1  42
TORSDOF 7
ENDMDL
MODEL 6
REMARK VINA RESULT:      -9.1      2.875     11.375
REMARK  7 active torsions:
REMARK  status: ('A' for Active; 'I' for Inactive)
REMARK    1  A    between atoms: C_2  and  C_3 
REMARK    2  A    between atoms: N_21  and  N_23 
REMARK       I    between atoms: N_23  and  C_24 
REMARK    3  A    between atoms: C_24  and  C_25 
REMARK    4  A    between atoms: C_25  and  N_26 
REMARK    5  A    between atoms: C_25  and  C_34 
REMARK       I    between atoms: N_26  and  C_27 
REMARK    6  A    between atoms: C_27  and  O_28 
REMARK    7  A    between atoms: O_28  and  C_29 
ROOT
HETATM    1  C   UNL     1       4.451  34.200  56.329  1.00  0.00    -0.041 C 
HETATM    2  C   UNL     1       3.816  33.780  57.588  1.00  0.00     0.005 C 
HETATM    3  C   UNL     1       4.043  32.475  58.035  1.00  0.00     0.091 C 
HETATM    4  C   UNL     1       3.926  32.151  59.383  1.00  0.00     0.075 C 
HETATM    5  C   UNL     1       3.501  33.140  60.268  1.00  0.00     0.079 C 
HETATM    6  C   UNL     1       2.957  34.334  59.788  1.00  0.00    -0.024 C 
HETATM    7  C   UNL     1       2.300  35.315  60.724  1.00  0.00     0.044 C 
HETATM    8  C   UNL     1       2.439  34.882  62.182  1.00  0.00     0.043 C 
HETATM    9  C   UNL     1       3.776  34.150  62.396  1.00  0.00     0.068 C 
HETATM   10  C   UNL     1       4.993  35.056  62.043  1.00  0.00     0.038 C 
HETATM   11  C   UNL     1       6.332  34.386  62.329  1.00  0.00     0.003 C 
HETATM   12  C   UNL     1       6.430  33.980  63.791  1.00  0.00     0.000 C 
HETATM   13  C   UNL     1       5.262  33.085  64.194  1.00  0.00     0.003 C 
HETATM   14  C   UNL     1       3.905  33.723  63.875  1.00  0.00     0.038 C 
HETATM   15  O   UNL     1       3.737  32.932  61.603  1.00  0.00    -0.340 OA
HETATM   16  C   UNL     1       3.150  34.665  58.442  1.00  0.00     0.024 C 
HETATM   17  O   UNL     1       4.434  31.459  57.137  1.00  0.00    -0.292 OA
HETATM   18  C   UNL     1       4.854  31.845  55.889  1.00  0.00     0.163 C 
HETATM   19  N   UNL     1       5.124  30.895  55.074  1.00  0.00    -0.277 N 
HETATM   20  H   UNL     1       5.604  31.133  54.189  1.00  0.00     0.189 HD
HETATM   21  C   UNL     1       5.004  33.257  55.552  1.00  0.00     0.065 C 
ENDROOT
BRANCH  19  22
HETATM   22  N   UNL     1       4.657  29.571  55.183  1.00  0.00    -0.266 N 
HETATM   23  C   UNL     1       5.634  28.623  54.915  1.00  0.00     0.263 C 
HETATM   24  O   UNL     1       6.821  28.906  55.115  1.00  0.00    -0.269 OA
HETATM   25  H   UNL     1       3.664  29.419  55.029  1.00  0.00     0.190 HD
BRANCH  23  26
HETATM   26  C   UNL     1       5.159  27.373  54.134  1.00  0.00     0.214 C 
BRANCH  26  27
HETATM   27  N   UNL     1       5.368  27.654  52.724  1.00  0.00    -0.319 N 
HETATM   28  C   UNL     1       4.408  28.227  51.951  1.00  0.00     0.362 C 
HETATM   29  O   UNL     1       3.307  28.549  52.381  1.00  0.00    -0.238 OA
HETATM   30  H   UNL     1       6.265  27.478  52.288  1.00  0.00     0.166 HD
BRANCH  28  31
HETATM   31  O   UNL     1       4.904  28.448  50.720  1.00  0.00    -0.294 OA
BRANCH  31  32
HETATM   32  C   UNL     1       4.398  27.748  49.553  1.00  0.00     0.061 C 
HETATM   33  C   UNL     1       2.951  28.150  49.240  1.00  0.00     0.046 C 
HETATM   34  C   UNL     1       5.294  28.211  48.394  1.00  0.00     0.046 C 
HETATM   35  C   UNL     1       4.545  26.234  49.726  1.00  0.00     0.046 C 
ENDBRANCH  31  32
ENDBRANCH  28  31
ENDBRANCH  26  27
BRANCH  26  36
HETATM   36  C   UNL     1       5.884  26.104  54.521  1.00  0.00    -0.026 A 
HETATM   37  C   UNL     1       5.945  25.721  55.871  1.00  0.00     0.010 A 
HETATM   38  C   UNL     1       6.548  24.518  56.243  1.00  0.00     0.001 A 
HETATM   39  C   UNL     1       7.092  23.679  55.274  1.00  0.00     0.000 A 
HETATM   40  C   UNL     1       7.028  24.038  53.931  1.00  0.00     0.001 A 
HETATM   41  C   UNL     1       6.423  25.238  53.554  1.00  0.00     0.010 A 
ENDBRANCH  26  36
ENDBRANCH  23  26
ENDBRANCH  19  22
BRANCH   1  42
HETATM   42  C   UNL     1       4.673  35.668  56.041  1.00  0.00     0.035 C 
HETATM   43  C   UNL     1       5.728  35.909  54.975  1.00  0.00     0.010 C 
ENDBRANCH   1  42
TORSDOF 7
ENDMDL
MODEL 7
REMARK VINA RESULT:      -8.7      2.245     11.294
REMARK  7 active torsions:
REMARK  status: ('A' for Active; 'I' for Inactive)
REMARK    1  A    between atoms: C_2  and  C_3 
REMARK    2  A    between atoms: N_21  and  N_23 
REMARK       I    between atoms: N_23  and  C_24 
REMARK    3  A    between atoms: C_24  and  C_25 
REMARK    4  A    between atoms: C_25  and  N_26 
REMARK    5  A    between atoms: C_25  and  C_34 
REMARK       I    between atoms: N_26  and  C_27 
REMARK    6  A    between atoms: C_27  and  O_28 
REMARK    7  A    between atoms: O_28  and  C_29 
ROOT
HETATM    1  C   UNL     1       4.045  33.637  57.445  1.00  0.00    -0.041 C 
HETATM    2  C   UNL     1       3.601  33.225  58.787  1.00  0.00     0.005 C 
HETATM    3  C   UNL     1       4.279  32.173  59.410  1.00  0.00     0.091 C 
HETATM    4  C   UNL     1       4.285  32.048  60.795  1.00  0.00     0.075 C 
HETATM    5  C   UNL     1       3.531  32.949  61.545  1.00  0.00     0.079 C 
HETATM    6  C   UNL     1       2.596  33.781  60.924  1.00  0.00    -0.024 C 
HETATM    7  C   UNL     1       1.631  34.602  61.738  1.00  0.00     0.044 C 
HETATM    8  C   UNL     1       1.914  34.483  63.234  1.00  0.00     0.043 C 
HETATM    9  C   UNL     1       3.423  34.316  63.480  1.00  0.00     0.068 C 
HETATM   10  C   UNL     1       4.236  35.525  62.930  1.00  0.00     0.038 C 
HETATM   11  C   UNL     1       5.726  35.427  63.237  1.00  0.00     0.003 C 
HETATM   12  C   UNL     1       5.960  35.320  64.736  1.00  0.00     0.000 C 
HETATM   13  C   UNL     1       5.190  34.145  65.331  1.00  0.00     0.003 C 
HETATM   14  C   UNL     1       3.695  34.202  64.997  1.00  0.00     0.038 C 
HETATM   15  O   UNL     1       3.825  33.053  62.881  1.00  0.00    -0.340 OA
HETATM   16  C   UNL     1       2.660  33.941  59.536  1.00  0.00     0.024 C 
HETATM   17  O   UNL     1       5.010  31.232  58.653  1.00  0.00    -0.292 OA
HETATM   18  C   UNL     1       5.265  31.539  57.340  1.00  0.00     0.163 C 
HETATM   19  N   UNL     1       5.858  30.629  56.661  1.00  0.00    -0.277 N 
HETATM   20  H   UNL     1       6.223  30.877  55.726  1.00  0.00     0.189 HD
HETATM   21  C   UNL     1       4.900  32.840  56.788  1.00  0.00     0.065 C 
ENDROOT
BRANCH  19  22
HETATM   22  N   UNL     1       5.897  29.261  56.992  1.00  0.00    -0.266 N 
HETATM   23  C   UNL     1       6.687  28.512  56.133  1.00  0.00     0.263 C 
HETATM   24  O   UNL     1       7.629  29.059  55.547  1.00  0.00    -0.269 OA
HETATM   25  H   UNL     1       5.097  28.886  57.495  1.00  0.00     0.190 HD
BRANCH  23  26
HETATM   26  C   UNL     1       6.149  27.103  55.782  1.00  0.00     0.214 C 
BRANCH  26  27
HETATM   27  N   UNL     1       6.071  27.031  54.333  1.00  0.00    -0.319 N 
HETATM   28  C   UNL     1       4.969  27.436  53.648  1.00  0.00     0.362 C 
HETATM   29  O   UNL     1       3.971  27.889  54.193  1.00  0.00    -0.238 OA
HETATM   30  H   UNL     1       6.867  26.725  53.786  1.00  0.00     0.166 HD
BRANCH  28  31
HETATM   31  O   UNL     1       5.209  27.338  52.326  1.00  0.00    -0.294 OA
BRANCH  31  32
HETATM   32  C   UNL     1       5.406  26.055  51.677  1.00  0.00     0.061 C 
HETATM   33  C   UNL     1       4.571  24.954  52.342  1.00  0.00     0.046 C 
HETATM   34  C   UNL     1       4.894  26.255  50.242  1.00  0.00     0.046 C 
HETATM   35  C   UNL     1       6.893  25.695  51.632  1.00  0.00     0.046 C 
ENDBRANCH  31  32
ENDBRANCH  28  31
ENDBRANCH  26  27
BRANCH  26  36
HETATM   36  C   UNL     1       7.008  25.976  56.310  1.00  0.00    -0.026 A 
HETATM   37  C   UNL     1       7.211  24.829  55.525  1.00  0.00     0.010 A 
HETATM   38  C   UNL     1       8.055  23.807  55.962  1.00  0.00     0.001 A 
HETATM   39  C   UNL     1       8.714  23.919  57.184  1.00  0.00     0.000 A 
HETATM   40  C   UNL     1       8.535  25.055  57.967  1.00  0.00     0.001 A 
HETATM   41  C   UNL     1       7.693  26.080  57.532  1.00  0.00     0.010 A 
ENDBRANCH  26  36
ENDBRANCH  23  26
ENDBRANCH  19  22
BRANCH   1  42
HETATM   42  C   UNL     1       3.727  35.023  56.930  1.00  0.00     0.035 C 
HETATM   43  C   UNL     1       4.785  36.048  57.300  1.00  0.00     0.010 C 
ENDBRANCH   1  42
TORSDOF 7
ENDMDL
MODEL 8
REMARK VINA RESULT:      -8.7      3.613      4.999
REMARK  7 active torsions:
REMARK  status: ('A' for Active; 'I' for Inactive)
REMARK    1  A    between atoms: C_2  and  C_3 
REMARK    2  A    between atoms: N_21  and  N_23 
REMARK       I    between atoms: N_23  and  C_24 
REMARK    3  A    between atoms: C_24  and  C_25 
REMARK    4  A    between atoms: C_25  and  N_26 
REMARK    5  A    between atoms: C_25  and  C_34 
REMARK       I    between atoms: N_26  and  C_27 
REMARK    6  A    between atoms: C_27  and  O_28 
REMARK    7  A    between atoms: O_28  and  C_29 
ROOT
HETATM    1  C   UNL     1       4.829  27.644  54.762  1.00  0.00    -0.041 C 
HETATM    2  C   UNL     1       3.974  28.514  53.938  1.00  0.00     0.005 C 
HETATM    3  C   UNL     1       3.734  29.816  54.386  1.00  0.00     0.091 C 
HETATM    4  C   UNL     1       3.391  30.827  53.494  1.00  0.00     0.075 C 
HETATM    5  C   UNL     1       3.212  30.494  52.153  1.00  0.00     0.079 C 
HETATM    6  C   UNL     1       3.121  29.157  51.760  1.00  0.00    -0.024 C 
HETATM    7  C   UNL     1       2.717  28.790  50.356  1.00  0.00     0.044 C 
HETATM    8  C   UNL     1       2.570  30.026  49.471  1.00  0.00     0.043 C 
HETATM    9  C   UNL     1       3.581  31.106  49.891  1.00  0.00     0.068 C 
HETATM   10  C   UNL     1       5.049  30.601  49.773  1.00  0.00     0.038 C 
HETATM   11  C   UNL     1       6.076  31.680  50.100  1.00  0.00     0.003 C 
HETATM   12  C   UNL     1       5.897  32.885  49.191  1.00  0.00     0.000 C 
HETATM   13  C   UNL     1       4.474  33.429  49.269  1.00  0.00     0.003 C 
HETATM   14  C   UNL     1       3.424  32.348  48.986  1.00  0.00     0.038 C 
HETATM   15  O   UNL     1       3.240  31.521  51.243  1.00  0.00    -0.340 OA
HETATM   16  C   UNL     1       3.539  28.166  52.655  1.00  0.00     0.024 C 
HETATM   17  O   UNL     1       3.873  30.150  55.751  1.00  0.00    -0.292 OA
HETATM   18  C   UNL     1       4.513  29.246  56.561  1.00  0.00     0.163 C 
HETATM   19  N   UNL     1       4.549  29.543  57.806  1.00  0.00    -0.277 N 
HETATM   20  H   UNL     1       5.164  28.986  58.423  1.00  0.00     0.189 HD
HETATM   21  C   UNL     1       5.131  28.046  56.005  1.00  0.00     0.065 C 
ENDROOT
BRANCH  19  22
HETATM   22  N   UNL     1       3.682  30.443  58.454  1.00  0.00    -0.266 N 
HETATM   23  C   UNL     1       4.309  31.616  58.851  1.00  0.00     0.263 C 
HETATM   24  O   UNL     1       5.300  32.012  58.227  1.00  0.00    -0.269 OA
HETATM   25  H   UNL     1       2.875  30.046  58.926  1.00  0.00     0.190 HD
BRANCH  23  26
HETATM   26  C   UNL     1       3.858  32.188  60.218  1.00  0.00     0.214 C 
BRANCH  26  27
HETATM   27  N   UNL     1       4.988  32.058  61.122  1.00  0.00    -0.319 N 
HETATM   28  C   UNL     1       4.854  32.176  62.469  1.00  0.00     0.362 C 
HETATM   29  O   UNL     1       3.781  32.396  63.017  1.00  0.00    -0.238 OA
HETATM   30  H   UNL     1       5.907  31.817  60.771  1.00  0.00     0.166 HD
BRANCH  28  31
HETATM   31  O   UNL     1       6.039  31.923  63.056  1.00  0.00    -0.294 OA
BRANCH  31  32
HETATM   32  C   UNL     1       7.034  32.962  63.250  1.00  0.00     0.061 C 
HETATM   33  C   UNL     1       7.276  33.239  64.739  1.00  0.00     0.046 C 
HETATM   34  C   UNL     1       8.326  32.390  62.645  1.00  0.00     0.046 C 
HETATM   35  C   UNL     1       6.645  34.231  62.489  1.00  0.00     0.046 C 
ENDBRANCH  31  32
ENDBRANCH  28  31
ENDBRANCH  26  27
BRANCH  26  36
HETATM   36  C   UNL     1       3.410  33.630  60.155  1.00  0.00    -0.026 A 
HETATM   37  C   UNL     1       2.103  33.970  60.540  1.00  0.00     0.010 A 
HETATM   38  C   UNL     1       1.689  35.304  60.556  1.00  0.00     0.001 A 
HETATM   39  C   UNL     1       2.576  36.316  60.196  1.00  0.00     0.000 A 
HETATM   40  C   UNL     1       3.880  35.996  59.826  1.00  0.00     0.001 A 
HETATM   41  C   UNL     1       4.297  34.664  59.811  1.00  0.00     0.010 A 
ENDBRANCH  26  36
ENDBRANCH  23  26
ENDBRANCH  19  22
BRANCH   1  42
HETATM   42  C   UNL     1       5.528  26.455  54.142  1.00  0.00     0.035 C 
HETATM   43  C   UNL     1       7.029  26.650  54.017  1.00  0.00     0.010 C 
ENDBRANCH   1  42
TORSDOF 7
ENDMDL
MODEL 9
REMARK VINA RESULT:      -8.7      4.614      7.909
REMARK  7 active torsions:
REMARK  status: ('A' for Active; 'I' for Inactive)
REMARK    1  A    between atoms: C_2  and  C_3 
REMARK    2  A    between atoms: N_21  and  N_23 
REMARK       I    between atoms: N_23  and  C_24 
REMARK    3  A    between atoms: C_24  and  C_25 
REMARK    4  A    between atoms: C_25  and  N_26 
REMARK    5  A    between atoms: C_25  and  C_34 
REMARK       I    between atoms: N_26  and  C_27 
REMARK    6  A    between atoms: C_27  and  O_28 
REMARK    7  A    between atoms: O_28  and  C_29 
ROOT
HETATM    1  C   UNL     1       5.455  32.819  50.687  1.00  0.00    -0.041 C 
HETATM    2  C   UNL     1       5.196  31.376  50.566  1.00  0.00     0.005 C 
HETATM    3  C   UNL     1       4.219  30.812  51.392  1.00  0.00     0.091 C 
HETATM    4  C   UNL     1       3.566  29.638  51.028  1.00  0.00     0.075 C 
HETATM    5  C   UNL     1       3.965  28.993  49.858  1.00  0.00     0.079 C 
HETATM    6  C   UNL     1       5.150  29.361  49.214  1.00  0.00    -0.024 C 
HETATM    7  C   UNL     1       5.700  28.538  48.080  1.00  0.00     0.044 C 
HETATM    8  C   UNL     1       4.752  27.404  47.696  1.00  0.00     0.043 C 
HETATM    9  C   UNL     1       3.290  27.837  47.901  1.00  0.00     0.068 C 
HETATM   10  C   UNL     1       2.930  29.082  47.035  1.00  0.00     0.038 C 
HETATM   11  C   UNL     1       1.463  29.480  47.152  1.00  0.00     0.003 C 
HETATM   12  C   UNL     1       0.559  28.326  46.753  1.00  0.00     0.000 C 
HETATM   13  C   UNL     1       0.863  27.077  47.574  1.00  0.00     0.003 C 
HETATM   14  C   UNL     1       2.343  26.683  47.504  1.00  0.00     0.038 C 
HETATM   15  O   UNL     1       3.101  28.072  49.323  1.00  0.00    -0.340 OA
HETATM   16  C   UNL     1       5.745  30.581  49.554  1.00  0.00     0.024 C 
HETATM   17  O   UNL     1       3.839  31.439  52.597  1.00  0.00    -0.292 OA
HETATM   18  C   UNL     1       4.243  32.736  52.790  1.00  0.00     0.163 C 
HETATM   19  N   UNL     1       3.952  33.247  53.928  1.00  0.00    -0.277 N 
HETATM   20  H   UNL     1       4.080  34.265  54.054  1.00  0.00     0.189 HD
HETATM   21  C   UNL     1       4.933  33.472  51.735  1.00  0.00     0.065 C 
ENDROOT
BRANCH  19  22
HETATM   22  N   UNL     1       3.646  32.518  55.093  1.00  0.00    -0.266 N 
HETATM   23  C   UNL     1       4.623  32.620  56.074  1.00  0.00     0.263 C 
HETATM   24  O   UNL     1       5.335  33.630  56.114  1.00  0.00    -0.269 OA
HETATM   25  H   UNL     1       3.035  31.713  54.986  1.00  0.00     0.190 HD
BRANCH  23  26
HETATM   26  C   UNL     1       4.906  31.325  56.876  1.00  0.00     0.214 C 
BRANCH  26  27
HETATM   27  N   UNL     1       5.472  30.367  55.941  1.00  0.00    -0.319 N 
HETATM   28  C   UNL     1       4.901  29.154  55.716  1.00  0.00     0.362 C 
HETATM   29  O   UNL     1       3.877  28.783  56.275  1.00  0.00    -0.238 OA
HETATM   30  H   UNL     1       6.285  30.603  55.385  1.00  0.00     0.166 HD
BRANCH  28  31
HETATM   31  O   UNL     1       5.584  28.517  54.746  1.00  0.00    -0.294 OA
BRANCH  31  32
HETATM   32  C   UNL     1       6.463  27.399  55.036  1.00  0.00     0.061 C 
HETATM   33  C   UNL     1       5.764  26.056  54.789  1.00  0.00     0.046 C 
HETATM   34  C   UNL     1       7.621  27.537  54.035  1.00  0.00     0.046 C 
HETATM   35  C   UNL     1       7.016  27.502  56.459  1.00  0.00     0.046 C 
ENDBRANCH  31  32
ENDBRANCH  28  31
ENDBRANCH  26  27
BRANCH  26  36
HETATM   36  C   UNL     1       5.847  31.527  58.041  1.00  0.00    -0.026 A 
HETATM   37  C   UNL     1       5.435  32.293  59.144  1.00  0.00     0.010 A 
HETATM   38  C   UNL     1       6.260  32.435  60.261  1.00  0.00     0.001 A 
HETATM   39  C   UNL     1       7.504  31.809  60.296  1.00  0.00     0.000 A 
HETATM   40  C   UNL     1       7.921  31.035  59.217  1.00  0.00     0.001 A 
HETATM   41  C   UNL     1       7.098  30.889  58.100  1.00  0.00     0.010 A 
ENDBRANCH  26  36
ENDBRANCH  23  26
ENDBRANCH  19  22
BRANCH   1  42
HETATM   42  C   UNL     1       6.094  33.576  49.544  1.00  0.00     0.035 C 
HETATM   43  C   UNL     1       5.078  34.121  48.555  1.00  0.00     0.010 C 
ENDBRANCH   1  42
TORSDOF 7
ENDMDL
MODEL 10
REMARK VINA RESULT:      -8.7      4.500     10.501
REMARK  7 active torsions:
REMARK  status: ('A' for Active; 'I' for Inactive)
REMARK    1  A    between atoms: C_2  and  C_3 
REMARK    2  A    between atoms: N_21  and  N_23 
REMARK       I    between atoms: N_23  and  C_24 
REMARK    3  A    between atoms: C_24  and  C_25 
REMARK    4  A    between atoms: C_25  and  N_26 
REMARK    5  A    between atoms: C_25  and  C_34 
REMARK       I    between atoms: N_26  and  C_27 
REMARK    6  A    between atoms: C_27  and  O_28 
REMARK    7  A    between atoms: O_28  and  C_29 
ROOT
HETATM    1  C   UNL     1       5.168  31.662  57.102  1.00  0.00    -0.041 C 
HETATM    2  C   UNL     1       4.701  31.825  55.715  1.00  0.00     0.005 C 
HETATM    3  C   UNL     1       3.926  30.803  55.159  1.00  0.00     0.091 C 
HETATM    4  C   UNL     1       3.053  31.062  54.107  1.00  0.00     0.075 C 
HETATM    5  C   UNL     1       3.027  32.347  53.567  1.00  0.00     0.079 C 
HETATM    6  C   UNL     1       4.024  33.271  53.889  1.00  0.00    -0.024 C 
HETATM    7  C   UNL     1       4.129  34.581  53.154  1.00  0.00     0.044 C 
HETATM    8  C   UNL     1       2.974  34.771  52.173  1.00  0.00     0.043 C 
HETATM    9  C   UNL     1       1.694  34.117  52.723  1.00  0.00     0.068 C 
HETATM   10  C   UNL     1       1.273  34.734  54.090  1.00  0.00     0.038 C 
HETATM   11  C   UNL     1      -0.041  34.166  54.616  1.00  0.00     0.003 C 
HETATM   12  C   UNL     1      -1.161  34.384  53.613  1.00  0.00     0.000 C 
HETATM   13  C   UNL     1      -0.806  33.794  52.252  1.00  0.00     0.003 C 
HETATM   14  C   UNL     1       0.533  34.321  51.724  1.00  0.00     0.038 C 
HETATM   15  O   UNL     1       1.937  32.686  52.806  1.00  0.00    -0.340 OA
HETATM   16  C   UNL     1       4.843  33.015  54.995  1.00  0.00     0.024 C 
HETATM   17  O   UNL     1       3.978  29.490  55.674  1.00  0.00    -0.292 OA
HETATM   18  C   UNL     1       4.584  29.313  56.893  1.00  0.00     0.163 C 
HETATM   19  N   UNL     1       4.687  28.101  57.292  1.00  0.00    -0.277 N 
HETATM   20  H   UNL     1       4.975  27.932  58.271  1.00  0.00     0.189 HD
HETATM   21  C   UNL     1       5.044  30.456  57.675  1.00  0.00     0.065 C 
ENDROOT
BRANCH  19  22
HETATM   22  N   UNL     1       4.624  26.963  56.465  1.00  0.00    -0.266 N 
HETATM   23  C   UNL     1       5.764  26.783  55.695  1.00  0.00     0.263 C 
HETATM   24  O   UNL     1       6.844  27.223  56.103  1.00  0.00    -0.269 OA
HETATM   25  H   UNL     1       3.699  26.646  56.188  1.00  0.00     0.190 HD
BRANCH  23  26
HETATM   26  C   UNL     1       5.525  26.270  54.253  1.00  0.00     0.214 C 
BRANCH  26  27
HETATM   27  N   UNL     1       5.773  27.389  53.361  1.00  0.00    -0.319 N 
HETATM   28  C   UNL     1       4.764  28.065  52.751  1.00  0.00     0.362 C 
HETATM   29  O   UNL     1       3.583  27.785  52.906  1.00  0.00    -0.238 OA
HETATM   30  H   UNL     1       6.714  27.736  53.214  1.00  0.00     0.166 HD
BRANCH  28  31
HETATM   31  O   UNL     1       5.279  29.100  52.060  1.00  0.00    -0.294 OA
BRANCH  31  32
HETATM   32  C   UNL     1       4.913  29.355  50.678  1.00  0.00     0.061 C 
HETATM   33  C   UNL     1       3.453  29.812  50.558  1.00  0.00     0.046 C 
HETATM   34  C   UNL     1       5.823  30.511  50.235  1.00  0.00     0.046 C 
HETATM   35  C   UNL     1       5.201  28.129  49.808  1.00  0.00     0.046 C 
ENDBRANCH  31  32
ENDBRANCH  28  31
ENDBRANCH  26  27
BRANCH  26  36
HETATM   36  C   UNL     1       6.404  25.101  53.872  1.00  0.00    -0.026 A 
HETATM   37  C   UNL     1       7.026  25.079  52.612  1.00  0.00     0.010 A 
HETATM   38  C   UNL     1       7.897  24.045  52.265  1.00  0.00     0.001 A 
HETATM   39  C   UNL     1       8.165  23.022  53.172  1.00  0.00     0.000 A 
HETATM   40  C   UNL     1       7.567  23.036  54.429  1.00  0.00     0.001 A 
HETATM   41  C   UNL     1       6.699  24.070  54.781  1.00  0.00     0.010 A 
ENDBRANCH  26  36
ENDBRANCH  23  26
ENDBRANCH  19  22
BRANCH   1  42
HETATM   42  C   UNL     1       5.558  32.872  57.921  1.00  0.00     0.035 C 
HETATM   43  C   UNL     1       4.441  33.356  58.829  1.00  0.00     0.010 C 
ENDBRANCH   1  42
TORSDOF 7
ENDMDL
