MODEL 1
REMARK VINA RESULT:     -10.2      0.000      0.000
REMARK  8 active torsions:
REMARK  status: ('A' for Active; 'I' for Inactive)
REMARK    1  A    between atoms: C_2  and  N_3 
REMARK       I    between atoms: N_3  and  C_4 
REMARK       I    between atoms: C_4  and  N_5 
REMARK    2  A    between atoms: N_5  and  C_6 
REMARK    3  A    between atoms: N_5  and  C_22 
REMARK    4  A    between atoms: C_6  and  C_7 
REMARK    5  A    between atoms: C_8  and  O_9 
REMARK    6  A    between atoms: C_22  and  C_23 
REMARK    7  A    between atoms: C_23  and  C_24 
REMARK    8  A    between atoms: C_24  and  N_25 
ROOT
HETATM    1  N   UNL     1       7.013  24.355  54.810  1.00  0.00    -0.309 N 
HETATM    2  C   UNL     1       7.351  25.421  54.013  1.00  0.00     0.323 C 
HETATM    3  N   UNL     1       6.967  26.669  54.513  1.00  0.00    -0.330 N 
HETATM    4  O   UNL     1       7.981  25.343  52.961  1.00  0.00    -0.247 OA
HETATM    5  H   UNL     1       6.150  24.453  55.324  1.00  0.00     0.170 HD
ENDROOT
BRANCH   3   6
HETATM    6  C   UNL     1       7.218  27.833  53.653  1.00  0.00     0.170 C 
BRANCH   6   7
HETATM    7  C   UNL     1       6.059  28.177  52.767  1.00  0.00     0.013 A 
HETATM    8  C   UNL     1       5.075  29.081  53.146  1.00  0.00     0.170 A 
HETATM    9  N   UNL     1       3.970  29.351  52.431  1.00  0.00    -0.224 NA
HETATM   10  C   UNL     1       3.800  28.723  51.258  1.00  0.00     0.072 A 
HETATM   11  C   UNL     1       4.749  27.807  50.755  1.00  0.00    -0.004 A 
HETATM   12  C   UNL     1       2.657  28.970  50.512  1.00  0.00     0.072 A 
HETATM   13  C   UNL     1       5.891  27.549  51.529  1.00  0.00     0.027 A 
HETATM   14  C   UNL     1       4.528  27.161  49.527  1.00  0.00     0.053 A 
HETATM   15  C   UNL     1       3.363  27.411  48.809  1.00  0.00     0.103 A 
HETATM   16  C   UNL     1       2.436  28.331  49.292  1.00  0.00     0.104 A 
HETATM   17  O   UNL     1       3.196  26.715  47.641  1.00  0.00    -0.346 OA
HETATM   18  O   UNL     1       1.276  28.647  48.632  1.00  0.00    -0.346 OA
HETATM   19  C   UNL     1       1.300  28.191  47.274  1.00  0.00     0.202 C 
HETATM   20  C   UNL     1       1.834  26.771  47.194  1.00  0.00     0.202 C 
BRANCH   8  21
HETATM   21  O   UNL     1       5.152  29.755  54.328  1.00  0.00    -0.344 OA
HETATM   22  H   UNL     1       5.049  29.085  55.036  1.00  0.00     0.219 HD
ENDBRANCH   8  21
ENDBRANCH   6   7
ENDBRANCH   3   6
BRANCH   3  23
HETATM   23  C   UNL     1       6.592  26.921  55.907  1.00  0.00     0.129 C 
BRANCH  23  24
HETATM   24  C   UNL     1       7.770  27.386  56.780  1.00  0.00     0.048 C 
BRANCH  24  25
HETATM   25  C   UNL     1       7.432  28.609  57.628  1.00  0.00     0.236 C 
BRANCH  25  26
HETATM   26  N   UNL     1       8.684  29.364  58.028  1.00  0.00    -0.067 N 
HETATM   27  H   UNL     1       9.126  28.857  58.807  1.00  0.00     0.280 HD
HETATM   28  C   UNL     1       9.704  29.372  56.882  1.00  0.00     0.261 C 
HETATM   29  C   UNL     1      10.962  30.135  57.310  1.00  0.00     0.195 C 
HETATM   30  O   UNL     1      10.634  31.471  57.707  1.00  0.00    -0.388 OA
HETATM   31  C   UNL     1       9.746  31.487  58.827  1.00  0.00     0.195 C 
HETATM   32  C   UNL     1       8.420  30.798  58.486  1.00  0.00     0.261 C 
ENDBRANCH  25  26
ENDBRANCH  24  25
ENDBRANCH  23  24
ENDBRANCH   3  23
BRANCH   1  33
HETATM   33  C   UNL     1       7.505  23.035  54.714  1.00  0.00     0.036 A 
HETATM   34  C   UNL     1       7.592  22.325  53.511  1.00  0.00     0.032 A 
HETATM   35  C   UNL     1       8.123  21.031  53.490  1.00  0.00     0.044 A 
HETATM   36  C   UNL     1       8.577  20.454  54.667  1.00  0.00     0.116 A 
HETATM   37  C   UNL     1       8.507  21.145  55.870  1.00  0.00     0.044 A 
HETATM   38  F   UNL     1       9.096  19.220  54.643  1.00  0.00    -0.206 F 
HETATM   39  C   UNL     1       7.972  22.435  55.894  1.00  0.00     0.032 A 
ENDBRANCH   1  33
TORSDOF 8
ENDMDL
MODEL 2
REMARK VINA RESULT:     -10.2      1.931      8.224
REMARK  8 active torsions:
REMARK  status: ('A' for Active; 'I' for Inactive)
REMARK    1  A    between atoms: C_2  and  N_3 
REMARK       I    between atoms: N_3  and  C_4 
REMARK       I    between atoms: C_4  and  N_5 
REMARK    2  A    between atoms: N_5  and  C_6 
REMARK    3  A    between atoms: N_5  and  C_22 
REMARK    4  A    between atoms: C_6  and  C_7 
REMARK    5  A    between atoms: C_8  and  O_9 
REMARK    6  A    between atoms: C_22  and  C_23 
REMARK    7  A    between atoms: C_23  and  C_24 
REMARK    8  A    between atoms: C_24  and  N_25 
ROOT
HETATM    1  N   UNL     1       7.494  24.875  53.898  1.00  0.00    -0.309 N 
HETATM    2  C   UNL     1       6.333  25.393  54.419  1.00  0.00     0.323 C 
HETATM    3  N   UNL     1       5.938  26.614  53.865  1.00  0.00    -0.330 N 
HETATM    4  O   UNL     1       5.637  24.844  55.270  1.00  0.00    -0.247 OA
HETATM    5  H   UNL     1       8.186  25.555  53.618  1.00  0.00     0.170 HD
ENDROOT
BRANCH   3   6
HETATM    6  C   UNL     1       4.758  27.258  54.456  1.00  0.00     0.170 C 
BRANCH   6   7
HETATM    7  C   UNL     1       5.099  28.368  55.405  1.00  0.00     0.013 A 
HETATM    8  C   UNL     1       4.507  29.622  55.327  1.00  0.00     0.170 A 
HETATM    9  N   UNL     1       4.846  30.675  56.089  1.00  0.00    -0.224 NA
HETATM   10  C   UNL     1       5.810  30.513  57.006  1.00  0.00     0.072 A 
HETATM   11  C   UNL     1       6.462  29.276  57.198  1.00  0.00    -0.004 A 
HETATM   12  C   UNL     1       6.192  31.592  57.791  1.00  0.00     0.072 A 
HETATM   13  C   UNL     1       6.083  28.198  56.384  1.00  0.00     0.027 A 
HETATM   14  C   UNL     1       7.476  29.151  58.163  1.00  0.00     0.053 A 
HETATM   15  C   UNL     1       7.854  30.254  58.922  1.00  0.00     0.103 A 
HETATM   16  C   UNL     1       7.197  31.471  58.750  1.00  0.00     0.104 A 
HETATM   17  O   UNL     1       8.877  30.069  59.814  1.00  0.00    -0.346 OA
HETATM   18  O   UNL     1       7.497  32.596  59.475  1.00  0.00    -0.346 OA
HETATM   19  C   UNL     1       8.298  32.287  60.622  1.00  0.00     0.202 C 
HETATM   20  C   UNL     1       9.414  31.324  60.255  1.00  0.00     0.202 C 
BRANCH   8  21
HETATM   21  O   UNL     1       3.529  29.886  54.414  1.00  0.00    -0.344 OA
HETATM   22  H   UNL     1       3.129  29.023  54.179  1.00  0.00     0.219 HD
ENDBRANCH   8  21
ENDBRANCH   6   7
ENDBRANCH   3   6
BRANCH   3  23
HETATM   23  C   UNL     1       6.442  27.149  52.597  1.00  0.00     0.129 C 
BRANCH  23  24
HETATM   24  C   UNL     1       5.602  26.722  51.381  1.00  0.00     0.048 C 
BRANCH  24  25
HETATM   25  C   UNL     1       4.659  27.820  50.898  1.00  0.00     0.236 C 
BRANCH  25  26
HETATM   26  N   UNL     1       3.840  27.358  49.709  1.00  0.00    -0.067 N 
HETATM   27  H   UNL     1       2.847  27.386  49.976  1.00  0.00     0.280 HD
HETATM   28  C   UNL     1       3.998  28.328  48.529  1.00  0.00     0.261 C 
HETATM   29  C   UNL     1       3.159  27.845  47.343  1.00  0.00     0.195 C 
HETATM   30  O   UNL     1       3.535  26.518  46.962  1.00  0.00    -0.388 OA
HETATM   31  C   UNL     1       3.319  25.582  48.021  1.00  0.00     0.195 C 
HETATM   32  C   UNL     1       4.166  25.938  49.248  1.00  0.00     0.261 C 
ENDBRANCH  25  26
ENDBRANCH  24  25
ENDBRANCH  23  24
ENDBRANCH   3  23
BRANCH   1  33
HETATM   33  C   UNL     1       7.977  23.557  54.047  1.00  0.00     0.036 A 
HETATM   34  C   UNL     1       8.721  23.125  55.151  1.00  0.00     0.032 A 
HETATM   35  C   UNL     1       9.137  21.793  55.245  1.00  0.00     0.044 A 
HETATM   36  C   UNL     1       8.798  20.893  54.244  1.00  0.00     0.116 A 
HETATM   37  C   UNL     1       8.054  21.300  53.146  1.00  0.00     0.044 A 
HETATM   38  F   UNL     1       9.188  19.615  54.342  1.00  0.00    -0.206 F 
HETATM   39  C   UNL     1       7.642  22.631  53.046  1.00  0.00     0.032 A 
ENDBRANCH   1  33
TORSDOF 8
ENDMDL
MODEL 3
REMARK VINA RESULT:      -9.8      2.451      2.885
REMARK  8 active torsions:
REMARK  status: ('A' for Active; 'I' for Inactive)
REMARK    1  A    between atoms: C_2  and  N_3 
REMARK       I    between atoms: N_3  and  C_4 
REMARK       I    between atoms: C_4  and  N_5 
REMARK    2  A    between atoms: N_5  and  C_6 
REMARK    3  A    between atoms: N_5  and  C_22 
REMARK    4  A    between atoms: C_6  and  C_7 
REMARK    5  A    between atoms: C_8  and  O_9 
REMARK    6  A    between atoms: C_22  and  C_23 
REMARK    7  A    between atoms: C_23  and  C_24 
REMARK    8  A    between atoms: C_24  and  N_25 
ROOT
HETATM    1  N   UNL     1       7.543  24.787  54.527  1.00  0.00    -0.309 N 
HETATM    2  C   UNL     1       6.338  25.374  54.228  1.00  0.00     0.323 C 
HETATM    3  N   UNL     1       6.388  26.763  54.075  1.00  0.00    -0.330 N 
HETATM    4  O   UNL     1       5.284  24.769  54.051  1.00  0.00    -0.247 OA
HETATM    5  H   UNL     1       8.167  25.339  55.097  1.00  0.00     0.170 HD
ENDROOT
BRANCH   3   6
HETATM    6  C   UNL     1       5.110  27.451  53.851  1.00  0.00     0.170 C 
BRANCH   6   7
HETATM    7  C   UNL     1       4.952  27.973  52.455  1.00  0.00     0.013 A 
HETATM    8  C   UNL     1       4.723  27.138  51.369  1.00  0.00     0.170 A 
HETATM    9  N   UNL     1       4.670  27.545  50.090  1.00  0.00    -0.224 NA
HETATM   10  C   UNL     1       4.832  28.851  49.830  1.00  0.00     0.072 A 
HETATM   11  C   UNL     1       5.040  29.799  50.855  1.00  0.00    -0.004 A 
HETATM   12  C   UNL     1       4.802  29.292  48.515  1.00  0.00     0.072 A 
HETATM   13  C   UNL     1       5.090  29.337  52.179  1.00  0.00     0.027 A 
HETATM   14  C   UNL     1       5.217  31.157  50.539  1.00  0.00     0.053 A 
HETATM   15  C   UNL     1       5.204  31.569  49.211  1.00  0.00     0.103 A 
HETATM   16  C   UNL     1       4.976  30.640  48.199  1.00  0.00     0.104 A 
HETATM   17  O   UNL     1       5.423  32.901  48.975  1.00  0.00    -0.346 OA
HETATM   18  O   UNL     1       4.927  30.973  46.869  1.00  0.00    -0.346 OA
HETATM   19  C   UNL     1       4.799  32.387  46.683  1.00  0.00     0.202 C 
HETATM   20  C   UNL     1       5.751  33.138  47.599  1.00  0.00     0.202 C 
BRANCH   8  21
HETATM   21  O   UNL     1       4.563  25.795  51.533  1.00  0.00    -0.344 OA
HETATM   22  H   UNL     1       3.598  25.623  51.488  1.00  0.00     0.219 HD
ENDBRANCH   8  21
ENDBRANCH   6   7
ENDBRANCH   3   6
BRANCH   3  23
HETATM   23  C   UNL     1       7.619  27.527  53.858  1.00  0.00     0.129 C 
BRANCH  23  24
HETATM   24  C   UNL     1       7.893  28.564  54.961  1.00  0.00     0.048 C 
BRANCH  24  25
HETATM   25  C   UNL     1       8.047  27.934  56.343  1.00  0.00     0.236 C 
BRANCH  25  26
HETATM   26  N   UNL     1       8.972  28.751  57.221  1.00  0.00    -0.067 N 
HETATM   27  H   UNL     1       9.446  28.107  57.869  1.00  0.00     0.280 HD
HETATM   28  C   UNL     1      10.075  29.413  56.383  1.00  0.00     0.261 C 
HETATM   29  C   UNL     1      11.001  30.227  57.292  1.00  0.00     0.195 C 
HETATM   30  O   UNL     1      10.259  31.211  58.020  1.00  0.00    -0.388 OA
HETATM   31  C   UNL     1       9.278  30.612  58.870  1.00  0.00     0.195 C 
HETATM   32  C   UNL     1       8.256  29.815  58.052  1.00  0.00     0.261 C 
ENDBRANCH  25  26
ENDBRANCH  24  25
ENDBRANCH  23  24
ENDBRANCH   3  23
BRANCH   1  33
HETATM   33  C   UNL     1       7.857  23.411  54.459  1.00  0.00     0.036 A 
HETATM   34  C   UNL     1       7.977  22.702  53.258  1.00  0.00     0.032 A 
HETATM   35  C   UNL     1       8.325  21.348  53.269  1.00  0.00     0.044 A 
HETATM   36  C   UNL     1       8.565  20.708  54.477  1.00  0.00     0.116 A 
HETATM   37  C   UNL     1       8.460  21.396  55.678  1.00  0.00     0.044 A 
HETATM   38  F   UNL     1       8.909  19.414  54.484  1.00  0.00    -0.206 F 
HETATM   39  C   UNL     1       8.107  22.747  55.670  1.00  0.00     0.032 A 
ENDBRANCH   1  33
TORSDOF 8
ENDMDL
MODEL 4
REMARK VINA RESULT:      -9.8      4.276      9.567
REMARK  8 active torsions:
REMARK  status: ('A' for Active; 'I' for Inactive)
REMARK    1  A    between atoms: C_2  and  N_3 
REMARK       I    between atoms: N_3  and  C_4 
REMARK       I    between atoms: C_4  and  N_5 
REMARK    2  A    between atoms: N_5  and  C_6 
REMARK    3  A    between atoms: N_5  and  C_22 
REMARK    4  A    between atoms: C_6  and  C_7 
REMARK    5  A    between atoms: C_8  and  O_9 
REMARK    6  A    between atoms: C_22  and  C_23 
REMARK    7  A    between atoms: C_23  and  C_24 
REMARK    8  A    between atoms: C_24  and  N_25 
ROOT
HETATM    1  N   UNL     1       4.240  30.338  57.442  1.00  0.00    -0.309 N 
HETATM    2  C   UNL     1       5.512  30.028  57.024  1.00  0.00     0.323 C 
HETATM    3  N   UNL     1       5.573  29.099  55.980  1.00  0.00    -0.330 N 
HETATM    4  O   UNL     1       6.541  30.532  57.466  1.00  0.00    -0.247 OA
HETATM    5  H   UNL     1       3.570  29.584  57.391  1.00  0.00     0.170 HD
ENDROOT
BRANCH   3   6
HETATM    6  C   UNL     1       6.910  28.660  55.563  1.00  0.00     0.170 C 
BRANCH   6   7
HETATM    7  C   UNL     1       7.238  27.261  55.994  1.00  0.00     0.013 A 
HETATM    8  C   UNL     1       7.799  26.977  57.232  1.00  0.00     0.170 A 
HETATM    9  N   UNL     1       8.199  25.757  57.627  1.00  0.00    -0.224 NA
HETATM   10  C   UNL     1       8.033  24.728  56.783  1.00  0.00     0.072 A 
HETATM   11  C   UNL     1       7.445  24.890  55.510  1.00  0.00    -0.004 A 
HETATM   12  C   UNL     1       8.457  23.462  57.161  1.00  0.00     0.072 A 
HETATM   13  C   UNL     1       7.040  26.179  55.131  1.00  0.00     0.027 A 
HETATM   14  C   UNL     1       7.299  23.788  54.651  1.00  0.00     0.053 A 
HETATM   15  C   UNL     1       7.752  22.533  55.046  1.00  0.00     0.103 A 
HETATM   16  C   UNL     1       8.313  22.365  56.311  1.00  0.00     0.104 A 
HETATM   17  O   UNL     1       7.615  21.514  54.142  1.00  0.00    -0.346 OA
HETATM   18  O   UNL     1       8.761  21.157  56.780  1.00  0.00    -0.346 OA
HETATM   19  C   UNL     1       8.285  20.070  55.978  1.00  0.00     0.202 C 
HETATM   20  C   UNL     1       8.430  20.389  54.500  1.00  0.00     0.202 C 
BRANCH   8  21
HETATM   21  O   UNL     1       8.022  27.960  58.150  1.00  0.00    -0.344 OA
HETATM   22  H   UNL     1       8.991  28.105  58.171  1.00  0.00     0.219 HD
ENDBRANCH   8  21
ENDBRANCH   6   7
ENDBRANCH   3   6
BRANCH   3  23
HETATM   23  C   UNL     1       4.441  28.749  55.118  1.00  0.00     0.129 C 
BRANCH  23  24
HETATM   24  C   UNL     1       4.658  29.134  53.645  1.00  0.00     0.048 C 
BRANCH  24  25
HETATM   25  C   UNL     1       3.394  28.989  52.802  1.00  0.00     0.236 C 
BRANCH  25  26
HETATM   26  N   UNL     1       3.597  28.001  51.671  1.00  0.00    -0.067 N 
HETATM   27  H   UNL     1       2.855  27.289  51.733  1.00  0.00     0.280 HD
HETATM   28  C   UNL     1       3.425  28.688  50.309  1.00  0.00     0.261 C 
HETATM   29  C   UNL     1       3.628  27.670  49.183  1.00  0.00     0.195 C 
HETATM   30  O   UNL     1       4.917  27.055  49.282  1.00  0.00    -0.388 OA
HETATM   31  C   UNL     1       5.070  26.340  50.510  1.00  0.00     0.195 C 
HETATM   32  C   UNL     1       4.945  27.282  51.713  1.00  0.00     0.261 C 
ENDBRANCH  25  26
ENDBRANCH  24  25
ENDBRANCH  23  24
ENDBRANCH   3  23
BRANCH   1  33
HETATM   33  C   UNL     1       3.857  31.425  58.258  1.00  0.00     0.036 A 
HETATM   34  C   UNL     1       3.488  31.293  59.601  1.00  0.00     0.032 A 
HETATM   35  C   UNL     1       3.152  32.422  60.356  1.00  0.00     0.044 A 
HETATM   36  C   UNL     1       3.199  33.680  59.772  1.00  0.00     0.116 A 
HETATM   37  C   UNL     1       3.571  33.832  58.444  1.00  0.00     0.044 A 
HETATM   38  F   UNL     1       2.889  34.760  60.500  1.00  0.00    -0.206 F 
HETATM   39  C   UNL     1       3.901  32.706  57.686  1.00  0.00     0.032 A 
ENDBRANCH   1  33
TORSDOF 8
ENDMDL
MODEL 5
REMARK VINA RESULT:      -9.7      3.429      4.999
REMARK  8 active torsions:
REMARK  status: ('A' for Active; 'I' for Inactive)
REMARK    1  A    between atoms: C_2  and  N_3 
REMARK       I    between atoms: N_3  and  C_4 
REMARK       I    between atoms: C_4  and  N_5 
REMARK    2  A    between atoms: N_5  and  C_6 
REMARK    3  A    between atoms: N_5  and  C_22 
REMARK    4  A    between atoms: C_6  and  C_7 
REMARK    5  A    between atoms: C_8  and  O_9 
REMARK    6  A    between atoms: C_22  and  C_23 
REMARK    7  A    between atoms: C_23  and  C_24 
REMARK    8  A    between atoms: C_24  and  N_25 
ROOT
HETATM    1  N   UNL     1       7.469  24.869  55.521  1.00  0.00    -0.309 N 
HETATM    2  C   UNL     1       6.236  25.398  55.816  1.00  0.00     0.323 C 
HETATM    3  N   UNL     1       6.250  26.753  56.162  1.00  0.00    -0.330 N 
HETATM    4  O   UNL     1       5.173  24.786  55.752  1.00  0.00    -0.247 OA
HETATM    5  H   UNL     1       8.243  25.254  56.042  1.00  0.00     0.170 HD
ENDROOT
BRANCH   3   6
HETATM    6  C   UNL     1       4.971  27.342  56.581  1.00  0.00     0.170 C 
BRANCH   6   7
HETATM    7  C   UNL     1       4.655  28.632  55.886  1.00  0.00     0.013 A 
HETATM    8  C   UNL     1       4.122  28.675  54.605  1.00  0.00     0.170 A 
HETATM    9  N   UNL     1       3.910  29.801  53.903  1.00  0.00    -0.224 NA
HETATM   10  C   UNL     1       4.215  30.975  54.475  1.00  0.00     0.072 A 
HETATM   11  C   UNL     1       4.734  31.058  55.785  1.00  0.00    -0.004 A 
HETATM   12  C   UNL     1       4.025  32.150  53.762  1.00  0.00     0.072 A 
HETATM   13  C   UNL     1       4.942  29.861  56.488  1.00  0.00     0.027 A 
HETATM   14  C   UNL     1       5.051  32.307  56.344  1.00  0.00     0.053 A 
HETATM   15  C   UNL     1       4.870  33.469  55.600  1.00  0.00     0.103 A 
HETATM   16  C   UNL     1       4.338  33.392  54.315  1.00  0.00     0.104 A 
HETATM   17  O   UNL     1       5.240  34.647  56.193  1.00  0.00    -0.346 OA
HETATM   18  O   UNL     1       4.110  34.492  53.529  1.00  0.00    -0.346 OA
HETATM   19  C   UNL     1       4.162  35.705  54.290  1.00  0.00     0.202 C 
HETATM   20  C   UNL     1       5.357  35.700  55.227  1.00  0.00     0.202 C 
BRANCH   8  21
HETATM   21  O   UNL     1       3.796  27.533  53.936  1.00  0.00    -0.344 OA
HETATM   22  H   UNL     1       3.475  27.811  53.052  1.00  0.00     0.219 HD
ENDBRANCH   8  21
ENDBRANCH   6   7
ENDBRANCH   3   6
BRANCH   3  23
HETATM   23  C   UNL     1       7.361  27.666  55.883  1.00  0.00     0.129 C 
BRANCH  23  24
HETATM   24  C   UNL     1       8.330  27.824  57.067  1.00  0.00     0.048 C 
BRANCH  24  25
HETATM   25  C   UNL     1       7.770  28.708  58.177  1.00  0.00     0.236 C 
BRANCH  25  26
HETATM   26  N   UNL     1       8.790  29.730  58.635  1.00  0.00    -0.067 N 
HETATM   27  H   UNL     1       9.430  29.268  59.296  1.00  0.00     0.280 HD
HETATM   28  C   UNL     1       9.653  30.205  57.457  1.00  0.00     0.261 C 
HETATM   29  C   UNL     1      10.680  31.231  57.944  1.00  0.00     0.195 C 
HETATM   30  O   UNL     1      10.029  32.340  58.575  1.00  0.00    -0.388 OA
HETATM   31  C   UNL     1       9.284  31.932  59.724  1.00  0.00     0.195 C 
HETATM   32  C   UNL     1       8.179  30.941  59.339  1.00  0.00     0.261 C 
ENDBRANCH  25  26
ENDBRANCH  24  25
ENDBRANCH  23  24
ENDBRANCH   3  23
BRANCH   1  33
HETATM   33  C   UNL     1       7.733  23.640  54.879  1.00  0.00     0.036 A 
HETATM   34  C   UNL     1       7.995  22.448  55.564  1.00  0.00     0.032 A 
HETATM   35  C   UNL     1       8.214  21.260  54.859  1.00  0.00     0.044 A 
HETATM   36  C   UNL     1       8.159  21.262  53.472  1.00  0.00     0.116 A 
HETATM   37  C   UNL     1       7.892  22.432  52.774  1.00  0.00     0.044 A 
HETATM   38  F   UNL     1       8.357  20.122  52.799  1.00  0.00    -0.206 F 
HETATM   39  C   UNL     1       7.679  23.621  53.476  1.00  0.00     0.032 A 
ENDBRANCH   1  33
TORSDOF 8
ENDMDL
MODEL 6
REMARK VINA RESULT:      -9.7      2.615      3.575
REMARK  8 active torsions:
REMARK  status: ('A' for Active; 'I' for Inactive)
REMARK    1  A    between atoms: C_2  and  N_3 
REMARK       I    between atoms: N_3  and  C_4 
REMARK       I    between atoms: C_4  and  N_5 
REMARK    2  A    between atoms: N_5  and  C_6 
REMARK    3  A    between atoms: N_5  and  C_22 
REMARK    4  A    between atoms: C_6  and  C_7 
REMARK    5  A    between atoms: C_8  and  O_9 
REMARK    6  A    between atoms: C_22  and  C_23 
REMARK    7  A    between atoms: C_23  and  C_24 
REMARK    8  A    between atoms: C_24  and  N_25 
ROOT
HETATM    1  N   UNL     1       7.657  25.275  54.941  1.00  0.00    -0.309 N 
HETATM    2  C   UNL     1       6.405  25.770  55.212  1.00  0.00     0.323 C 
HETATM    3  N   UNL     1       6.336  27.163  55.307  1.00  0.00    -0.330 N 
HETATM    4  O   UNL     1       5.387  25.090  55.324  1.00  0.00    -0.247 OA
HETATM    5  H   UNL     1       8.426  25.796  55.336  1.00  0.00     0.170 HD
ENDROOT
BRANCH   3   6
HETATM    6  C   UNL     1       5.041  27.738  55.691  1.00  0.00     0.170 C 
BRANCH   6   7
HETATM    7  C   UNL     1       4.402  28.547  54.602  1.00  0.00     0.013 A 
HETATM    8  C   UNL     1       3.862  27.966  53.463  1.00  0.00     0.170 A 
HETATM    9  N   UNL     1       3.367  28.649  52.418  1.00  0.00    -0.224 NA
HETATM   10  C   UNL     1       3.372  29.989  52.473  1.00  0.00     0.072 A 
HETATM   11  C   UNL     1       3.867  30.691  53.594  1.00  0.00    -0.004 A 
HETATM   12  C   UNL     1       2.885  30.718  51.398  1.00  0.00     0.072 A 
HETATM   13  C   UNL     1       4.377  29.944  54.667  1.00  0.00     0.027 A 
HETATM   14  C   UNL     1       3.866  32.096  53.608  1.00  0.00     0.053 A 
HETATM   15  C   UNL     1       3.391  32.802  52.507  1.00  0.00     0.103 A 
HETATM   16  C   UNL     1       2.881  32.113  51.409  1.00  0.00     0.104 A 
HETATM   17  O   UNL     1       3.458  34.169  52.574  1.00  0.00    -0.346 OA
HETATM   18  O   UNL     1       2.375  32.737  50.298  1.00  0.00    -0.346 OA
HETATM   19  C   UNL     1       2.128  34.127  50.540  1.00  0.00     0.202 C 
HETATM   20  C   UNL     1       3.296  34.760  51.277  1.00  0.00     0.202 C 
BRANCH   8  21
HETATM   21  O   UNL     1       3.827  26.612  53.309  1.00  0.00    -0.344 OA
HETATM   22  H   UNL     1       4.526  26.389  52.658  1.00  0.00     0.219 HD
ENDBRANCH   8  21
ENDBRANCH   6   7
ENDBRANCH   3   6
BRANCH   3  23
HETATM   23  C   UNL     1       7.363  28.078  54.800  1.00  0.00     0.129 C 
BRANCH  23  24
HETATM   24  C   UNL     1       7.803  29.129  55.833  1.00  0.00     0.048 C 
BRANCH  24  25
HETATM   25  C   UNL     1       8.400  28.509  57.093  1.00  0.00     0.236 C 
BRANCH  25  26
HETATM   26  N   UNL     1       8.736  29.568  58.123  1.00  0.00    -0.067 N 
HETATM   27  H   UNL     1       9.128  29.096  58.950  1.00  0.00     0.280 HD
HETATM   28  C   UNL     1       9.831  30.508  57.601  1.00  0.00     0.261 C 
HETATM   29  C   UNL     1      10.158  31.565  58.660  1.00  0.00     0.195 C 
HETATM   30  O   UNL     1       8.985  32.304  59.018  1.00  0.00    -0.388 OA
HETATM   31  C   UNL     1       7.980  31.459  59.583  1.00  0.00     0.195 C 
HETATM   32  C   UNL     1       7.531  30.392  58.577  1.00  0.00     0.261 C 
ENDBRANCH  25  26
ENDBRANCH  24  25
ENDBRANCH  23  24
ENDBRANCH   3  23
BRANCH   1  33
HETATM   33  C   UNL     1       7.978  23.967  54.515  1.00  0.00     0.036 A 
HETATM   34  C   UNL     1       7.589  23.437  53.280  1.00  0.00     0.032 A 
HETATM   35  C   UNL     1       7.974  22.143  52.912  1.00  0.00     0.044 A 
HETATM   36  C   UNL     1       8.759  21.388  53.773  1.00  0.00     0.116 A 
HETATM   37  C   UNL     1       9.163  21.899  54.998  1.00  0.00     0.044 A 
HETATM   38  F   UNL     1       9.137  20.155  53.414  1.00  0.00    -0.206 F 
HETATM   39  C   UNL     1       8.774  23.189  55.370  1.00  0.00     0.032 A 
ENDBRANCH   1  33
TORSDOF 8
ENDMDL
MODEL 7
REMARK VINA RESULT:      -9.6      2.597      3.268
REMARK  8 active torsions:
REMARK  status: ('A' for Active; 'I' for Inactive)
REMARK    1  A    between atoms: C_2  and  N_3 
REMARK       I    between atoms: N_3  and  C_4 
REMARK       I    between atoms: C_4  and  N_5 
REMARK    2  A    between atoms: N_5  and  C_6 
REMARK    3  A    between atoms: N_5  and  C_22 
REMARK    4  A    between atoms: C_6  and  C_7 
REMARK    5  A    between atoms: C_8  and  O_9 
REMARK    6  A    between atoms: C_22  and  C_23 
REMARK    7  A    between atoms: C_23  and  C_24 
REMARK    8  A    between atoms: C_24  and  N_25 
ROOT
HETATM    1  N   UNL     1       7.448  24.796  55.565  1.00  0.00    -0.309 N 
HETATM    2  C   UNL     1       6.213  25.291  55.905  1.00  0.00     0.323 C 
HETATM    3  N   UNL     1       6.206  26.642  56.266  1.00  0.00    -0.330 N 
HETATM    4  O   UNL     1       5.163  24.655  55.866  1.00  0.00    -0.247 OA
HETATM    5  H   UNL     1       8.229  25.193  56.066  1.00  0.00     0.170 HD
ENDROOT
BRANCH   3   6
HETATM    6  C   UNL     1       4.928  27.196  56.732  1.00  0.00     0.170 C 
BRANCH   6   7
HETATM    7  C   UNL     1       4.508  28.429  55.990  1.00  0.00     0.013 A 
HETATM    8  C   UNL     1       4.234  29.628  56.634  1.00  0.00     0.170 A 
HETATM    9  N   UNL     1       3.765  30.731  56.028  1.00  0.00    -0.224 NA
HETATM   10  C   UNL     1       3.557  30.691  54.704  1.00  0.00     0.072 A 
HETATM   11  C   UNL     1       3.830  29.537  53.937  1.00  0.00    -0.004 A 
HETATM   12  C   UNL     1       3.053  31.811  54.059  1.00  0.00     0.072 A 
HETATM   13  C   UNL     1       4.319  28.404  54.604  1.00  0.00     0.027 A 
HETATM   14  C   UNL     1       3.588  29.532  52.553  1.00  0.00     0.053 A 
HETATM   15  C   UNL     1       3.062  30.662  51.935  1.00  0.00     0.103 A 
HETATM   16  C   UNL     1       2.813  31.810  52.684  1.00  0.00     0.104 A 
HETATM   17  O   UNL     1       2.814  30.572  50.591  1.00  0.00    -0.346 OA
HETATM   18  O   UNL     1       2.317  32.968  52.144  1.00  0.00    -0.346 OA
HETATM   19  C   UNL     1       2.408  32.965  50.714  1.00  0.00     0.202 C 
HETATM   20  C   UNL     1       1.951  31.630  50.150  1.00  0.00     0.202 C 
BRANCH   8  21
HETATM   21  O   UNL     1       4.398  29.760  57.981  1.00  0.00    -0.344 OA
HETATM   22  H   UNL     1       4.115  30.671  58.207  1.00  0.00     0.219 HD
ENDBRANCH   8  21
ENDBRANCH   6   7
ENDBRANCH   3   6
BRANCH   3  23
HETATM   23  C   UNL     1       7.286  27.585  55.963  1.00  0.00     0.129 C 
BRANCH  23  24
HETATM   24  C   UNL     1       8.231  27.828  57.152  1.00  0.00     0.048 C 
BRANCH  24  25
HETATM   25  C   UNL     1       7.657  28.805  58.175  1.00  0.00     0.236 C 
BRANCH  25  26
HETATM   26  N   UNL     1       8.708  29.790  58.646  1.00  0.00    -0.067 N 
HETATM   27  H   UNL     1       9.283  29.324  59.362  1.00  0.00     0.280 HD
HETATM   28  C   UNL     1       9.660  30.160  57.500  1.00  0.00     0.261 C 
HETATM   29  C   UNL     1      10.715  31.151  58.000  1.00  0.00     0.195 C 
HETATM   30  O   UNL     1      10.096  32.322  58.542  1.00  0.00    -0.388 OA
HETATM   31  C   UNL     1       9.266  32.010  59.664  1.00  0.00     0.195 C 
HETATM   32  C   UNL     1       8.129  31.064  59.259  1.00  0.00     0.261 C 
ENDBRANCH  25  26
ENDBRANCH  24  25
ENDBRANCH  23  24
ENDBRANCH   3  23
BRANCH   1  33
HETATM   33  C   UNL     1       7.721  23.580  54.900  1.00  0.00     0.036 A 
HETATM   34  C   UNL     1       7.971  22.373  55.563  1.00  0.00     0.032 A 
HETATM   35  C   UNL     1       8.200  21.201  54.835  1.00  0.00     0.044 A 
HETATM   36  C   UNL     1       8.165  21.233  53.448  1.00  0.00     0.116 A 
HETATM   37  C   UNL     1       7.910  22.419  52.772  1.00  0.00     0.044 A 
HETATM   38  F   UNL     1       8.373  20.108  52.754  1.00  0.00    -0.206 F 
HETATM   39  C   UNL     1       7.687  23.592  53.497  1.00  0.00     0.032 A 
ENDBRANCH   1  33
TORSDOF 8
ENDMDL
MODEL 8
REMARK VINA RESULT:      -9.6      1.408      1.765
REMARK  8 active torsions:
REMARK  status: ('A' for Active; 'I' for Inactive)
REMARK    1  A    between atoms: C_2  and  N_3 
REMARK       I    between atoms: N_3  and  C_4 
REMARK       I    between atoms: C_4  and  N_5 
REMARK    2  A    between atoms: N_5  and  C_6 
REMARK    3  A    between atoms: N_5  and  C_22 
REMARK    4  A    between atoms: C_6  and  C_7 
REMARK    5  A    between atoms: C_8  and  O_9 
REMARK    6  A    between atoms: C_22  and  C_23 
REMARK    7  A    between atoms: C_23  and  C_24 
REMARK    8  A    between atoms: C_24  and  N_25 
ROOT
HETATM    1  N   UNL     1       7.656  25.002  55.398  1.00  0.00    -0.309 N 
HETATM    2  C   UNL     1       6.400  25.556  55.402  1.00  0.00     0.323 C 
HETATM    3  N   UNL     1       6.372  26.937  55.625  1.00  0.00    -0.330 N 
HETATM    4  O   UNL     1       5.358  24.943  55.186  1.00  0.00    -0.247 OA
HETATM    5  H   UNL     1       8.323  25.430  56.024  1.00  0.00     0.170 HD
ENDROOT
BRANCH   3   6
HETATM    6  C   UNL     1       5.048  27.563  55.737  1.00  0.00     0.170 C 
BRANCH   6   7
HETATM    7  C   UNL     1       4.612  28.257  54.482  1.00  0.00     0.013 A 
HETATM    8  C   UNL     1       3.946  29.476  54.499  1.00  0.00     0.170 A 
HETATM    9  N   UNL     1       3.451  30.091  53.412  1.00  0.00    -0.224 NA
HETATM   10  C   UNL     1       3.619  29.506  52.217  1.00  0.00     0.072 A 
HETATM   11  C   UNL     1       4.308  28.282  52.072  1.00  0.00    -0.004 A 
HETATM   12  C   UNL     1       3.099  30.112  51.083  1.00  0.00     0.072 A 
HETATM   13  C   UNL     1       4.811  27.668  53.229  1.00  0.00     0.027 A 
HETATM   14  C   UNL     1       4.453  27.696  50.803  1.00  0.00     0.053 A 
HETATM   15  C   UNL     1       3.902  28.315  49.685  1.00  0.00     0.103 A 
HETATM   16  C   UNL     1       3.242  29.534  49.821  1.00  0.00     0.104 A 
HETATM   17  O   UNL     1       4.047  27.666  48.487  1.00  0.00    -0.346 OA
HETATM   18  O   UNL     1       2.693  30.214  48.764  1.00  0.00    -0.346 OA
HETATM   19  C   UNL     1       3.164  29.709  47.510  1.00  0.00     0.202 C 
HETATM   20  C   UNL     1       3.146  28.190  47.501  1.00  0.00     0.202 C 
BRANCH   8  21
HETATM   21  O   UNL     1       3.713  30.137  55.667  1.00  0.00    -0.344 OA
HETATM   22  H   UNL     1       4.551  30.105  56.176  1.00  0.00     0.219 HD
ENDBRANCH   8  21
ENDBRANCH   6   7
ENDBRANCH   3   6
BRANCH   3  23
HETATM   23  C   UNL     1       7.534  27.820  55.489  1.00  0.00     0.129 C 
BRANCH  23  24
HETATM   24  C   UNL     1       8.382  27.911  56.769  1.00  0.00     0.048 C 
BRANCH  24  25
HETATM   25  C   UNL     1       7.709  28.728  57.868  1.00  0.00     0.236 C 
BRANCH  25  26
HETATM   26  N   UNL     1       8.668  29.734  58.472  1.00  0.00    -0.067 N 
HETATM   27  H   UNL     1       9.165  29.274  59.248  1.00  0.00     0.280 HD
HETATM   28  C   UNL     1       9.741  30.144  57.453  1.00  0.00     0.261 C 
HETATM   29  C   UNL     1      10.701  31.155  58.086  1.00  0.00     0.195 C 
HETATM   30  O   UNL     1       9.989  32.302  58.562  1.00  0.00    -0.388 OA
HETATM   31  C   UNL     1       9.039  31.953  59.572  1.00  0.00     0.195 C 
HETATM   32  C   UNL     1       7.985  30.984  59.024  1.00  0.00     0.261 C 
ENDBRANCH  25  26
ENDBRANCH  24  25
ENDBRANCH  23  24
ENDBRANCH   3  23
BRANCH   1  33
HETATM   33  C   UNL     1       8.016  23.719  54.928  1.00  0.00     0.036 A 
HETATM   34  C   UNL     1       8.432  22.676  55.763  1.00  0.00     0.032 A 
HETATM   35  C   UNL     1       8.739  21.421  55.227  1.00  0.00     0.044 A 
HETATM   36  C   UNL     1       8.619  21.207  53.861  1.00  0.00     0.116 A 
HETATM   37  C   UNL     1       8.200  22.227  53.017  1.00  0.00     0.044 A 
HETATM   38  F   UNL     1       8.903  20.002  53.352  1.00  0.00    -0.206 F 
HETATM   39  C   UNL     1       7.898  23.483  53.549  1.00  0.00     0.032 A 
ENDBRANCH   1  33
TORSDOF 8
ENDMDL
MODEL 9
REMARK VINA RESULT:      -9.6      3.428      7.087
REMARK  8 active torsions:
REMARK  status: ('A' for Active; 'I' for Inactive)
REMARK    1  A    between atoms: C_2  and  N_3 
REMARK       I    between atoms: N_3  and  C_4 
REMARK       I    between atoms: C_4  and  N_5 
REMARK    2  A    between atoms: N_5  and  C_6 
REMARK    3  A    between atoms: N_5  and  C_22 
REMARK    4  A    between atoms: C_6  and  C_7 
REMARK    5  A    between atoms: C_8  and  O_9 
REMARK    6  A    between atoms: C_22  and  C_23 
REMARK    7  A    between atoms: C_23  and  C_24 
REMARK    8  A    between atoms: C_24  and  N_25 
ROOT
HETATM    1  N   UNL     1       7.465  28.923  57.563  1.00  0.00    -0.309 N 
HETATM    2  C   UNL     1       6.370  28.162  57.236  1.00  0.00     0.323 C 
HETATM    3  N   UNL     1       6.670  26.931  56.644  1.00  0.00    -0.330 N 
HETATM    4  O   UNL     1       5.203  28.471  57.467  1.00  0.00    -0.247 OA
HETATM    5  H   UNL     1       8.256  28.836  56.942  1.00  0.00     0.170 HD
ENDROOT
BRANCH   3   6
HETATM    6  C   UNL     1       5.532  26.123  56.186  1.00  0.00     0.170 C 
BRANCH   6   7
HETATM    7  C   UNL     1       5.358  26.132  54.697  1.00  0.00     0.013 A 
HETATM    8  C   UNL     1       5.779  25.082  53.892  1.00  0.00     0.170 A 
HETATM    9  N   UNL     1       5.733  25.083  52.549  1.00  0.00    -0.224 NA
HETATM   10  C   UNL     1       5.232  26.161  51.929  1.00  0.00     0.072 A 
HETATM   11  C   UNL     1       4.745  27.277  52.644  1.00  0.00    -0.004 A 
HETATM   12  C   UNL     1       5.194  26.194  50.543  1.00  0.00     0.072 A 
HETATM   13  C   UNL     1       4.809  27.241  54.045  1.00  0.00     0.027 A 
HETATM   14  C   UNL     1       4.238  28.393  51.957  1.00  0.00     0.053 A 
HETATM   15  C   UNL     1       4.231  28.408  50.565  1.00  0.00     0.103 A 
HETATM   16  C   UNL     1       4.690  27.300  49.858  1.00  0.00     0.104 A 
HETATM   17  O   UNL     1       3.761  29.545  49.963  1.00  0.00    -0.346 OA
HETATM   18  O   UNL     1       4.694  27.231  48.488  1.00  0.00    -0.346 OA
HETATM   19  C   UNL     1       3.882  28.257  47.906  1.00  0.00     0.202 C 
HETATM   20  C   UNL     1       4.139  29.594  48.580  1.00  0.00     0.202 C 
BRANCH   8  21
HETATM   21  O   UNL     1       6.317  23.951  54.430  1.00  0.00    -0.344 OA
HETATM   22  H   UNL     1       6.558  24.171  55.354  1.00  0.00     0.219 HD
ENDBRANCH   8  21
ENDBRANCH   6   7
ENDBRANCH   3   6
BRANCH   3  23
HETATM   23  C   UNL     1       7.986  26.289  56.692  1.00  0.00     0.129 C 
BRANCH  23  24
HETATM   24  C   UNL     1       7.942  24.853  57.241  1.00  0.00     0.048 C 
BRANCH  24  25
HETATM   25  C   UNL     1       9.060  23.973  56.689  1.00  0.00     0.236 C 
BRANCH  25  26
HETATM   26  N   UNL     1       8.504  22.746  55.996  1.00  0.00    -0.067 N 
HETATM   27  H   UNL     1       7.576  22.985  55.621  1.00  0.00     0.280 HD
HETATM   28  C   UNL     1       9.372  22.361  54.790  1.00  0.00     0.261 C 
HETATM   29  C   UNL     1       8.789  21.123  54.103  1.00  0.00     0.195 C 
HETATM   30  O   UNL     1       8.688  20.032  55.023  1.00  0.00    -0.388 OA
HETATM   31  C   UNL     1       7.818  20.340  56.115  1.00  0.00     0.195 C 
HETATM   32  C   UNL     1       8.345  21.536  56.916  1.00  0.00     0.261 C 
ENDBRANCH  25  26
ENDBRANCH  24  25
ENDBRANCH  23  24
ENDBRANCH   3  23
BRANCH   1  33
HETATM   33  C   UNL     1       7.492  30.053  58.410  1.00  0.00     0.036 A 
HETATM   34  C   UNL     1       6.572  31.105  58.327  1.00  0.00     0.032 A 
HETATM   35  C   UNL     1       6.640  32.176  59.224  1.00  0.00     0.044 A 
HETATM   36  C   UNL     1       7.618  32.189  60.209  1.00  0.00     0.116 A 
HETATM   37  C   UNL     1       8.534  31.151  60.312  1.00  0.00     0.044 A 
HETATM   38  F   UNL     1       7.675  33.209  61.073  1.00  0.00    -0.206 F 
HETATM   39  C   UNL     1       8.471  30.082  59.414  1.00  0.00     0.032 A 
ENDBRANCH   1  33
TORSDOF 8
ENDMDL
MODEL 10
REMARK VINA RESULT:      -9.5      3.213      5.990
REMARK  8 active torsions:
REMARK  status: ('A' for Active; 'I' for Inactive)
REMARK    1  A    between atoms: C_2  and  N_3 
REMARK       I    between atoms: N_3  and  C_4 
REMARK       I    between atoms: C_4  and  N_5 
REMARK    2  A    between atoms: N_5  and  C_6 
REMARK    3  A    between atoms: N_5  and  C_22 
REMARK    4  A    between atoms: C_6  and  C_7 
REMARK    5  A    between atoms: C_8  and  O_9 
REMARK    6  A    between atoms: C_22  and  C_23 
REMARK    7  A    between atoms: C_23  and  C_24 
REMARK    8  A    between atoms: C_24  and  N_25 
ROOT
HETATM    1  N   UNL     1       6.848  25.090  54.777  1.00  0.00    -0.309 N 
HETATM    2  C   UNL     1       5.725  25.720  54.300  1.00  0.00     0.323 C 
HETATM    3  N   UNL     1       5.711  27.107  54.484  1.00  0.00    -0.330 N 
HETATM    4  O   UNL     1       4.802  25.165  53.710  1.00  0.00    -0.247 OA
HETATM    5  H   UNL     1       7.257  25.498  55.605  1.00  0.00     0.170 HD
ENDROOT
BRANCH   3   6
HETATM    6  C   UNL     1       4.490  27.816  54.080  1.00  0.00     0.170 C 
BRANCH   6   7
HETATM    7  C   UNL     1       4.298  29.121  54.793  1.00  0.00     0.013 A 
HETATM    8  C   UNL     1       4.509  30.345  54.173  1.00  0.00     0.170 A 
HETATM    9  N   UNL     1       4.444  31.536  54.791  1.00  0.00    -0.224 NA
HETATM   10  C   UNL     1       4.136  31.560  56.097  1.00  0.00     0.072 A 
HETATM   11  C   UNL     1       3.870  30.380  56.825  1.00  0.00    -0.004 A 
HETATM   12  C   UNL     1       4.083  32.776  56.762  1.00  0.00     0.072 A 
HETATM   13  C   UNL     1       3.948  29.155  56.146  1.00  0.00     0.027 A 
HETATM   14  C   UNL     1       3.562  30.447  58.195  1.00  0.00     0.053 A 
HETATM   15  C   UNL     1       3.536  31.678  58.842  1.00  0.00     0.103 A 
HETATM   16  C   UNL     1       3.777  32.846  58.121  1.00  0.00     0.104 A 
HETATM   17  O   UNL     1       3.270  31.664  60.186  1.00  0.00    -0.346 OA
HETATM   18  O   UNL     1       3.747  34.096  58.684  1.00  0.00    -0.346 OA
HETATM   19  C   UNL     1       3.125  34.080  59.973  1.00  0.00     0.202 C 
HETATM   20  C   UNL     1       3.629  32.909  60.800  1.00  0.00     0.202 C 
BRANCH   8  21
HETATM   21  O   UNL     1       4.842  30.421  52.853  1.00  0.00    -0.344 OA
HETATM   22  H   UNL     1       5.814  30.301  52.805  1.00  0.00     0.219 HD
ENDBRANCH   8  21
ENDBRANCH   6   7
ENDBRANCH   3   6
BRANCH   3  23
HETATM   23  C   UNL     1       6.896  27.912  54.790  1.00  0.00     0.129 C 
BRANCH  23  24
HETATM   24  C   UNL     1       7.268  27.902  56.283  1.00  0.00     0.048 C 
BRANCH  24  25
HETATM   25  C   UNL     1       8.629  28.535  56.559  1.00  0.00     0.236 C 
BRANCH  25  26
HETATM   26  N   UNL     1       8.567  29.484  57.738  1.00  0.00    -0.067 N 
HETATM   27  H   UNL     1       8.631  28.925  58.600  1.00  0.00     0.280 HD
HETATM   28  C   UNL     1       9.777  30.428  57.743  1.00  0.00     0.261 C 
HETATM   29  C   UNL     1       9.696  31.373  58.945  1.00  0.00     0.195 C 
HETATM   30  O   UNL     1       8.473  32.117  58.924  1.00  0.00    -0.388 OA
HETATM   31  C   UNL     1       7.331  31.260  59.001  1.00  0.00     0.195 C 
HETATM   32  C   UNL     1       7.280  30.305  57.802  1.00  0.00     0.261 C 
ENDBRANCH  25  26
ENDBRANCH  24  25
ENDBRANCH  23  24
ENDBRANCH   3  23
BRANCH   1  33
HETATM   33  C   UNL     1       7.269  23.773  54.489  1.00  0.00     0.036 A 
HETATM   34  C   UNL     1       7.641  23.340  53.211  1.00  0.00     0.032 A 
HETATM   35  C   UNL     1       8.080  22.028  53.009  1.00  0.00     0.044 A 
HETATM   36  C   UNL     1       8.161  21.155  54.085  1.00  0.00     0.116 A 
HETATM   37  C   UNL     1       7.805  21.568  55.362  1.00  0.00     0.044 A 
HETATM   38  F   UNL     1       8.592  19.903  53.892  1.00  0.00    -0.206 F 
HETATM   39  C   UNL     1       7.360  22.877  55.565  1.00  0.00     0.032 A 
ENDBRANCH   1  33
TORSDOF 8
ENDMDL
