MODEL 1
REMARK VINA RESULT:      -7.9      0.000      0.000
REMARK  4 active torsions:
REMARK  status: ('A' for Active; 'I' for Inactive)
REMARK    1  A    between atoms: C_8  and  N_9 
REMARK    2  A    between atoms: C_11  and  C_12 
REMARK    3  A    between atoms: C_13  and  O_14 
REMARK    4  A    between atoms: O_14  and  C_15 
ROOT
HETATM    1  C   UNL     1       8.800  31.732  61.801  1.00  0.00     0.002 A 
HETATM    2  C   UNL     1       7.920  31.700  60.714  1.00  0.00     0.034 A 
HETATM    3  C   UNL     1       6.639  32.247  60.869  1.00  0.00     0.103 A 
HETATM    4  C   UNL     1       6.277  32.808  62.091  1.00  0.00     0.083 A 
HETATM    5  N   UNL     1       5.002  33.250  61.865  1.00  0.00    -0.151 N 
HETATM    6  C   UNL     1       4.610  32.914  60.595  1.00  0.00     0.734 A 
HETATM    7  N   UNL     1       3.373  33.172  60.115  1.00  0.00    -0.033 NA
HETATM    8  C   UNL     1       2.512  33.735  60.882  1.00  0.00     0.193 A 
HETATM    9  N   UNL     1       2.764  34.133  62.197  1.00  0.00    -0.338 N 
HETATM   10  C   UNL     1       4.092  33.925  62.766  1.00  0.00     0.246 A 
HETATM   11  N   UNL     1       5.608  32.330  59.968  1.00  0.00    -0.060 NA
HETATM   12  C   UNL     1       7.138  32.849  63.193  1.00  0.00     0.033 A 
HETATM   13  C   UNL     1       8.412  32.297  63.018  1.00  0.00     0.002 A 
HETATM   14  H   UNL     1       2.027  34.514  62.777  1.00  0.00     0.164 HD
ENDROOT
BRANCH  10  15
HETATM   15  C   UNL     1       4.589  35.291  63.221  1.00  0.00     0.020 A 
HETATM   16  C   UNL     1       4.336  35.733  64.534  1.00  0.00     0.085 A 
HETATM   17  C   UNL     1       4.800  36.971  64.988  1.00  0.00     0.039 A 
HETATM   18  C   UNL     1       5.473  37.821  64.113  1.00  0.00     0.022 A 
HETATM   19  C   UNL     1       5.684  37.427  62.794  1.00  0.00     0.011 A 
HETATM   20 BR   UNL     1       6.585  38.584  61.604  1.00  0.00    -0.051 Br
HETATM   21  C   UNL     1       5.243  36.180  62.344  1.00  0.00     0.033 A 
BRANCH  16  22
HETATM   22  O   UNL     1       3.678  34.903  65.403  1.00  0.00    -0.289 OA
BRANCH  22  23
HETATM   23  C   UNL     1       4.517  34.544  66.500  1.00  0.00     0.505 C 
HETATM   24  F   UNL     1       3.716  34.031  67.478  1.00  0.00    -0.184 F 
HETATM   25  F   UNL     1       5.298  33.520  66.084  1.00  0.00    -0.184 F 
ENDBRANCH  22  23
ENDBRANCH  16  22
ENDBRANCH  10  15
BRANCH   8  26
HETATM   26  N   UNL     1       1.250  34.005  60.494  1.00  0.00    -0.272 NA
HETATM   27  H   UNL     1       0.596  33.309  60.845  1.00  0.00     0.127 HD
HETATM   28  H   UNL     1       1.101  34.200  59.513  1.00  0.00     0.127 HD
ENDBRANCH   8  26
TORSDOF 4
ENDMDL
MODEL 2
REMARK VINA RESULT:      -7.8      9.627     11.840
REMARK  4 active torsions:
REMARK  status: ('A' for Active; 'I' for Inactive)
REMARK    1  A    between atoms: C_8  and  N_9 
REMARK    2  A    between atoms: C_11  and  C_12 
REMARK    3  A    between atoms: C_13  and  O_14 
REMARK    4  A    between atoms: O_14  and  C_15 
ROOT
HETATM    1  C   UNL     1       7.824  22.157  53.786  1.00  0.00     0.002 A 
HETATM    2  C   UNL     1       7.915  22.412  55.159  1.00  0.00     0.034 A 
HETATM    3  C   UNL     1       7.934  23.743  55.597  1.00  0.00     0.103 A 
HETATM    4  C   UNL     1       7.859  24.772  54.663  1.00  0.00     0.083 A 
HETATM    5  N   UNL     1       7.879  25.900  55.439  1.00  0.00    -0.151 N 
HETATM    6  C   UNL     1       8.018  25.554  56.759  1.00  0.00     0.734 A 
HETATM    7  N   UNL     1       8.128  26.467  57.749  1.00  0.00    -0.033 NA
HETATM    8  C   UNL     1       8.125  27.715  57.450  1.00  0.00     0.193 A 
HETATM    9  N   UNL     1       7.992  28.218  56.154  1.00  0.00    -0.338 N 
HETATM   10  C   UNL     1       7.826  27.289  55.039  1.00  0.00     0.246 A 
HETATM   11  N   UNL     1       8.023  24.244  56.871  1.00  0.00    -0.060 NA
HETATM   12  C   UNL     1       7.770  24.544  53.286  1.00  0.00     0.033 A 
HETATM   13  C   UNL     1       7.753  23.208  52.868  1.00  0.00     0.002 A 
HETATM   14  H   UNL     1       8.062  29.211  55.969  1.00  0.00     0.164 HD
ENDROOT
BRANCH  10  15
HETATM   15  C   UNL     1       6.526  27.673  54.345  1.00  0.00     0.020 A 
HETATM   16  C   UNL     1       5.306  27.607  55.045  1.00  0.00     0.085 A 
HETATM   17  C   UNL     1       4.099  27.975  54.443  1.00  0.00     0.039 A 
HETATM   18  C   UNL     1       4.083  28.357  53.103  1.00  0.00     0.022 A 
HETATM   19  C   UNL     1       5.270  28.374  52.377  1.00  0.00     0.011 A 
HETATM   20 BR   UNL     1       5.246  28.880  50.557  1.00  0.00    -0.051 Br
HETATM   21  C   UNL     1       6.481  28.030  52.982  1.00  0.00     0.033 A 
BRANCH  16  22
HETATM   22  O   UNL     1       5.311  27.236  56.365  1.00  0.00    -0.289 OA
BRANCH  22  23
HETATM   23  C   UNL     1       4.551  26.045  56.563  1.00  0.00     0.505 C 
HETATM   24  F   UNL     1       4.916  25.160  55.590  1.00  0.00    -0.184 F 
HETATM   25  F   UNL     1       4.960  25.502  57.733  1.00  0.00    -0.184 F 
ENDBRANCH  22  23
ENDBRANCH  16  22
ENDBRANCH  10  15
BRANCH   8  26
HETATM   26  N   UNL     1       8.256  28.691  58.371  1.00  0.00    -0.272 NA
HETATM   27  H   UNL     1       8.046  28.349  59.306  1.00  0.00     0.127 HD
HETATM   28  H   UNL     1       7.795  29.570  58.179  1.00  0.00     0.127 HD
ENDBRANCH   8  26
TORSDOF 4
ENDMDL
MODEL 3
REMARK VINA RESULT:      -7.8      7.918     10.078
REMARK  4 active torsions:
REMARK  status: ('A' for Active; 'I' for Inactive)
REMARK    1  A    between atoms: C_8  and  N_9 
REMARK    2  A    between atoms: C_11  and  C_12 
REMARK    3  A    between atoms: C_13  and  O_14 
REMARK    4  A    between atoms: O_14  and  C_15 
ROOT
HETATM    1  C   UNL     1       8.390  23.178  56.004  1.00  0.00     0.002 A 
HETATM    2  C   UNL     1       8.361  23.616  54.675  1.00  0.00     0.034 A 
HETATM    3  C   UNL     1       7.764  24.850  54.386  1.00  0.00     0.103 A 
HETATM    4  C   UNL     1       7.222  25.608  55.420  1.00  0.00     0.083 A 
HETATM    5  N   UNL     1       6.764  26.727  54.779  1.00  0.00    -0.151 N 
HETATM    6  C   UNL     1       6.973  26.609  53.429  1.00  0.00     0.734 A 
HETATM    7  N   UNL     1       6.566  27.541  52.538  1.00  0.00    -0.033 NA
HETATM    8  C   UNL     1       5.936  28.575  52.963  1.00  0.00     0.193 A 
HETATM    9  N   UNL     1       5.649  28.832  54.306  1.00  0.00    -0.338 N 
HETATM   10  C   UNL     1       6.097  27.889  55.327  1.00  0.00     0.246 A 
HETATM   11  N   UNL     1       7.607  25.485  53.180  1.00  0.00    -0.060 NA
HETATM   12  C   UNL     1       7.236  25.192  56.755  1.00  0.00     0.033 A 
HETATM   13  C   UNL     1       7.836  23.955  57.024  1.00  0.00     0.002 A 
HETATM   14  H   UNL     1       5.092  29.632  54.577  1.00  0.00     0.164 HD
ENDROOT
BRANCH  10  15
HETATM   15  C   UNL     1       6.958  28.681  56.301  1.00  0.00     0.020 A 
HETATM   16  C   UNL     1       6.357  29.386  57.362  1.00  0.00     0.085 A 
HETATM   17  C   UNL     1       7.122  30.102  58.287  1.00  0.00     0.039 A 
HETATM   18  C   UNL     1       8.505  30.179  58.130  1.00  0.00     0.022 A 
HETATM   19  C   UNL     1       9.113  29.536  57.055  1.00  0.00     0.011 A 
HETATM   20 BR   UNL     1      10.986  29.650  56.835  1.00  0.00    -0.051 Br
HETATM   21  C   UNL     1       8.354  28.800  56.143  1.00  0.00     0.033 A 
BRANCH  16  22
HETATM   22  O   UNL     1       4.999  29.314  57.528  1.00  0.00    -0.289 OA
BRANCH  22  23
HETATM   23  C   UNL     1       4.415  30.616  57.525  1.00  0.00     0.505 C 
HETATM   24  F   UNL     1       4.694  31.187  56.317  1.00  0.00    -0.184 F 
HETATM   25  F   UNL     1       3.073  30.450  57.557  1.00  0.00    -0.184 F 
ENDBRANCH  22  23
ENDBRANCH  16  22
ENDBRANCH  10  15
BRANCH   8  26
HETATM   26  N   UNL     1       5.472  29.540  52.143  1.00  0.00    -0.272 NA
HETATM   27  H   UNL     1       4.575  29.283  51.738  1.00  0.00     0.127 HD
HETATM   28  H   UNL     1       6.110  29.898  51.446  1.00  0.00     0.127 HD
ENDBRANCH   8  26
TORSDOF 4
ENDMDL
MODEL 4
REMARK VINA RESULT:      -7.7      2.435      3.026
REMARK  4 active torsions:
REMARK  status: ('A' for Active; 'I' for Inactive)
REMARK    1  A    between atoms: C_8  and  N_9 
REMARK    2  A    between atoms: C_11  and  C_12 
REMARK    3  A    between atoms: C_13  and  O_14 
REMARK    4  A    between atoms: O_14  and  C_15 
ROOT
HETATM    1  C   UNL     1       8.855  32.048  61.576  1.00  0.00     0.002 A 
HETATM    2  C   UNL     1       8.049  32.438  60.500  1.00  0.00     0.034 A 
HETATM    3  C   UNL     1       6.701  32.738  60.743  1.00  0.00     0.103 A 
HETATM    4  C   UNL     1       6.202  32.645  62.038  1.00  0.00     0.083 A 
HETATM    5  N   UNL     1       4.895  33.027  61.896  1.00  0.00    -0.151 N 
HETATM    6  C   UNL     1       4.623  33.275  60.575  1.00  0.00     0.734 A 
HETATM    7  N   UNL     1       3.392  33.612  60.129  1.00  0.00    -0.033 NA
HETATM    8  C   UNL     1       2.424  33.685  60.968  1.00  0.00     0.193 A 
HETATM    9  N   UNL     1       2.547  33.459  62.341  1.00  0.00    -0.338 N 
HETATM   10  C   UNL     1       3.857  33.133  62.899  1.00  0.00     0.246 A 
HETATM   11  N   UNL     1       5.722  33.131  59.867  1.00  0.00    -0.060 NA
HETATM   12  C   UNL     1       6.986  32.256  63.129  1.00  0.00     0.033 A 
HETATM   13  C   UNL     1       8.328  31.959  62.867  1.00  0.00     0.002 A 
HETATM   14  H   UNL     1       1.735  33.467  62.946  1.00  0.00     0.164 HD
ENDROOT
BRANCH  10  15
HETATM   15  C   UNL     1       4.147  34.180  63.966  1.00  0.00     0.020 A 
HETATM   16  C   UNL     1       4.165  35.547  63.628  1.00  0.00     0.085 A 
HETATM   17  C   UNL     1       4.404  36.532  64.590  1.00  0.00     0.039 A 
HETATM   18  C   UNL     1       4.695  36.163  65.901  1.00  0.00     0.022 A 
HETATM   19  C   UNL     1       4.739  34.815  66.244  1.00  0.00     0.011 A 
HETATM   20 BR   UNL     1       5.146  34.313  68.019  1.00  0.00    -0.051 Br
HETATM   21  C   UNL     1       4.476  33.828  65.291  1.00  0.00     0.033 A 
BRANCH  16  22
HETATM   22  O   UNL     1       3.876  35.921  62.341  1.00  0.00    -0.289 OA
BRANCH  22  23
HETATM   23  C   UNL     1       4.938  36.695  61.785  1.00  0.00     0.505 C 
HETATM   24  F   UNL     1       6.100  36.017  62.009  1.00  0.00    -0.184 F 
HETATM   25  F   UNL     1       4.764  36.703  60.444  1.00  0.00    -0.184 F 
ENDBRANCH  22  23
ENDBRANCH  16  22
ENDBRANCH  10  15
BRANCH   8  26
HETATM   26  N   UNL     1       1.161  33.989  60.606  1.00  0.00    -0.272 NA
HETATM   27  H   UNL     1       1.060  34.982  60.410  1.00  0.00     0.127 HD
HETATM   28  H   UNL     1       0.417  33.644  61.197  1.00  0.00     0.127 HD
ENDBRANCH   8  26
TORSDOF 4
ENDMDL
MODEL 5
REMARK VINA RESULT:      -7.7      8.251     10.607
REMARK  4 active torsions:
REMARK  status: ('A' for Active; 'I' for Inactive)
REMARK    1  A    between atoms: C_8  and  N_9 
REMARK    2  A    between atoms: C_11  and  C_12 
REMARK    3  A    between atoms: C_13  and  O_14 
REMARK    4  A    between atoms: O_14  and  C_15 
ROOT
HETATM    1  C   UNL     1       4.931  27.112  51.928  1.00  0.00     0.002 A 
HETATM    2  C   UNL     1       4.920  25.941  52.694  1.00  0.00     0.034 A 
HETATM    3  C   UNL     1       5.734  25.873  53.833  1.00  0.00     0.103 A 
HETATM    4  C   UNL     1       6.524  26.966  54.175  1.00  0.00     0.083 A 
HETATM    5  N   UNL     1       7.143  26.555  55.325  1.00  0.00    -0.151 N 
HETATM    6  C   UNL     1       6.781  25.264  55.612  1.00  0.00     0.734 A 
HETATM    7  N   UNL     1       7.286  24.575  56.660  1.00  0.00    -0.033 NA
HETATM    8  C   UNL     1       8.160  25.138  57.413  1.00  0.00     0.193 A 
HETATM    9  N   UNL     1       8.627  26.444  57.244  1.00  0.00    -0.338 N 
HETATM   10  C   UNL     1       8.092  27.261  56.158  1.00  0.00     0.246 A 
HETATM   11  N   UNL     1       5.901  24.847  54.728  1.00  0.00    -0.060 NA
HETATM   12  C   UNL     1       6.555  28.147  53.426  1.00  0.00     0.033 A 
HETATM   13  C   UNL     1       5.736  28.194  52.291  1.00  0.00     0.002 A 
HETATM   14  H   UNL     1       9.365  26.813  57.829  1.00  0.00     0.164 HD
ENDROOT
BRANCH  10  15
HETATM   15  C   UNL     1       7.520  28.517  56.801  1.00  0.00     0.020 A 
HETATM   16  C   UNL     1       8.364  29.395  57.509  1.00  0.00     0.085 A 
HETATM   17  C   UNL     1       7.873  30.568  58.089  1.00  0.00     0.039 A 
HETATM   18  C   UNL     1       6.511  30.853  58.026  1.00  0.00     0.022 A 
HETATM   19  C   UNL     1       5.651  29.971  57.379  1.00  0.00     0.011 A 
HETATM   20 BR   UNL     1       3.802  30.351  57.304  1.00  0.00    -0.051 Br
HETATM   21  C   UNL     1       6.142  28.810  56.778  1.00  0.00     0.033 A 
BRANCH  16  22
HETATM   22  O   UNL     1       9.706  29.125  57.574  1.00  0.00    -0.289 OA
BRANCH  22  23
HETATM   23  C   UNL     1      10.456  30.080  56.825  1.00  0.00     0.505 C 
HETATM   24  F   UNL     1      11.778  29.813  57.028  1.00  0.00    -0.184 F 
HETATM   25  F   UNL     1      10.223  29.829  55.516  1.00  0.00    -0.184 F 
ENDBRANCH  22  23
ENDBRANCH  16  22
ENDBRANCH  10  15
BRANCH   8  26
HETATM   26  N   UNL     1       8.734  24.516  58.462  1.00  0.00    -0.272 NA
HETATM   27  H   UNL     1       8.104  23.835  58.880  1.00  0.00     0.127 HD
HETATM   28  H   UNL     1       9.173  25.101  59.160  1.00  0.00     0.127 HD
ENDBRANCH   8  26
TORSDOF 4
ENDMDL
MODEL 6
REMARK VINA RESULT:      -7.4      9.754     11.887
REMARK  4 active torsions:
REMARK  status: ('A' for Active; 'I' for Inactive)
REMARK    1  A    between atoms: C_8  and  N_9 
REMARK    2  A    between atoms: C_11  and  C_12 
REMARK    3  A    between atoms: C_13  and  O_14 
REMARK    4  A    between atoms: O_14  and  C_15 
ROOT
HETATM    1  C   UNL     1       9.047  21.969  54.890  1.00  0.00     0.002 A 
HETATM    2  C   UNL     1       8.874  22.377  53.562  1.00  0.00     0.034 A 
HETATM    3  C   UNL     1       8.000  23.439  53.293  1.00  0.00     0.103 A 
HETATM    4  C   UNL     1       7.332  24.059  54.344  1.00  0.00     0.083 A 
HETATM    5  N   UNL     1       6.608  25.038  53.718  1.00  0.00    -0.151 N 
HETATM    6  C   UNL     1       6.794  24.960  52.362  1.00  0.00     0.734 A 
HETATM    7  N   UNL     1       6.154  25.766  51.485  1.00  0.00    -0.033 NA
HETATM    8  C   UNL     1       5.317  26.631  51.930  1.00  0.00     0.193 A 
HETATM    9  N   UNL     1       5.023  26.826  53.282  1.00  0.00    -0.338 N 
HETATM   10  C   UNL     1       5.710  26.020  54.288  1.00  0.00     0.246 A 
HETATM   11  N   UNL     1       7.662  24.010  52.092  1.00  0.00    -0.060 NA
HETATM   12  C   UNL     1       7.485  23.669  55.678  1.00  0.00     0.033 A 
HETATM   13  C   UNL     1       8.362  22.606  55.927  1.00  0.00     0.002 A 
HETATM   14  H   UNL     1       4.306  27.479  53.571  1.00  0.00     0.164 HD
ENDROOT
BRANCH  10  15
HETATM   15  C   UNL     1       6.397  26.997  55.232  1.00  0.00     0.020 A 
HETATM   16  C   UNL     1       5.797  27.329  56.462  1.00  0.00     0.085 A 
HETATM   17  C   UNL     1       6.415  28.204  57.361  1.00  0.00     0.039 A 
HETATM   18  C   UNL     1       7.618  28.815  57.016  1.00  0.00     0.022 A 
HETATM   19  C   UNL     1       8.199  28.544  55.780  1.00  0.00     0.011 A 
HETATM   20 BR   UNL     1       9.825  29.382  55.307  1.00  0.00    -0.051 Br
HETATM   21  C   UNL     1       7.597  27.652  54.890  1.00  0.00     0.033 A 
BRANCH  16  22
HETATM   22  O   UNL     1       4.615  26.731  56.813  1.00  0.00    -0.289 OA
BRANCH  22  23
HETATM   23  C   UNL     1       4.847  25.574  57.616  1.00  0.00     0.505 C 
HETATM   24  F   UNL     1       4.399  24.493  56.914  1.00  0.00    -0.184 F 
HETATM   25  F   UNL     1       6.188  25.423  57.717  1.00  0.00    -0.184 F 
ENDBRANCH  22  23
ENDBRANCH  16  22
ENDBRANCH  10  15
BRANCH   8  26
HETATM   26  N   UNL     1       4.617  27.456  51.126  1.00  0.00    -0.272 NA
HETATM   27  H   UNL     1       3.683  27.626  51.490  1.00  0.00     0.127 HD
HETATM   28  H   UNL     1       4.602  27.234  50.140  1.00  0.00     0.127 HD
ENDBRANCH   8  26
TORSDOF 4
ENDMDL
MODEL 7
REMARK VINA RESULT:      -7.3      3.363      5.422
REMARK  4 active torsions:
REMARK  status: ('A' for Active; 'I' for Inactive)
REMARK    1  A    between atoms: C_8  and  N_9 
REMARK    2  A    between atoms: C_11  and  C_12 
REMARK    3  A    between atoms: C_13  and  O_14 
REMARK    4  A    between atoms: O_14  and  C_15 
ROOT
HETATM    1  C   UNL     1       4.591  35.130  67.182  1.00  0.00     0.002 A 
HETATM    2  C   UNL     1       5.863  34.603  66.931  1.00  0.00     0.034 A 
HETATM    3  C   UNL     1       6.078  33.907  65.734  1.00  0.00     0.103 A 
HETATM    4  C   UNL     1       5.031  33.760  64.829  1.00  0.00     0.083 A 
HETATM    5  N   UNL     1       5.605  33.067  63.798  1.00  0.00    -0.151 N 
HETATM    6  C   UNL     1       6.908  32.770  64.105  1.00  0.00     0.734 A 
HETATM    7  N   UNL     1       7.706  32.039  63.294  1.00  0.00    -0.033 NA
HETATM    8  C   UNL     1       7.225  31.579  62.197  1.00  0.00     0.193 A 
HETATM    9  N   UNL     1       5.919  31.797  61.752  1.00  0.00    -0.338 N 
HETATM   10  C   UNL     1       5.015  32.615  62.556  1.00  0.00     0.246 A 
HETATM   11  N   UNL     1       7.217  33.301  65.267  1.00  0.00    -0.060 NA
HETATM   12  C   UNL     1       3.751  34.274  65.058  1.00  0.00     0.033 A 
HETATM   13  C   UNL     1       3.555  34.966  66.260  1.00  0.00     0.002 A 
HETATM   14  H   UNL     1       5.574  31.355  60.909  1.00  0.00     0.164 HD
ENDROOT
BRANCH  10  15
HETATM   15  C   UNL     1       4.542  33.750  61.659  1.00  0.00     0.020 A 
HETATM   16  C   UNL     1       3.716  33.477  60.551  1.00  0.00     0.085 A 
HETATM   17  C   UNL     1       3.246  34.500  59.723  1.00  0.00     0.039 A 
HETATM   18  C   UNL     1       3.647  35.815  59.951  1.00  0.00     0.022 A 
HETATM   19  C   UNL     1       4.508  36.099  61.007  1.00  0.00     0.011 A 
HETATM   20 BR   UNL     1       5.062  37.880  61.310  1.00  0.00    -0.051 Br
HETATM   21  C   UNL     1       4.961  35.082  61.851  1.00  0.00     0.033 A 
BRANCH  16  22
HETATM   22  O   UNL     1       3.314  32.188  60.319  1.00  0.00    -0.289 OA
BRANCH  22  23
HETATM   23  C   UNL     1       3.572  31.808  58.968  1.00  0.00     0.505 C 
HETATM   24  F   UNL     1       4.926  31.738  58.814  1.00  0.00    -0.184 F 
HETATM   25  F   UNL     1       3.115  30.543  58.817  1.00  0.00    -0.184 F 
ENDBRANCH  22  23
ENDBRANCH  16  22
ENDBRANCH  10  15
BRANCH   8  26
HETATM   26  N   UNL     1       7.941  30.820  61.343  1.00  0.00    -0.272 NA
HETATM   27  H   UNL     1       8.621  31.377  60.832  1.00  0.00     0.127 HD
HETATM   28  H   UNL     1       7.425  30.202  60.733  1.00  0.00     0.127 HD
ENDBRANCH   8  26
TORSDOF 4
ENDMDL
MODEL 8
REMARK VINA RESULT:      -7.3      9.689     11.808
REMARK  4 active torsions:
REMARK  status: ('A' for Active; 'I' for Inactive)
REMARK    1  A    between atoms: C_8  and  N_9 
REMARK    2  A    between atoms: C_11  and  C_12 
REMARK    3  A    between atoms: C_13  and  O_14 
REMARK    4  A    between atoms: O_14  and  C_15 
ROOT
HETATM    1  C   UNL     1       8.658  22.695  56.211  1.00  0.00     0.002 A 
HETATM    2  C   UNL     1       8.825  22.792  54.825  1.00  0.00     0.034 A 
HETATM    3  C   UNL     1       8.080  23.748  54.122  1.00  0.00     0.103 A 
HETATM    4  C   UNL     1       7.200  24.574  54.815  1.00  0.00     0.083 A 
HETATM    5  N   UNL     1       6.683  25.373  53.830  1.00  0.00    -0.151 N 
HETATM    6  C   UNL     1       7.188  24.997  52.612  1.00  0.00     0.734 A 
HETATM    7  N   UNL     1       6.808  25.573  51.450  1.00  0.00    -0.033 NA
HETATM    8  C   UNL     1       5.919  26.498  51.474  1.00  0.00     0.193 A 
HETATM    9  N   UNL     1       5.315  26.985  52.636  1.00  0.00    -0.338 N 
HETATM   10  C   UNL     1       5.710  26.439  53.932  1.00  0.00     0.246 A 
HETATM   11  N   UNL     1       8.062  24.028  52.779  1.00  0.00    -0.060 NA
HETATM   12  C   UNL     1       7.013  24.496  56.199  1.00  0.00     0.033 A 
HETATM   13  C   UNL     1       7.766  23.535  56.883  1.00  0.00     0.002 A 
HETATM   14  H   UNL     1       4.573  27.672  52.589  1.00  0.00     0.164 HD
ENDROOT
BRANCH  10  15
HETATM   15  C   UNL     1       6.183  27.617  54.773  1.00  0.00     0.020 A 
HETATM   16  C   UNL     1       5.297  28.669  55.076  1.00  0.00     0.085 A 
HETATM   17  C   UNL     1       5.694  29.751  55.866  1.00  0.00     0.039 A 
HETATM   18  C   UNL     1       7.010  29.833  56.316  1.00  0.00     0.022 A 
HETATM   19  C   UNL     1       7.917  28.832  55.981  1.00  0.00     0.011 A 
HETATM   20 BR   UNL     1       9.704  28.949  56.581  1.00  0.00    -0.051 Br
HETATM   21  C   UNL     1       7.517  27.737  55.212  1.00  0.00     0.033 A 
BRANCH  16  22
HETATM   22  O   UNL     1       3.999  28.597  54.640  1.00  0.00    -0.289 OA
BRANCH  22  23
HETATM   23  C   UNL     1       3.672  29.721  53.826  1.00  0.00     0.505 C 
HETATM   24  F   UNL     1       2.890  29.271  52.802  1.00  0.00    -0.184 F 
HETATM   25  F   UNL     1       2.883  30.533  54.567  1.00  0.00    -0.184 F 
ENDBRANCH  22  23
ENDBRANCH  16  22
ENDBRANCH  10  15
BRANCH   8  26
HETATM   26  N   UNL     1       5.464  27.107  50.361  1.00  0.00    -0.272 NA
HETATM   27  H   UNL     1       5.517  28.120  50.444  1.00  0.00     0.127 HD
HETATM   28  H   UNL     1       4.568  26.805  50.005  1.00  0.00     0.127 HD
ENDBRANCH   8  26
TORSDOF 4
ENDMDL
MODEL 9
REMARK VINA RESULT:      -7.1      6.261      8.769
REMARK  4 active torsions:
REMARK  status: ('A' for Active; 'I' for Inactive)
REMARK    1  A    between atoms: C_8  and  N_9 
REMARK    2  A    between atoms: C_11  and  C_12 
REMARK    3  A    between atoms: C_13  and  O_14 
REMARK    4  A    between atoms: O_14  and  C_15 
ROOT
HETATM    1  C   UNL     1       6.029  32.568  61.086  1.00  0.00     0.002 A 
HETATM    2  C   UNL     1       4.780  32.624  60.458  1.00  0.00     0.034 A 
HETATM    3  C   UNL     1       4.657  32.118  59.157  1.00  0.00     0.103 A 
HETATM    4  C   UNL     1       5.771  31.573  58.526  1.00  0.00     0.083 A 
HETATM    5  N   UNL     1       5.278  31.171  57.315  1.00  0.00    -0.151 N 
HETATM    6  C   UNL     1       3.954  31.514  57.214  1.00  0.00     0.734 A 
HETATM    7  N   UNL     1       3.221  31.294  56.099  1.00  0.00    -0.033 NA
HETATM    8  C   UNL     1       3.785  30.761  55.077  1.00  0.00     0.193 A 
HETATM    9  N   UNL     1       5.122  30.360  55.031  1.00  0.00    -0.338 N 
HETATM   10  C   UNL     1       5.962  30.527  56.214  1.00  0.00     0.246 A 
HETATM   11  N   UNL     1       3.556  32.065  58.340  1.00  0.00    -0.060 NA
HETATM   12  C   UNL     1       7.031  31.508  59.131  1.00  0.00     0.033 A 
HETATM   13  C   UNL     1       7.134  32.020  60.430  1.00  0.00     0.002 A 
HETATM   14  H   UNL     1       5.531  30.004  54.176  1.00  0.00     0.164 HD
ENDROOT
BRANCH  10  15
HETATM   15  C   UNL     1       6.507  29.148  56.559  1.00  0.00     0.020 A 
HETATM   16  C   UNL     1       7.894  28.954  56.707  1.00  0.00     0.085 A 
HETATM   17  C   UNL     1       8.422  27.705  57.048  1.00  0.00     0.039 A 
HETATM   18  C   UNL     1       7.574  26.609  57.184  1.00  0.00     0.022 A 
HETATM   19  C   UNL     1       6.205  26.767  56.986  1.00  0.00     0.011 A 
HETATM   20 BR   UNL     1       5.056  25.278  57.159  1.00  0.00    -0.051 Br
HETATM   21  C   UNL     1       5.671  28.018  56.670  1.00  0.00     0.033 A 
BRANCH  16  22
HETATM   22  O   UNL     1       8.737  30.027  56.579  1.00  0.00    -0.289 OA
BRANCH  22  23
HETATM   23  C   UNL     1       9.998  29.760  57.191  1.00  0.00     0.505 C 
HETATM   24  F   UNL     1      10.918  29.627  56.192  1.00  0.00    -0.184 F 
HETATM   25  F   UNL     1      10.350  30.874  57.875  1.00  0.00    -0.184 F 
ENDBRANCH  22  23
ENDBRANCH  16  22
ENDBRANCH  10  15
BRANCH   8  26
HETATM   26  N   UNL     1       3.136  30.529  53.919  1.00  0.00    -0.272 NA
HETATM   27  H   UNL     1       2.877  29.550  53.827  1.00  0.00     0.127 HD
HETATM   28  H   UNL     1       3.561  30.887  53.074  1.00  0.00     0.127 HD
ENDBRANCH   8  26
TORSDOF 4
ENDMDL
MODEL 10
REMARK VINA RESULT:      -7.1      4.835      7.158
REMARK  4 active torsions:
REMARK  status: ('A' for Active; 'I' for Inactive)
REMARK    1  A    between atoms: C_8  and  N_9 
REMARK    2  A    between atoms: C_11  and  C_12 
REMARK    3  A    between atoms: C_13  and  O_14 
REMARK    4  A    between atoms: O_14  and  C_15 
ROOT
HETATM    1  C   UNL     1       6.607  32.395  63.432  1.00  0.00     0.002 A 
HETATM    2  C   UNL     1       5.275  32.553  63.031  1.00  0.00     0.034 A 
HETATM    3  C   UNL     1       4.974  32.505  61.663  1.00  0.00     0.103 A 
HETATM    4  C   UNL     1       5.998  32.298  60.743  1.00  0.00     0.083 A 
HETATM    5  N   UNL     1       5.341  32.285  59.543  1.00  0.00    -0.151 N 
HETATM    6  C   UNL     1       4.006  32.531  59.740  1.00  0.00     0.734 A 
HETATM    7  N   UNL     1       3.121  32.636  58.724  1.00  0.00    -0.033 NA
HETATM    8  C   UNL     1       3.541  32.525  57.517  1.00  0.00     0.193 A 
HETATM    9  N   UNL     1       4.869  32.277  57.161  1.00  0.00    -0.338 N 
HETATM   10  C   UNL     1       5.872  32.108  58.209  1.00  0.00     0.246 A 
HETATM   11  N   UNL     1       3.765  32.637  61.029  1.00  0.00    -0.060 NA
HETATM   12  C   UNL     1       7.336  32.140  61.119  1.00  0.00     0.033 A 
HETATM   13  C   UNL     1       7.617  32.193  62.489  1.00  0.00     0.002 A 
HETATM   14  H   UNL     1       5.155  32.263  56.190  1.00  0.00     0.164 HD
ENDROOT
BRANCH  10  15
HETATM   15  C   UNL     1       6.509  30.743  57.984  1.00  0.00     0.020 A 
HETATM   16  C   UNL     1       7.906  30.591  58.084  1.00  0.00     0.085 A 
HETATM   17  C   UNL     1       8.518  29.347  57.908  1.00  0.00     0.039 A 
HETATM   18  C   UNL     1       7.747  28.239  57.563  1.00  0.00     0.022 A 
HETATM   19  C   UNL     1       6.371  28.380  57.403  1.00  0.00     0.011 A 
HETATM   20 BR   UNL     1       5.327  26.880  56.924  1.00  0.00    -0.051 Br
HETATM   21  C   UNL     1       5.753  29.616  57.603  1.00  0.00     0.033 A 
BRANCH  16  22
HETATM   22  O   UNL     1       8.674  31.674  58.426  1.00  0.00    -0.289 OA
BRANCH  22  23
HETATM   23  C   UNL     1      10.008  31.276  58.736  1.00  0.00     0.505 C 
HETATM   24  F   UNL     1      10.779  31.542  57.642  1.00  0.00    -0.184 F 
HETATM   25  F   UNL     1      10.452  32.100  59.713  1.00  0.00    -0.184 F 
ENDBRANCH  22  23
ENDBRANCH  16  22
ENDBRANCH  10  15
BRANCH   8  26
HETATM   26  N   UNL     1       2.733  32.642  56.445  1.00  0.00    -0.272 NA
HETATM   27  H   UNL     1       2.186  33.499  56.484  1.00  0.00     0.127 HD
HETATM   28  H   UNL     1       2.162  31.842  56.208  1.00  0.00     0.127 HD
ENDBRANCH   8  26
TORSDOF 4
ENDMDL
