MODEL 1
REMARK VINA RESULT:      -9.0      0.000      0.000
REMARK  5 active torsions:
REMARK  status: ('A' for Active; 'I' for Inactive)
REMARK    1  A    between atoms: C_2  and  C_3 
REMARK    2  A    between atoms: C_6  and  C_7 
REMARK    3  A    between atoms: C_7  and  N_8 
REMARK    4  A    between atoms: C_7  and  C_21 
REMARK       I    between atoms: N_8  and  C_9 
REMARK       I    between atoms: C_9  and  N_10 
REMARK    5  A    between atoms: N_10  and  N_11 
ROOT
HETATM    1  N   UNL     1       5.768  27.234  51.486  1.00  0.00    -0.333 N 
HETATM    2  C   UNL     1       5.224  27.331  50.244  1.00  0.00     0.335 C 
HETATM    3  N   UNL     1       4.194  26.482  49.980  1.00  0.00    -0.244 N 
HETATM    4  O   UNL     1       5.665  28.168  49.465  1.00  0.00    -0.246 OA
HETATM    5  H   UNL     1       6.549  27.865  51.615  1.00  0.00     0.165 HD
HETATM    6  H   UNL     1       4.249  25.543  50.347  1.00  0.00     0.192 HD
ENDROOT
BRANCH   1   7
HETATM    7  C   UNL     1       5.273  26.499  52.646  1.00  0.00     0.122 C 
BRANCH   7   8
HETATM    8  C   UNL     1       6.193  25.356  53.050  1.00  0.00    -0.035 A 
HETATM    9  C   UNL     1       6.087  24.701  54.286  1.00  0.00     0.010 A 
HETATM   10  C   UNL     1       6.914  23.616  54.594  1.00  0.00     0.007 A 
HETATM   11  C   UNL     1       7.866  23.159  53.676  1.00  0.00    -0.059 A 
HETATM   12  C   UNL     1       7.979  23.810  52.443  1.00  0.00     0.007 A 
HETATM   13  C   UNL     1       7.155  24.896  52.135  1.00  0.00     0.010 A 
BRANCH  11  14
HETATM   14  C   UNL     1       8.719  21.957  53.988  1.00  0.00     0.034 C 
HETATM   15  C   UNL     1       8.383  20.777  53.089  1.00  0.00     0.010 C 
ENDBRANCH  11  14
ENDBRANCH   7   8
BRANCH   7  16
HETATM   16  C   UNL     1       4.942  27.442  53.836  1.00  0.00     0.005 C 
HETATM   17  C   UNL     1       6.106  28.342  54.265  1.00  0.00     0.012 C 
HETATM   18  C   UNL     1       3.710  28.301  53.525  1.00  0.00     0.012 C 
ENDBRANCH   7  16
ENDBRANCH   1   7
BRANCH   3  19
HETATM   19  N   UNL     1       3.577  26.568  48.779  1.00  0.00    -0.244 N 
HETATM   20  C   UNL     1       2.624  27.502  48.489  1.00  0.00     0.086 A 
HETATM   21  C   UNL     1       2.167  27.105  47.231  1.00  0.00     0.086 A 
HETATM   22  C   UNL     1       2.122  28.618  49.168  1.00  0.00     0.034 A 
HETATM   23  C   UNL     1       1.165  27.858  46.601  1.00  0.00     0.034 A 
HETATM   24  N   UNL     1       2.808  25.962  46.801  1.00  0.00    -0.240 NA
HETATM   25  C   UNL     1       0.650  28.982  47.260  1.00  0.00     0.002 A 
HETATM   26  C   UNL     1       1.120  29.352  48.522  1.00  0.00     0.002 A 
HETATM   27  C   UNL     1       3.655  25.663  47.765  1.00  0.00     0.234 A 
ENDBRANCH   3  19
TORSDOF 5
ENDMDL
MODEL 2
REMARK VINA RESULT:      -8.7      1.587      2.411
REMARK  5 active torsions:
REMARK  status: ('A' for Active; 'I' for Inactive)
REMARK    1  A    between atoms: C_2  and  C_3 
REMARK    2  A    between atoms: C_6  and  C_7 
REMARK    3  A    between atoms: C_7  and  N_8 
REMARK    4  A    between atoms: C_7  and  C_21 
REMARK       I    between atoms: N_8  and  C_9 
REMARK       I    between atoms: C_9  and  N_10 
REMARK    5  A    between atoms: N_10  and  N_11 
ROOT
HETATM    1  N   UNL     1       6.274  27.802  52.932  1.00  0.00    -0.333 N 
HETATM    2  C   UNL     1       5.558  28.256  51.869  1.00  0.00     0.335 C 
HETATM    3  N   UNL     1       4.405  27.586  51.601  1.00  0.00    -0.244 N 
HETATM    4  O   UNL     1       5.969  29.229  51.246  1.00  0.00    -0.246 OA
HETATM    5  H   UNL     1       7.135  28.317  53.065  1.00  0.00     0.165 HD
HETATM    6  H   UNL     1       4.403  26.583  51.717  1.00  0.00     0.192 HD
ENDROOT
BRANCH   1   7
HETATM    7  C   UNL     1       5.881  26.836  53.953  1.00  0.00     0.122 C 
BRANCH   7   8
HETATM    8  C   UNL     1       6.592  25.499  53.796  1.00  0.00    -0.035 A 
HETATM    9  C   UNL     1       7.284  25.143  52.629  1.00  0.00     0.010 A 
HETATM   10  C   UNL     1       7.974  23.930  52.549  1.00  0.00     0.007 A 
HETATM   11  C   UNL     1       7.989  23.043  53.632  1.00  0.00    -0.059 A 
HETATM   12  C   UNL     1       7.298  23.390  54.797  1.00  0.00     0.007 A 
HETATM   13  C   UNL     1       6.606  24.601  54.877  1.00  0.00     0.010 A 
BRANCH  11  14
HETATM   14  C   UNL     1       8.777  21.760  53.562  1.00  0.00     0.034 C 
HETATM   15  C   UNL     1       7.938  20.611  53.021  1.00  0.00     0.010 C 
ENDBRANCH  11  14
ENDBRANCH   7   8
BRANCH   7  16
HETATM   16  C   UNL     1       6.018  27.415  55.389  1.00  0.00     0.005 C 
HETATM   17  C   UNL     1       7.208  28.364  55.570  1.00  0.00     0.012 C 
HETATM   18  C   UNL     1       4.725  28.117  55.820  1.00  0.00     0.012 C 
ENDBRANCH   7  16
ENDBRANCH   1   7
BRANCH   3  19
HETATM   19  N   UNL     1       3.623  28.024  50.588  1.00  0.00    -0.244 N 
HETATM   20  C   UNL     1       3.457  27.343  49.416  1.00  0.00     0.086 A 
HETATM   21  C   UNL     1       2.726  28.237  48.633  1.00  0.00     0.086 A 
HETATM   22  C   UNL     1       3.857  26.080  48.966  1.00  0.00     0.034 A 
HETATM   23  C   UNL     1       2.356  27.859  47.334  1.00  0.00     0.034 A 
HETATM   24  N   UNL     1       2.488  29.417  49.306  1.00  0.00    -0.240 NA
HETATM   25  C   UNL     1       2.742  26.597  46.861  1.00  0.00     0.002 A 
HETATM   26  C   UNL     1       3.481  25.726  47.665  1.00  0.00     0.002 A 
HETATM   27  C   UNL     1       3.047  29.254  50.488  1.00  0.00     0.234 A 
ENDBRANCH   3  19
TORSDOF 5
ENDMDL
MODEL 3
REMARK VINA RESULT:      -8.3      4.495      7.608
REMARK  5 active torsions:
REMARK  status: ('A' for Active; 'I' for Inactive)
REMARK    1  A    between atoms: C_2  and  C_3 
REMARK    2  A    between atoms: C_6  and  C_7 
REMARK    3  A    between atoms: C_7  and  N_8 
REMARK    4  A    between atoms: C_7  and  C_21 
REMARK       I    between atoms: N_8  and  C_9 
REMARK       I    between atoms: C_9  and  N_10 
REMARK    5  A    between atoms: N_10  and  N_11 
ROOT
HETATM    1  N   UNL     1       5.686  26.303  55.205  1.00  0.00    -0.333 N 
HETATM    2  C   UNL     1       5.503  27.467  55.883  1.00  0.00     0.335 C 
HETATM    3  N   UNL     1       6.452  28.423  55.689  1.00  0.00    -0.244 N 
HETATM    4  O   UNL     1       4.511  27.593  56.592  1.00  0.00    -0.246 OA
HETATM    5  H   UNL     1       4.969  25.620  55.411  1.00  0.00     0.165 HD
HETATM    6  H   UNL     1       7.413  28.124  55.609  1.00  0.00     0.192 HD
ENDROOT
BRANCH   1   7
HETATM    7  C   UNL     1       6.637  26.007  54.138  1.00  0.00     0.122 C 
BRANCH   7   8
HETATM    8  C   UNL     1       7.209  24.601  54.239  1.00  0.00    -0.035 A 
HETATM    9  C   UNL     1       7.148  23.842  55.417  1.00  0.00     0.010 A 
HETATM   10  C   UNL     1       7.632  22.531  55.450  1.00  0.00     0.007 A 
HETATM   11  C   UNL     1       8.188  21.945  54.307  1.00  0.00    -0.059 A 
HETATM   12  C   UNL     1       8.255  22.697  53.129  1.00  0.00     0.007 A 
HETATM   13  C   UNL     1       7.774  24.009  53.096  1.00  0.00     0.010 A 
BRANCH  11  14
HETATM   14  C   UNL     1       8.661  20.515  54.329  1.00  0.00     0.034 C 
HETATM   15  C   UNL     1       8.621  19.929  55.733  1.00  0.00     0.010 C 
ENDBRANCH  11  14
ENDBRANCH   7   8
BRANCH   7  16
HETATM   16  C   UNL     1       6.049  26.309  52.732  1.00  0.00     0.005 C 
HETATM   17  C   UNL     1       4.641  25.746  52.507  1.00  0.00     0.012 C 
HETATM   18  C   UNL     1       6.056  27.816  52.449  1.00  0.00     0.012 C 
ENDBRANCH   7  16
ENDBRANCH   1   7
BRANCH   3  19
HETATM   19  N   UNL     1       6.296  29.621  56.296  1.00  0.00    -0.244 N 
HETATM   20  C   UNL     1       6.931  29.967  57.454  1.00  0.00     0.086 A 
HETATM   21  C   UNL     1       6.347  31.191  57.781  1.00  0.00     0.086 A 
HETATM   22  C   UNL     1       7.923  29.360  58.233  1.00  0.00     0.034 A 
HETATM   23  C   UNL     1       6.773  31.863  58.936  1.00  0.00     0.034 A 
HETATM   24  N   UNL     1       5.381  31.548  56.863  1.00  0.00    -0.240 NA
HETATM   25  C   UNL     1       7.768  31.277  59.730  1.00  0.00     0.002 A 
HETATM   26  C   UNL     1       8.330  30.046  59.383  1.00  0.00     0.002 A 
HETATM   27  C   UNL     1       5.375  30.573  55.978  1.00  0.00     0.234 A 
ENDBRANCH   3  19
TORSDOF 5
ENDMDL
MODEL 4
REMARK VINA RESULT:      -8.2      1.162      1.676
REMARK  5 active torsions:
REMARK  status: ('A' for Active; 'I' for Inactive)
REMARK    1  A    between atoms: C_2  and  C_3 
REMARK    2  A    between atoms: C_6  and  C_7 
REMARK    3  A    between atoms: C_7  and  N_8 
REMARK    4  A    between atoms: C_7  and  C_21 
REMARK       I    between atoms: N_8  and  C_9 
REMARK       I    between atoms: C_9  and  N_10 
REMARK    5  A    between atoms: N_10  and  N_11 
ROOT
HETATM    1  N   UNL     1       5.491  26.788  50.188  1.00  0.00    -0.333 N 
HETATM    2  C   UNL     1       4.697  27.053  49.117  1.00  0.00     0.335 C 
HETATM    3  N   UNL     1       3.357  26.953  49.333  1.00  0.00    -0.244 N 
HETATM    4  O   UNL     1       5.217  27.380  48.056  1.00  0.00    -0.246 OA
HETATM    5  H   UNL     1       6.476  26.846  49.961  1.00  0.00     0.165 HD
HETATM    6  H   UNL     1       3.029  26.209  49.931  1.00  0.00     0.192 HD
ENDROOT
BRANCH   1   7
HETATM    7  C   UNL     1       5.112  26.616  51.587  1.00  0.00     0.122 C 
BRANCH   7   8
HETATM    8  C   UNL     1       5.977  25.590  52.305  1.00  0.00    -0.035 A 
HETATM    9  C   UNL     1       7.180  25.108  51.769  1.00  0.00     0.010 A 
HETATM   10  C   UNL     1       7.975  24.210  52.489  1.00  0.00     0.007 A 
HETATM   11  C   UNL     1       7.587  23.773  53.761  1.00  0.00    -0.059 A 
HETATM   12  C   UNL     1       6.387  24.247  54.299  1.00  0.00     0.007 A 
HETATM   13  C   UNL     1       5.590  25.143  53.579  1.00  0.00     0.010 A 
BRANCH  11  14
HETATM   14  C   UNL     1       8.470  22.847  54.556  1.00  0.00     0.034 C 
HETATM   15  C   UNL     1       8.949  21.668  53.722  1.00  0.00     0.010 C 
ENDBRANCH  11  14
ENDBRANCH   7   8
BRANCH   7  16
HETATM   16  C   UNL     1       5.049  27.972  52.344  1.00  0.00     0.005 C 
HETATM   17  C   UNL     1       5.558  29.168  51.532  1.00  0.00     0.012 C 
HETATM   18  C   UNL     1       3.627  28.252  52.843  1.00  0.00     0.012 C 
ENDBRANCH   7  16
ENDBRANCH   1   7
BRANCH   3  19
HETATM   19  N   UNL     1       2.514  27.257  48.320  1.00  0.00    -0.244 N 
HETATM   20  C   UNL     1       1.849  28.447  48.226  1.00  0.00     0.086 A 
HETATM   21  C   UNL     1       0.993  28.243  47.143  1.00  0.00     0.086 A 
HETATM   22  C   UNL     1       1.899  29.644  48.948  1.00  0.00     0.034 A 
HETATM   23  C   UNL     1       0.143  29.285  46.742  1.00  0.00     0.034 A 
HETATM   24  N   UNL     1       1.125  26.971  46.629  1.00  0.00    -0.240 NA
HETATM   25  C   UNL     1       0.177  30.495  47.448  1.00  0.00     0.002 A 
HETATM   26  C   UNL     1       1.040  30.668  48.533  1.00  0.00     0.002 A 
HETATM   27  C   UNL     1       2.055  26.399  47.368  1.00  0.00     0.234 A 
ENDBRANCH   3  19
TORSDOF 5
ENDMDL
MODEL 5
REMARK VINA RESULT:      -8.1      3.507      8.157
REMARK  5 active torsions:
REMARK  status: ('A' for Active; 'I' for Inactive)
REMARK    1  A    between atoms: C_2  and  C_3 
REMARK    2  A    between atoms: C_6  and  C_7 
REMARK    3  A    between atoms: C_7  and  N_8 
REMARK    4  A    between atoms: C_7  and  C_21 
REMARK       I    between atoms: N_8  and  C_9 
REMARK       I    between atoms: C_9  and  N_10 
REMARK    5  A    between atoms: N_10  and  N_11 
ROOT
HETATM    1  N   UNL     1       5.790  26.440  54.882  1.00  0.00    -0.333 N 
HETATM    2  C   UNL     1       6.217  25.265  55.415  1.00  0.00     0.335 C 
HETATM    3  N   UNL     1       7.431  24.826  54.985  1.00  0.00    -0.244 N 
HETATM    4  O   UNL     1       5.516  24.697  56.244  1.00  0.00    -0.246 OA
HETATM    5  H   UNL     1       4.870  26.701  55.213  1.00  0.00     0.165 HD
HETATM    6  H   UNL     1       7.666  24.961  54.012  1.00  0.00     0.192 HD
ENDROOT
BRANCH   1   7
HETATM    7  C   UNL     1       6.535  27.403  54.077  1.00  0.00     0.122 C 
BRANCH   7   8
HETATM    8  C   UNL     1       5.960  27.563  52.677  1.00  0.00    -0.035 A 
HETATM    9  C   UNL     1       5.738  28.817  52.089  1.00  0.00     0.010 A 
HETATM   10  C   UNL     1       5.264  28.918  50.778  1.00  0.00     0.007 A 
HETATM   11  C   UNL     1       5.000  27.771  50.022  1.00  0.00    -0.059 A 
HETATM   12  C   UNL     1       5.216  26.517  50.603  1.00  0.00     0.007 A 
HETATM   13  C   UNL     1       5.687  26.414  51.915  1.00  0.00     0.010 A 
BRANCH  11  14
HETATM   14  C   UNL     1       4.540  27.882  48.592  1.00  0.00     0.034 C 
HETATM   15  C   UNL     1       4.686  26.564  47.846  1.00  0.00     0.010 C 
ENDBRANCH  11  14
ENDBRANCH   7   8
BRANCH   7  16
HETATM   16  C   UNL     1       6.706  28.765  54.806  1.00  0.00     0.005 C 
HETATM   17  C   UNL     1       5.628  29.052  55.857  1.00  0.00     0.012 C 
HETATM   18  C   UNL     1       8.095  28.871  55.446  1.00  0.00     0.012 C 
ENDBRANCH   7  16
ENDBRANCH   1   7
BRANCH   3  19
HETATM   19  N   UNL     1       7.934  23.689  55.519  1.00  0.00    -0.244 N 
HETATM   20  C   UNL     1       8.113  22.537  54.807  1.00  0.00     0.086 A 
HETATM   21  C   UNL     1       8.480  21.615  55.787  1.00  0.00     0.086 A 
HETATM   22  C   UNL     1       7.995  22.209  53.452  1.00  0.00     0.034 A 
HETATM   23  C   UNL     1       8.759  20.293  55.407  1.00  0.00     0.034 A 
HETATM   24  N   UNL     1       8.494  22.191  57.040  1.00  0.00    -0.240 NA
HETATM   25  C   UNL     1       8.652  19.941  54.055  1.00  0.00     0.002 A 
HETATM   26  C   UNL     1       8.274  20.884  53.097  1.00  0.00     0.002 A 
HETATM   27  C   UNL     1       8.156  23.449  56.841  1.00  0.00     0.234 A 
ENDBRANCH   3  19
TORSDOF 5
ENDMDL
MODEL 6
REMARK VINA RESULT:      -8.1      7.498     11.287
REMARK  5 active torsions:
REMARK  status: ('A' for Active; 'I' for Inactive)
REMARK    1  A    between atoms: C_2  and  C_3 
REMARK    2  A    between atoms: C_6  and  C_7 
REMARK    3  A    between atoms: C_7  and  N_8 
REMARK    4  A    between atoms: C_7  and  C_21 
REMARK       I    between atoms: N_8  and  C_9 
REMARK       I    between atoms: C_9  and  N_10 
REMARK    5  A    between atoms: N_10  and  N_11 
ROOT
HETATM    1  N   UNL     1       7.176  30.832  57.847  1.00  0.00    -0.333 N 
HETATM    2  C   UNL     1       6.554  31.707  58.680  1.00  0.00     0.335 C 
HETATM    3  N   UNL     1       6.473  31.330  59.985  1.00  0.00    -0.244 N 
HETATM    4  O   UNL     1       6.134  32.766  58.226  1.00  0.00    -0.246 OA
HETATM    5  H   UNL     1       7.179  31.149  56.887  1.00  0.00     0.165 HD
HETATM    6  H   UNL     1       6.298  30.356  60.185  1.00  0.00     0.192 HD
ENDROOT
BRANCH   1   7
HETATM    7  C   UNL     1       7.954  29.644  58.186  1.00  0.00     0.122 C 
BRANCH   7   8
HETATM    8  C   UNL     1       7.362  28.371  57.598  1.00  0.00    -0.035 A 
HETATM    9  C   UNL     1       6.274  28.381  56.713  1.00  0.00     0.010 A 
HETATM   10  C   UNL     1       5.798  27.193  56.150  1.00  0.00     0.007 A 
HETATM   11  C   UNL     1       6.398  25.967  56.456  1.00  0.00    -0.059 A 
HETATM   12  C   UNL     1       7.481  25.948  57.340  1.00  0.00     0.007 A 
HETATM   13  C   UNL     1       7.956  27.135  57.907  1.00  0.00     0.010 A 
BRANCH  11  14
HETATM   14  C   UNL     1       5.918  24.694  55.807  1.00  0.00     0.034 C 
HETATM   15  C   UNL     1       6.880  24.211  54.732  1.00  0.00     0.010 C 
ENDBRANCH  11  14
ENDBRANCH   7   8
BRANCH   7  16
HETATM   16  C   UNL     1       9.459  29.813  57.837  1.00  0.00     0.005 C 
HETATM   17  C   UNL     1       9.775  29.681  56.343  1.00  0.00     0.012 C 
HETATM   18  C   UNL     1       9.994  31.150  58.364  1.00  0.00     0.012 C 
ENDBRANCH   7  16
ENDBRANCH   1   7
BRANCH   3  19
HETATM   19  N   UNL     1       5.912  32.184  60.872  1.00  0.00    -0.244 N 
HETATM   20  C   UNL     1       6.506  32.544  62.048  1.00  0.00     0.086 A 
HETATM   21  C   UNL     1       5.510  33.282  62.690  1.00  0.00     0.086 A 
HETATM   22  C   UNL     1       7.767  32.312  62.607  1.00  0.00     0.034 A 
HETATM   23  C   UNL     1       5.777  33.832  63.952  1.00  0.00     0.034 A 
HETATM   24  N   UNL     1       4.358  33.335  61.934  1.00  0.00    -0.240 NA
HETATM   25  C   UNL     1       7.035  33.616  64.531  1.00  0.00     0.002 A 
HETATM   26  C   UNL     1       8.010  32.867  63.869  1.00  0.00     0.002 A 
HETATM   27  C   UNL     1       4.636  32.658  60.839  1.00  0.00     0.234 A 
ENDBRANCH   3  19
TORSDOF 5
ENDMDL
MODEL 7
REMARK VINA RESULT:      -8.0      5.949      9.217
REMARK  5 active torsions:
REMARK  status: ('A' for Active; 'I' for Inactive)
REMARK    1  A    between atoms: C_2  and  C_3 
REMARK    2  A    between atoms: C_6  and  C_7 
REMARK    3  A    between atoms: C_7  and  N_8 
REMARK    4  A    between atoms: C_7  and  C_21 
REMARK       I    between atoms: N_8  and  C_9 
REMARK       I    between atoms: C_9  and  N_10 
REMARK    5  A    between atoms: N_10  and  N_11 
ROOT
HETATM    1  N   UNL     1       8.054  26.310  57.320  1.00  0.00    -0.333 N 
HETATM    2  C   UNL     1       8.485  25.029  57.171  1.00  0.00     0.335 C 
HETATM    3  N   UNL     1       7.606  24.173  56.583  1.00  0.00    -0.244 N 
HETATM    4  O   UNL     1       9.615  24.734  57.542  1.00  0.00    -0.246 OA
HETATM    5  H   UNL     1       8.735  26.893  57.791  1.00  0.00     0.165 HD
HETATM    6  H   UNL     1       6.628  24.268  56.813  1.00  0.00     0.192 HD
ENDROOT
BRANCH   1   7
HETATM    7  C   UNL     1       6.870  26.948  56.754  1.00  0.00     0.122 C 
BRANCH   7   8
HETATM    8  C   UNL     1       6.616  28.331  57.335  1.00  0.00    -0.035 A 
HETATM    9  C   UNL     1       7.609  29.065  58.001  1.00  0.00     0.010 A 
HETATM   10  C   UNL     1       7.351  30.357  58.468  1.00  0.00     0.007 A 
HETATM   11  C   UNL     1       6.096  30.948  58.282  1.00  0.00    -0.059 A 
HETATM   12  C   UNL     1       5.101  30.221  57.621  1.00  0.00     0.007 A 
HETATM   13  C   UNL     1       5.357  28.927  57.156  1.00  0.00     0.010 A 
BRANCH  11  14
HETATM   14  C   UNL     1       5.837  32.360  58.739  1.00  0.00     0.034 C 
HETATM   15  C   UNL     1       6.370  32.606  60.142  1.00  0.00     0.010 C 
ENDBRANCH  11  14
ENDBRANCH   7   8
BRANCH   7  16
HETATM   16  C   UNL     1       6.899  26.955  55.199  1.00  0.00     0.005 C 
HETATM   17  C   UNL     1       5.516  26.853  54.546  1.00  0.00     0.012 C 
HETATM   18  C   UNL     1       7.631  28.195  54.673  1.00  0.00     0.012 C 
ENDBRANCH   7  16
ENDBRANCH   1   7
BRANCH   3  19
HETATM   19  N   UNL     1       7.998  22.898  56.358  1.00  0.00    -0.244 N 
HETATM   20  C   UNL     1       8.038  22.330  55.116  1.00  0.00     0.086 A 
HETATM   21  C   UNL     1       8.329  20.993  55.391  1.00  0.00     0.086 A 
HETATM   22  C   UNL     1       7.855  22.824  53.820  1.00  0.00     0.034 A 
HETATM   23  C   UNL     1       8.458  20.092  54.324  1.00  0.00     0.034 A 
HETATM   24  N   UNL     1       8.432  20.769  56.747  1.00  0.00    -0.240 NA
HETATM   25  C   UNL     1       8.282  20.563  53.015  1.00  0.00     0.002 A 
HETATM   26  C   UNL     1       7.984  21.906  52.771  1.00  0.00     0.002 A 
HETATM   27  C   UNL     1       8.224  21.945  57.304  1.00  0.00     0.234 A 
ENDBRANCH   3  19
TORSDOF 5
ENDMDL
MODEL 8
REMARK VINA RESULT:      -7.9      5.883      9.088
REMARK  5 active torsions:
REMARK  status: ('A' for Active; 'I' for Inactive)
REMARK    1  A    between atoms: C_2  and  C_3 
REMARK    2  A    between atoms: C_6  and  C_7 
REMARK    3  A    between atoms: C_7  and  N_8 
REMARK    4  A    between atoms: C_7  and  C_21 
REMARK       I    between atoms: N_8  and  C_9 
REMARK       I    between atoms: C_9  and  N_10 
REMARK    5  A    between atoms: N_10  and  N_11 
ROOT
HETATM    1  N   UNL     1       7.682  28.729  58.216  1.00  0.00    -0.333 N 
HETATM    2  C   UNL     1       6.869  28.144  57.297  1.00  0.00     0.335 C 
HETATM    3  N   UNL     1       6.464  28.939  56.270  1.00  0.00    -0.244 N 
HETATM    4  O   UNL     1       6.575  26.961  57.430  1.00  0.00    -0.246 OA
HETATM    5  H   UNL     1       7.925  28.101  58.971  1.00  0.00     0.165 HD
HETATM    6  H   UNL     1       6.246  29.903  56.477  1.00  0.00     0.192 HD
ENDROOT
BRANCH   1   7
HETATM    7  C   UNL     1       8.351  30.025  58.149  1.00  0.00     0.122 C 
BRANCH   7   8
HETATM    8  C   UNL     1       8.298  30.778  59.470  1.00  0.00    -0.035 A 
HETATM    9  C   UNL     1       7.464  31.888  59.674  1.00  0.00     0.010 A 
HETATM   10  C   UNL     1       7.401  32.515  60.922  1.00  0.00     0.007 A 
HETATM   11  C   UNL     1       8.169  32.051  61.996  1.00  0.00    -0.059 A 
HETATM   12  C   UNL     1       9.005  30.948  61.798  1.00  0.00     0.007 A 
HETATM   13  C   UNL     1       9.071  30.321  60.550  1.00  0.00     0.010 A 
BRANCH  11  14
HETATM   14  C   UNL     1       8.060  32.695  63.353  1.00  0.00     0.034 C 
HETATM   15  C   UNL     1       6.869  33.638  63.437  1.00  0.00     0.010 C 
ENDBRANCH  11  14
ENDBRANCH   7   8
BRANCH   7  16
HETATM   16  C   UNL     1       9.798  29.905  57.593  1.00  0.00     0.005 C 
HETATM   17  C   UNL     1       9.870  29.550  56.104  1.00  0.00     0.012 C 
HETATM   18  C   UNL     1      10.593  31.189  57.859  1.00  0.00     0.012 C 
ENDBRANCH   7  16
ENDBRANCH   1   7
BRANCH   3  19
HETATM   19  N   UNL     1       5.697  28.397  55.296  1.00  0.00    -0.244 N 
HETATM   20  C   UNL     1       6.188  27.575  54.322  1.00  0.00     0.086 A 
HETATM   21  C   UNL     1       5.095  27.410  53.470  1.00  0.00     0.086 A 
HETATM   22  C   UNL     1       7.432  26.975  54.097  1.00  0.00     0.034 A 
HETATM   23  C   UNL     1       5.234  26.597  52.335  1.00  0.00     0.034 A 
HETATM   24  N   UNL     1       4.003  28.129  53.908  1.00  0.00    -0.240 NA
HETATM   25  C   UNL     1       6.469  25.982  52.090  1.00  0.00     0.002 A 
HETATM   26  C   UNL     1       7.548  26.172  52.957  1.00  0.00     0.002 A 
HETATM   27  C   UNL     1       4.404  28.717  55.016  1.00  0.00     0.234 A 
ENDBRANCH   3  19
TORSDOF 5
ENDMDL
MODEL 9
REMARK VINA RESULT:      -7.9      4.664      8.439
REMARK  5 active torsions:
REMARK  status: ('A' for Active; 'I' for Inactive)
REMARK    1  A    between atoms: C_2  and  C_3 
REMARK    2  A    between atoms: C_6  and  C_7 
REMARK    3  A    between atoms: C_7  and  N_8 
REMARK    4  A    between atoms: C_7  and  C_21 
REMARK       I    between atoms: N_8  and  C_9 
REMARK       I    between atoms: C_9  and  N_10 
REMARK    5  A    between atoms: N_10  and  N_11 
ROOT
HETATM    1  N   UNL     1       8.034  27.353  57.288  1.00  0.00    -0.333 N 
HETATM    2  C   UNL     1       8.091  25.996  57.345  1.00  0.00     0.335 C 
HETATM    3  N   UNL     1       8.210  25.357  56.150  1.00  0.00    -0.244 N 
HETATM    4  O   UNL     1       8.056  25.443  58.439  1.00  0.00    -0.246 OA
HETATM    5  H   UNL     1       7.914  27.772  58.202  1.00  0.00     0.165 HD
HETATM    6  H   UNL     1       7.699  25.728  55.362  1.00  0.00     0.192 HD
ENDROOT
BRANCH   1   7
HETATM    7  C   UNL     1       8.292  28.232  56.152  1.00  0.00     0.122 C 
BRANCH   7   8
HETATM    8  C   UNL     1       7.078  28.391  55.249  1.00  0.00    -0.035 A 
HETATM    9  C   UNL     1       7.092  28.033  53.893  1.00  0.00     0.010 A 
HETATM   10  C   UNL     1       5.936  28.140  53.113  1.00  0.00     0.007 A 
HETATM   11  C   UNL     1       4.740  28.608  53.668  1.00  0.00    -0.059 A 
HETATM   12  C   UNL     1       4.720  28.970  55.018  1.00  0.00     0.007 A 
HETATM   13  C   UNL     1       5.875  28.866  55.799  1.00  0.00     0.010 A 
BRANCH  11  14
HETATM   14  C   UNL     1       3.483  28.673  52.839  1.00  0.00     0.034 C 
HETATM   15  C   UNL     1       3.788  28.662  51.349  1.00  0.00     0.010 C 
ENDBRANCH  11  14
ENDBRANCH   7   8
BRANCH   7  16
HETATM   16  C   UNL     1       8.885  29.599  56.595  1.00  0.00     0.005 C 
HETATM   17  C   UNL     1       8.785  29.867  58.101  1.00  0.00     0.012 C 
HETATM   18  C   UNL     1      10.343  29.735  56.140  1.00  0.00     0.012 C 
ENDBRANCH   7  16
ENDBRANCH   1   7
BRANCH   3  19
HETATM   19  N   UNL     1       8.326  24.009  56.146  1.00  0.00    -0.244 N 
HETATM   20  C   UNL     1       8.160  23.243  55.027  1.00  0.00     0.086 A 
HETATM   21  C   UNL     1       8.202  21.941  55.528  1.00  0.00     0.086 A 
HETATM   22  C   UNL     1       7.982  23.536  53.670  1.00  0.00     0.034 A 
HETATM   23  C   UNL     1       8.071  20.865  54.638  1.00  0.00     0.034 A 
HETATM   24  N   UNL     1       8.360  21.935  56.898  1.00  0.00    -0.240 NA
HETATM   25  C   UNL     1       7.895  21.133  53.274  1.00  0.00     0.002 A 
HETATM   26  C   UNL     1       7.849  22.446  52.802  1.00  0.00     0.002 A 
HETATM   27  C   UNL     1       8.430  23.205  57.240  1.00  0.00     0.234 A 
ENDBRANCH   3  19
TORSDOF 5
ENDMDL
MODEL 10
REMARK VINA RESULT:      -7.5      3.254      5.647
REMARK  5 active torsions:
REMARK  status: ('A' for Active; 'I' for Inactive)
REMARK    1  A    between atoms: C_2  and  C_3 
REMARK    2  A    between atoms: C_6  and  C_7 
REMARK    3  A    between atoms: C_7  and  N_8 
REMARK    4  A    between atoms: C_7  and  C_21 
REMARK       I    between atoms: N_8  and  C_9 
REMARK       I    between atoms: C_9  and  N_10 
REMARK    5  A    between atoms: N_10  and  N_11 
ROOT
HETATM    1  N   UNL     1       5.704  27.862  54.641  1.00  0.00    -0.333 N 
HETATM    2  C   UNL     1       5.132  28.324  53.498  1.00  0.00     0.335 C 
HETATM    3  N   UNL     1       5.990  28.638  52.489  1.00  0.00    -0.244 N 
HETATM    4  O   UNL     1       3.910  28.409  53.435  1.00  0.00    -0.246 OA
HETATM    5  H   UNL     1       5.023  27.676  55.365  1.00  0.00     0.165 HD
HETATM    6  H   UNL     1       6.865  29.076  52.733  1.00  0.00     0.192 HD
ENDROOT
BRANCH   1   7
HETATM    7  C   UNL     1       7.087  27.455  54.870  1.00  0.00     0.122 C 
BRANCH   7   8
HETATM    8  C   UNL     1       7.767  28.279  55.954  1.00  0.00    -0.035 A 
HETATM    9  C   UNL     1       8.989  28.937  55.749  1.00  0.00     0.010 A 
HETATM   10  C   UNL     1       9.549  29.733  56.752  1.00  0.00     0.007 A 
HETATM   11  C   UNL     1       8.904  29.892  57.984  1.00  0.00    -0.059 A 
HETATM   12  C   UNL     1       7.688  29.236  58.196  1.00  0.00     0.007 A 
HETATM   13  C   UNL     1       7.127  28.437  57.195  1.00  0.00     0.010 A 
BRANCH  11  14
HETATM   14  C   UNL     1       9.484  30.792  59.044  1.00  0.00     0.034 C 
HETATM   15  C   UNL     1       8.838  30.554  60.401  1.00  0.00     0.010 C 
ENDBRANCH  11  14
ENDBRANCH   7   8
BRANCH   7  16
HETATM   16  C   UNL     1       7.210  25.926  55.124  1.00  0.00     0.005 C 
HETATM   17  C   UNL     1       5.942  25.281  55.694  1.00  0.00     0.012 C 
HETATM   18  C   UNL     1       7.635  25.194  53.845  1.00  0.00     0.012 C 
ENDBRANCH   7  16
ENDBRANCH   1   7
BRANCH   3  19
HETATM   19  N   UNL     1       5.476  29.052  51.309  1.00  0.00    -0.244 N 
HETATM   20  C   UNL     1       5.100  28.199  50.310  1.00  0.00     0.086 A 
HETATM   21  C   UNL     1       4.801  29.062  49.255  1.00  0.00     0.086 A 
HETATM   22  C   UNL     1       4.994  26.807  50.215  1.00  0.00     0.034 A 
HETATM   23  C   UNL     1       4.361  28.522  48.038  1.00  0.00     0.034 A 
HETATM   24  N   UNL     1       5.016  30.378  49.606  1.00  0.00    -0.240 NA
HETATM   25  C   UNL     1       4.243  27.130  47.919  1.00  0.00     0.002 A 
HETATM   26  C   UNL     1       4.557  26.291  48.990  1.00  0.00     0.002 A 
HETATM   27  C   UNL     1       5.426  30.336  50.857  1.00  0.00     0.234 A 
ENDBRANCH   3  19
TORSDOF 5
ENDMDL
