MODEL 1
REMARK VINA RESULT:      -8.9      0.000      0.000
REMARK  3 active torsions:
REMARK  status: ('A' for Active; 'I' for Inactive)
REMARK    1  A    between atoms: C_3  and  N_4 
REMARK       I    between atoms: N_4  and  C_5 
REMARK    2  A    between atoms: C_5  and  C_6 
REMARK    3  A    between atoms: C_7  and  C_8 
ROOT
HETATM    1  C   UNL     1       6.272  26.292  53.110  1.00  0.00     0.062 A 
HETATM    2  C   UNL     1       6.465  27.413  54.127  1.00  0.00     0.199 A 
HETATM    3  N   UNL     1       5.318  28.319  54.132  1.00  0.00    -0.092 N 
HETATM    4  C   UNL     1       4.232  28.203  53.311  1.00  0.00     0.735 A 
HETATM    5  N   UNL     1       4.160  27.162  52.458  1.00  0.00    -0.191 N 
HETATM    6  N   UNL     1       5.264  29.476  54.810  1.00  0.00     0.012 NA
HETATM    7  N   UNL     1       4.097  30.009  54.465  1.00  0.00     0.033 NA
HETATM    8  N   UNL     1       3.446  29.228  53.526  1.00  0.00     0.030 NA
HETATM    9  C   UNL     1       5.158  26.199  52.344  1.00  0.00     0.037 A 
HETATM   10  C   UNL     1       4.907  25.109  51.332  1.00  0.00     0.070 C 
HETATM   11  H   UNL     1       3.342  27.067  51.861  1.00  0.00     0.184 HD
ENDROOT
BRANCH   1  12
HETATM   12  C   UNL     1       7.308  25.227  53.076  1.00  0.00     0.256 C 
HETATM   13  N   UNL     1       6.930  24.093  53.761  1.00  0.00    -0.323 N 
HETATM   14  H   UNL     1       6.069  24.133  54.285  1.00  0.00     0.169 HD
HETATM   15  O   UNL     1       8.354  25.439  52.478  1.00  0.00    -0.267 OA
BRANCH  13  16
HETATM   16  C   UNL     1       7.636  22.866  53.843  1.00  0.00     0.041 A 
HETATM   17  C   UNL     1       8.531  22.666  54.918  1.00  0.00    -0.035 A 
HETATM   18  C   UNL     1       8.763  23.703  55.985  1.00  0.00     0.050 C 
HETATM   19  C   UNL     1       9.229  21.448  55.019  1.00  0.00     0.009 A 
HETATM   20  C   UNL     1       9.050  20.441  54.074  1.00  0.00     0.001 A 
HETATM   21  C   UNL     1       8.169  20.636  53.020  1.00  0.00     0.002 A 
HETATM   22  C   UNL     1       7.467  21.839  52.907  1.00  0.00     0.030 A 
ENDBRANCH  13  16
ENDBRANCH   1  12
BRANCH   2  23
HETATM   23  C   UNL     1       6.765  26.937  55.533  1.00  0.00    -0.011 A 
HETATM   24  C   UNL     1       7.941  27.337  56.169  1.00  0.00     0.125 A 
HETATM   25  N   UNL     1       8.307  26.950  57.409  1.00  0.00    -0.272 NA
HETATM   26  C   UNL     1       7.457  26.133  58.066  1.00  0.00     0.116 A 
HETATM   27  C   UNL     1       6.256  25.692  57.540  1.00  0.00     0.020 A 
HETATM   28  C   UNL     1       5.905  26.103  56.257  1.00  0.00     0.012 A 
ENDBRANCH   2  23
TORSDOF 3
ENDMDL
MODEL 2
REMARK VINA RESULT:      -8.7      7.038      9.607
REMARK  3 active torsions:
REMARK  status: ('A' for Active; 'I' for Inactive)
REMARK    1  A    between atoms: C_3  and  N_4 
REMARK       I    between atoms: N_4  and  C_5 
REMARK    2  A    between atoms: C_5  and  C_6 
REMARK    3  A    between atoms: C_7  and  C_8 
ROOT
HETATM    1  C   UNL     1       7.036  31.990  61.080  1.00  0.00     0.062 A 
HETATM    2  C   UNL     1       5.604  32.125  61.587  1.00  0.00     0.199 A 
HETATM    3  N   UNL     1       5.578  32.596  62.970  1.00  0.00    -0.092 N 
HETATM    4  C   UNL     1       6.689  32.847  63.726  1.00  0.00     0.735 A 
HETATM    5  N   UNL     1       7.909  32.708  63.170  1.00  0.00    -0.191 N 
HETATM    6  N   UNL     1       4.475  32.668  63.731  1.00  0.00     0.012 NA
HETATM    7  N   UNL     1       4.918  33.056  64.923  1.00  0.00     0.033 NA
HETATM    8  N   UNL     1       6.297  33.166  64.935  1.00  0.00     0.030 NA
HETATM    9  C   UNL     1       8.106  32.288  61.859  1.00  0.00     0.037 A 
HETATM   10  C   UNL     1       9.542  32.185  61.410  1.00  0.00     0.070 C 
HETATM   11  H   UNL     1       8.734  32.914  63.729  1.00  0.00     0.184 HD
ENDROOT
BRANCH   1  12
HETATM   12  C   UNL     1       7.215  31.632  59.649  1.00  0.00     0.256 C 
HETATM   13  N   UNL     1       7.510  30.300  59.466  1.00  0.00    -0.323 N 
HETATM   14  H   UNL     1       7.674  29.742  60.291  1.00  0.00     0.169 HD
HETATM   15  O   UNL     1       7.095  32.506  58.802  1.00  0.00    -0.267 OA
BRANCH  13  16
HETATM   16  C   UNL     1       7.645  29.613  58.233  1.00  0.00     0.041 A 
HETATM   17  C   UNL     1       8.891  29.651  57.564  1.00  0.00    -0.035 A 
HETATM   18  C   UNL     1      10.084  30.388  58.113  1.00  0.00     0.050 C 
HETATM   19  C   UNL     1       9.042  28.964  56.345  1.00  0.00     0.009 A 
HETATM   20  C   UNL     1       7.983  28.251  55.789  1.00  0.00     0.001 A 
HETATM   21  C   UNL     1       6.761  28.212  56.447  1.00  0.00     0.002 A 
HETATM   22  C   UNL     1       6.595  28.887  57.659  1.00  0.00     0.030 A 
ENDBRANCH  13  16
ENDBRANCH   1  12
BRANCH   2  23
HETATM   23  C   UNL     1       4.713  32.992  60.720  1.00  0.00    -0.011 A 
HETATM   24  C   UNL     1       3.721  32.405  59.934  1.00  0.00     0.125 A 
HETATM   25  N   UNL     1       2.894  33.089  59.115  1.00  0.00    -0.272 NA
HETATM   26  C   UNL     1       3.044  34.430  59.081  1.00  0.00     0.116 A 
HETATM   27  C   UNL     1       3.980  35.116  59.834  1.00  0.00     0.020 A 
HETATM   28  C   UNL     1       4.823  34.386  60.668  1.00  0.00     0.012 A 
ENDBRANCH   2  23
TORSDOF 3
ENDMDL
MODEL 3
REMARK VINA RESULT:      -8.6      1.930      4.110
REMARK  3 active torsions:
REMARK  status: ('A' for Active; 'I' for Inactive)
REMARK    1  A    between atoms: C_3  and  N_4 
REMARK       I    between atoms: N_4  and  C_5 
REMARK    2  A    between atoms: C_5  and  C_6 
REMARK    3  A    between atoms: C_7  and  C_8 
ROOT
HETATM    1  C   UNL     1       6.350  26.651  56.539  1.00  0.00     0.062 A 
HETATM    2  C   UNL     1       5.448  27.778  56.047  1.00  0.00     0.199 A 
HETATM    3  N   UNL     1       5.816  29.051  56.663  1.00  0.00    -0.092 N 
HETATM    4  C   UNL     1       6.811  29.209  57.587  1.00  0.00     0.735 A 
HETATM    5  N   UNL     1       7.557  28.144  57.939  1.00  0.00    -0.191 N 
HETATM    6  N   UNL     1       5.114  30.188  56.541  1.00  0.00     0.012 NA
HETATM    7  N   UNL     1       5.748  31.057  57.323  1.00  0.00     0.033 NA
HETATM    8  N   UNL     1       6.805  30.457  57.985  1.00  0.00     0.030 NA
HETATM    9  C   UNL     1       7.350  26.866  57.430  1.00  0.00     0.037 A 
HETATM   10  C   UNL     1       8.279  25.794  57.944  1.00  0.00     0.070 C 
HETATM   11  H   UNL     1       8.309  28.267  58.613  1.00  0.00     0.184 HD
ENDROOT
BRANCH   1  12
HETATM   12  C   UNL     1       6.168  25.318  55.909  1.00  0.00     0.256 C 
HETATM   13  N   UNL     1       7.328  24.831  55.348  1.00  0.00    -0.323 N 
HETATM   14  H   UNL     1       8.128  25.445  55.327  1.00  0.00     0.169 HD
HETATM   15  O   UNL     1       5.062  24.797  55.938  1.00  0.00    -0.267 OA
BRANCH  13  16
HETATM   16  C   UNL     1       7.525  23.557  54.757  1.00  0.00     0.041 A 
HETATM   17  C   UNL     1       7.679  23.472  53.354  1.00  0.00    -0.035 A 
HETATM   18  C   UNL     1       7.647  24.684  52.461  1.00  0.00     0.050 C 
HETATM   19  C   UNL     1       7.887  22.215  52.757  1.00  0.00     0.009 A 
HETATM   20  C   UNL     1       7.942  21.056  53.527  1.00  0.00     0.001 A 
HETATM   21  C   UNL     1       7.794  21.139  54.905  1.00  0.00     0.002 A 
HETATM   22  C   UNL     1       7.588  22.380  55.514  1.00  0.00     0.030 A 
ENDBRANCH  13  16
ENDBRANCH   1  12
BRANCH   2  23
HETATM   23  C   UNL     1       5.391  27.921  54.540  1.00  0.00    -0.011 A 
HETATM   24  C   UNL     1       6.561  28.156  53.818  1.00  0.00     0.125 A 
HETATM   25  N   UNL     1       6.611  28.319  52.479  1.00  0.00    -0.272 NA
HETATM   26  C   UNL     1       5.441  28.229  51.812  1.00  0.00     0.116 A 
HETATM   27  C   UNL     1       4.226  27.978  52.425  1.00  0.00     0.020 A 
HETATM   28  C   UNL     1       4.203  27.818  53.808  1.00  0.00     0.012 A 
ENDBRANCH   2  23
TORSDOF 3
ENDMDL
MODEL 4
REMARK VINA RESULT:      -8.4      1.669      3.972
REMARK  3 active torsions:
REMARK  status: ('A' for Active; 'I' for Inactive)
REMARK    1  A    between atoms: C_3  and  N_4 
REMARK       I    between atoms: N_4  and  C_5 
REMARK    2  A    between atoms: C_5  and  C_6 
REMARK    3  A    between atoms: C_7  and  C_8 
ROOT
HETATM    1  C   UNL     1       6.580  27.884  54.501  1.00  0.00     0.062 A 
HETATM    2  C   UNL     1       5.215  28.083  53.851  1.00  0.00     0.199 A 
HETATM    3  N   UNL     1       4.590  29.321  54.314  1.00  0.00    -0.092 N 
HETATM    4  C   UNL     1       5.136  30.171  55.235  1.00  0.00     0.735 A 
HETATM    5  N   UNL     1       6.358  29.902  55.735  1.00  0.00    -0.191 N 
HETATM    6  N   UNL     1       3.330  29.689  54.035  1.00  0.00     0.012 NA
HETATM    7  N   UNL     1       3.154  30.816  54.718  1.00  0.00     0.033 NA
HETATM    8  N   UNL     1       4.270  31.124  55.475  1.00  0.00     0.030 NA
HETATM    9  C   UNL     1       7.096  28.776  55.383  1.00  0.00     0.037 A 
HETATM   10  C   UNL     1       8.442  28.638  56.048  1.00  0.00     0.070 C 
HETATM   11  H   UNL     1       6.771  30.545  56.406  1.00  0.00     0.184 HD
ENDROOT
BRANCH   1  12
HETATM   12  C   UNL     1       7.386  26.725  54.037  1.00  0.00     0.256 C 
HETATM   13  N   UNL     1       7.077  25.560  54.703  1.00  0.00    -0.323 N 
HETATM   14  H   UNL     1       6.438  25.625  55.481  1.00  0.00     0.169 HD
HETATM   15  O   UNL     1       8.213  26.897  53.152  1.00  0.00    -0.267 OA
BRANCH  13  16
HETATM   16  C   UNL     1       7.585  24.262  54.441  1.00  0.00     0.041 A 
HETATM   17  C   UNL     1       8.395  23.637  55.418  1.00  0.00    -0.035 A 
HETATM   18  C   UNL     1       8.737  24.294  56.729  1.00  0.00     0.050 C 
HETATM   19  C   UNL     1       8.896  22.345  55.176  1.00  0.00     0.009 A 
HETATM   20  C   UNL     1       8.606  21.675  53.990  1.00  0.00     0.001 A 
HETATM   21  C   UNL     1       7.809  22.287  53.032  1.00  0.00     0.002 A 
HETATM   22  C   UNL     1       7.302  23.570  53.258  1.00  0.00     0.030 A 
ENDBRANCH  13  16
ENDBRANCH   1  12
BRANCH   2  23
HETATM   23  C   UNL     1       5.231  28.037  52.337  1.00  0.00    -0.011 A 
HETATM   24  C   UNL     1       5.588  29.172  51.609  1.00  0.00     0.125 A 
HETATM   25  N   UNL     1       5.611  29.236  50.260  1.00  0.00    -0.272 NA
HETATM   26  C   UNL     1       5.277  28.112  49.592  1.00  0.00     0.116 A 
HETATM   27  C   UNL     1       4.927  26.926  50.214  1.00  0.00     0.020 A 
HETATM   28  C   UNL     1       4.908  26.888  51.605  1.00  0.00     0.012 A 
ENDBRANCH   2  23
TORSDOF 3
ENDMDL
MODEL 5
REMARK VINA RESULT:      -8.4      2.116      3.167
REMARK  3 active torsions:
REMARK  status: ('A' for Active; 'I' for Inactive)
REMARK    1  A    between atoms: C_3  and  N_4 
REMARK       I    between atoms: N_4  and  C_5 
REMARK    2  A    between atoms: C_5  and  C_6 
REMARK    3  A    between atoms: C_7  and  C_8 
ROOT
HETATM    1  C   UNL     1       6.096  26.790  55.962  1.00  0.00     0.062 A 
HETATM    2  C   UNL     1       6.452  28.129  55.325  1.00  0.00     0.199 A 
HETATM    3  N   UNL     1       5.435  29.137  55.619  1.00  0.00    -0.092 N 
HETATM    4  C   UNL     1       4.295  28.905  56.336  1.00  0.00     0.735 A 
HETATM    5  N   UNL     1       4.088  27.683  56.866  1.00  0.00    -0.191 N 
HETATM    6  N   UNL     1       5.398  30.363  55.075  1.00  0.00     0.012 NA
HETATM    7  N   UNL     1       4.277  30.901  55.544  1.00  0.00     0.033 NA
HETATM    8  N   UNL     1       3.577  30.001  56.328  1.00  0.00     0.030 NA
HETATM    9  C   UNL     1       4.969  26.620  56.698  1.00  0.00     0.037 A 
HETATM   10  C   UNL     1       4.570  25.324  57.359  1.00  0.00     0.070 C 
HETATM   11  H   UNL     1       3.248  27.518  57.416  1.00  0.00     0.184 HD
ENDROOT
BRANCH   1  12
HETATM   12  C   UNL     1       7.098  25.700  55.846  1.00  0.00     0.256 C 
HETATM   13  N   UNL     1       6.684  24.680  55.019  1.00  0.00    -0.323 N 
HETATM   14  H   UNL     1       5.738  24.719  54.670  1.00  0.00     0.169 HD
HETATM   15  O   UNL     1       8.148  25.794  56.467  1.00  0.00    -0.267 OA
BRANCH  13  16
HETATM   16  C   UNL     1       7.432  23.544  54.617  1.00  0.00     0.041 A 
HETATM   17  C   UNL     1       7.906  23.476  53.287  1.00  0.00    -0.035 A 
HETATM   18  C   UNL     1       7.652  24.566  52.279  1.00  0.00     0.050 C 
HETATM   19  C   UNL     1       8.660  22.361  52.878  1.00  0.00     0.009 A 
HETATM   20  C   UNL     1       8.944  21.325  53.765  1.00  0.00     0.001 A 
HETATM   21  C   UNL     1       8.481  21.392  55.072  1.00  0.00     0.002 A 
HETATM   22  C   UNL     1       7.732  22.495  55.494  1.00  0.00     0.030 A 
ENDBRANCH  13  16
ENDBRANCH   1  12
BRANCH   2  23
HETATM   23  C   UNL     1       7.828  28.649  55.692  1.00  0.00    -0.011 A 
HETATM   24  C   UNL     1       8.765  28.904  54.691  1.00  0.00     0.125 A 
HETATM   25  N   UNL     1      10.020  29.347  54.917  1.00  0.00    -0.272 NA
HETATM   26  C   UNL     1      10.365  29.564  56.204  1.00  0.00     0.116 A 
HETATM   27  C   UNL     1       9.509  29.365  57.271  1.00  0.00     0.020 A 
HETATM   28  C   UNL     1       8.221  28.904  57.010  1.00  0.00     0.012 A 
ENDBRANCH   2  23
TORSDOF 3
ENDMDL
MODEL 6
REMARK VINA RESULT:      -8.3      9.890     11.907
REMARK  3 active torsions:
REMARK  status: ('A' for Active; 'I' for Inactive)
REMARK    1  A    between atoms: C_3  and  N_4 
REMARK       I    between atoms: N_4  and  C_5 
REMARK    2  A    between atoms: C_5  and  C_6 
REMARK    3  A    between atoms: C_7  and  C_8 
ROOT
HETATM    1  C   UNL     1       3.466  34.427  61.508  1.00  0.00     0.062 A 
HETATM    2  C   UNL     1       2.888  34.681  60.119  1.00  0.00     0.199 A 
HETATM    3  N   UNL     1       1.438  34.853  60.178  1.00  0.00    -0.092 N 
HETATM    4  C   UNL     1       0.690  34.761  61.319  1.00  0.00     0.735 A 
HETATM    5  N   UNL     1       1.309  34.546  62.497  1.00  0.00    -0.191 N 
HETATM    6  N   UNL     1       0.637  34.941  59.106  1.00  0.00     0.012 NA
HETATM    7  N   UNL     1      -0.591  34.998  59.612  1.00  0.00     0.033 NA
HETATM    8  N   UNL     1      -0.572  34.881  60.990  1.00  0.00     0.030 NA
HETATM    9  C   UNL     1       2.686  34.382  62.616  1.00  0.00     0.037 A 
HETATM   10  C   UNL     1       3.201  34.145  64.013  1.00  0.00     0.070 C 
HETATM   11  H   UNL     1       0.753  34.497  63.347  1.00  0.00     0.184 HD
ENDROOT
BRANCH   1  12
HETATM   12  C   UNL     1       4.946  34.349  61.618  1.00  0.00     0.256 C 
HETATM   13  N   UNL     1       5.435  33.087  61.363  1.00  0.00    -0.323 N 
HETATM   14  H   UNL     1       4.763  32.346  61.235  1.00  0.00     0.169 HD
HETATM   15  O   UNL     1       5.570  35.359  61.916  1.00  0.00    -0.267 OA
BRANCH  13  16
HETATM   16  C   UNL     1       6.795  32.694  61.289  1.00  0.00     0.041 A 
HETATM   17  C   UNL     1       7.513  32.495  62.490  1.00  0.00    -0.035 A 
HETATM   18  C   UNL     1       6.890  32.681  63.848  1.00  0.00     0.050 C 
HETATM   19  C   UNL     1       8.860  32.092  62.431  1.00  0.00     0.009 A 
HETATM   20  C   UNL     1       9.494  31.889  61.208  1.00  0.00     0.001 A 
HETATM   21  C   UNL     1       8.788  32.081  60.028  1.00  0.00     0.002 A 
HETATM   22  C   UNL     1       7.449  32.479  60.070  1.00  0.00     0.030 A 
ENDBRANCH  13  16
ENDBRANCH   1  12
BRANCH   2  23
HETATM   23  C   UNL     1       3.525  35.840  59.380  1.00  0.00    -0.011 A 
HETATM   24  C   UNL     1       4.162  35.621  58.158  1.00  0.00     0.125 A 
HETATM   25  N   UNL     1       4.775  36.583  57.436  1.00  0.00    -0.272 NA
HETATM   26  C   UNL     1       4.746  37.834  57.940  1.00  0.00     0.116 A 
HETATM   27  C   UNL     1       4.125  38.167  59.131  1.00  0.00     0.020 A 
HETATM   28  C   UNL     1       3.502  37.155  59.858  1.00  0.00     0.012 A 
ENDBRANCH   2  23
TORSDOF 3
ENDMDL
MODEL 7
REMARK VINA RESULT:      -8.1      2.269      5.634
REMARK  3 active torsions:
REMARK  status: ('A' for Active; 'I' for Inactive)
REMARK    1  A    between atoms: C_3  and  N_4 
REMARK       I    between atoms: N_4  and  C_5 
REMARK    2  A    between atoms: C_5  and  C_6 
REMARK    3  A    between atoms: C_7  and  C_8 
ROOT
HETATM    1  C   UNL     1       6.379  25.035  54.257  1.00  0.00     0.062 A 
HETATM    2  C   UNL     1       6.178  25.602  55.658  1.00  0.00     0.199 A 
HETATM    3  N   UNL     1       7.306  25.268  56.526  1.00  0.00    -0.092 N 
HETATM    4  C   UNL     1       8.383  24.516  56.146  1.00  0.00     0.735 A 
HETATM    5  N   UNL     1       8.464  24.077  54.875  1.00  0.00    -0.191 N 
HETATM    6  N   UNL     1       7.347  25.500  57.847  1.00  0.00     0.012 NA
HETATM    7  N   UNL     1       8.498  24.967  58.243  1.00  0.00     0.033 NA
HETATM    8  N   UNL     1       9.151  24.345  57.194  1.00  0.00     0.030 NA
HETATM    9  C   UNL     1       7.484  24.325  53.919  1.00  0.00     0.037 A 
HETATM   10  C   UNL     1       7.742  23.750  52.548  1.00  0.00     0.070 C 
HETATM   11  H   UNL     1       9.274  23.533  54.589  1.00  0.00     0.184 HD
ENDROOT
BRANCH   1  12
HETATM   12  C   UNL     1       5.365  25.394  53.232  1.00  0.00     0.256 C 
HETATM   13  N   UNL     1       5.820  26.340  52.341  1.00  0.00    -0.323 N 
HETATM   14  H   UNL     1       6.720  26.757  52.524  1.00  0.00     0.169 HD
HETATM   15  O   UNL     1       4.269  24.851  53.269  1.00  0.00    -0.267 OA
BRANCH  13  16
HETATM   16  C   UNL     1       5.147  26.830  51.192  1.00  0.00     0.041 A 
HETATM   17  C   UNL     1       4.748  28.186  51.163  1.00  0.00    -0.035 A 
HETATM   18  C   UNL     1       5.013  29.135  52.301  1.00  0.00     0.050 C 
HETATM   19  C   UNL     1       4.090  28.687  50.024  1.00  0.00     0.009 A 
HETATM   20  C   UNL     1       3.827  27.867  48.930  1.00  0.00     0.001 A 
HETATM   21  C   UNL     1       4.221  26.537  48.958  1.00  0.00     0.002 A 
HETATM   22  C   UNL     1       4.877  26.023  50.080  1.00  0.00     0.030 A 
ENDBRANCH  13  16
ENDBRANCH   1  12
BRANCH   2  23
HETATM   23  C   UNL     1       5.909  27.092  55.697  1.00  0.00    -0.011 A 
HETATM   24  C   UNL     1       6.942  27.994  55.443  1.00  0.00     0.125 A 
HETATM   25  N   UNL     1       6.807  29.337  55.474  1.00  0.00    -0.272 NA
HETATM   26  C   UNL     1       5.579  29.817  55.760  1.00  0.00     0.116 A 
HETATM   27  C   UNL     1       4.479  29.014  56.007  1.00  0.00     0.020 A 
HETATM   28  C   UNL     1       4.647  27.633  55.972  1.00  0.00     0.012 A 
ENDBRANCH   2  23
TORSDOF 3
ENDMDL
MODEL 8
REMARK VINA RESULT:      -8.0      2.307      4.566
REMARK  3 active torsions:
REMARK  status: ('A' for Active; 'I' for Inactive)
REMARK    1  A    between atoms: C_3  and  N_4 
REMARK       I    between atoms: N_4  and  C_5 
REMARK    2  A    between atoms: C_5  and  C_6 
REMARK    3  A    between atoms: C_7  and  C_8 
ROOT
HETATM    1  C   UNL     1       6.477  28.686  55.956  1.00  0.00     0.062 A 
HETATM    2  C   UNL     1       4.967  28.881  55.879  1.00  0.00     0.199 A 
HETATM    3  N   UNL     1       4.524  29.920  56.808  1.00  0.00    -0.092 N 
HETATM    4  C   UNL     1       5.346  30.601  57.661  1.00  0.00     0.735 A 
HETATM    5  N   UNL     1       6.671  30.357  57.635  1.00  0.00    -0.191 N 
HETATM    6  N   UNL     1       3.240  30.209  57.072  1.00  0.00     0.012 NA
HETATM    7  N   UNL     1       3.297  31.137  58.022  1.00  0.00     0.033 NA
HETATM    8  N   UNL     1       4.604  31.386  58.403  1.00  0.00     0.030 NA
HETATM    9  C   UNL     1       7.256  29.415  56.795  1.00  0.00     0.037 A 
HETATM   10  C   UNL     1       8.753  29.274  56.906  1.00  0.00     0.070 C 
HETATM   11  H   UNL     1       7.283  30.878  58.257  1.00  0.00     0.184 HD
ENDROOT
BRANCH   1  12
HETATM   12  C   UNL     1       7.086  27.743  54.982  1.00  0.00     0.256 C 
HETATM   13  N   UNL     1       6.980  26.428  55.376  1.00  0.00    -0.323 N 
HETATM   14  H   UNL     1       6.609  26.247  56.297  1.00  0.00     0.169 HD
HETATM   15  O   UNL     1       7.606  28.193  53.971  1.00  0.00    -0.267 OA
BRANCH  13  16
HETATM   16  C   UNL     1       7.365  25.279  54.640  1.00  0.00     0.041 A 
HETATM   17  C   UNL     1       8.105  24.267  55.294  1.00  0.00    -0.035 A 
HETATM   18  C   UNL     1       8.496  24.358  56.745  1.00  0.00     0.050 C 
HETATM   19  C   UNL     1       8.483  23.116  54.578  1.00  0.00     0.009 A 
HETATM   20  C   UNL     1       8.142  22.962  53.237  1.00  0.00     0.001 A 
HETATM   21  C   UNL     1       7.413  23.954  52.595  1.00  0.00     0.002 A 
HETATM   22  C   UNL     1       7.027  25.103  53.293  1.00  0.00     0.030 A 
ENDBRANCH  13  16
ENDBRANCH   1  12
BRANCH   2  23
HETATM   23  C   UNL     1       4.443  29.165  54.486  1.00  0.00    -0.011 A 
HETATM   24  C   UNL     1       4.533  30.453  53.957  1.00  0.00     0.125 A 
HETATM   25  N   UNL     1       4.077  30.809  52.737  1.00  0.00    -0.272 NA
HETATM   26  C   UNL     1       3.513  29.837  51.991  1.00  0.00     0.116 A 
HETATM   27  C   UNL     1       3.391  28.523  52.409  1.00  0.00     0.020 A 
HETATM   28  C   UNL     1       3.866  28.183  53.672  1.00  0.00     0.012 A 
ENDBRANCH   2  23
TORSDOF 3
ENDMDL
MODEL 9
REMARK VINA RESULT:      -8.0      2.354      6.981
REMARK  3 active torsions:
REMARK  status: ('A' for Active; 'I' for Inactive)
REMARK    1  A    between atoms: C_3  and  N_4 
REMARK       I    between atoms: N_4  and  C_5 
REMARK    2  A    between atoms: C_5  and  C_6 
REMARK    3  A    between atoms: C_7  and  C_8 
ROOT
HETATM    1  C   UNL     1       7.705  25.684  55.540  1.00  0.00     0.062 A 
HETATM    2  C   UNL     1       7.945  24.991  54.202  1.00  0.00     0.199 A 
HETATM    3  N   UNL     1       8.298  23.585  54.396  1.00  0.00    -0.092 N 
HETATM    4  C   UNL     1       8.432  22.978  55.613  1.00  0.00     0.735 A 
HETATM    5  N   UNL     1       8.180  23.685  56.733  1.00  0.00    -0.191 N 
HETATM    6  N   UNL     1       8.710  22.762  53.420  1.00  0.00     0.012 NA
HETATM    7  N   UNL     1       9.002  21.625  54.045  1.00  0.00     0.033 NA
HETATM    8  N   UNL     1       8.838  21.749  55.414  1.00  0.00     0.030 NA
HETATM    9  C   UNL     1       7.814  25.027  56.721  1.00  0.00     0.037 A 
HETATM   10  C   UNL     1       7.578  25.656  58.071  1.00  0.00     0.070 C 
HETATM   11  H   UNL     1       8.263  23.226  57.637  1.00  0.00     0.184 HD
ENDROOT
BRANCH   1  12
HETATM   12  C   UNL     1       7.223  27.089  55.494  1.00  0.00     0.256 C 
HETATM   13  N   UNL     1       5.919  27.220  55.915  1.00  0.00    -0.323 N 
HETATM   14  H   UNL     1       5.405  26.372  56.105  1.00  0.00     0.169 HD
HETATM   15  O   UNL     1       7.986  27.962  55.103  1.00  0.00    -0.267 OA
BRANCH  13  16
HETATM   16  C   UNL     1       5.190  28.424  56.086  1.00  0.00     0.041 A 
HETATM   17  C   UNL     1       4.393  28.896  55.017  1.00  0.00    -0.035 A 
HETATM   18  C   UNL     1       4.285  28.168  53.704  1.00  0.00     0.050 C 
HETATM   19  C   UNL     1       3.655  30.083  55.178  1.00  0.00     0.009 A 
HETATM   20  C   UNL     1       3.700  30.798  56.372  1.00  0.00     0.001 A 
HETATM   21  C   UNL     1       4.479  30.333  57.423  1.00  0.00     0.002 A 
HETATM   22  C   UNL     1       5.217  29.154  57.280  1.00  0.00     0.030 A 
ENDBRANCH  13  16
ENDBRANCH   1  12
BRANCH   2  23
HETATM   23  C   UNL     1       6.800  25.114  53.219  1.00  0.00    -0.011 A 
HETATM   24  C   UNL     1       6.982  25.803  52.020  1.00  0.00     0.125 A 
HETATM   25  N   UNL     1       6.019  25.985  51.091  1.00  0.00    -0.272 NA
HETATM   26  C   UNL     1       4.811  25.445  51.355  1.00  0.00     0.116 A 
HETATM   27  C   UNL     1       4.526  24.725  52.501  1.00  0.00     0.020 A 
HETATM   28  C   UNL     1       5.537  24.555  53.444  1.00  0.00     0.012 A 
ENDBRANCH   2  23
TORSDOF 3
ENDMDL
MODEL 10
REMARK VINA RESULT:      -7.9      1.985      2.682
REMARK  3 active torsions:
REMARK  status: ('A' for Active; 'I' for Inactive)
REMARK    1  A    between atoms: C_3  and  N_4 
REMARK       I    between atoms: N_4  and  C_5 
REMARK    2  A    between atoms: C_5  and  C_6 
REMARK    3  A    between atoms: C_7  and  C_8 
ROOT
HETATM    1  C   UNL     1       5.773  25.871  53.129  1.00  0.00     0.062 A 
HETATM    2  C   UNL     1       6.249  27.308  53.316  1.00  0.00     0.199 A 
HETATM    3  N   UNL     1       5.847  28.144  52.186  1.00  0.00    -0.092 N 
HETATM    4  C   UNL     1       5.169  27.694  51.088  1.00  0.00     0.735 A 
HETATM    5  N   UNL     1       4.784  26.404  51.035  1.00  0.00    -0.191 N 
HETATM    6  N   UNL     1       6.247  29.411  51.996  1.00  0.00     0.012 NA
HETATM    7  N   UNL     1       5.725  29.752  50.821  1.00  0.00     0.033 NA
HETATM    8  N   UNL     1       5.056  28.689  50.242  1.00  0.00     0.030 NA
HETATM    9  C   UNL     1       5.069  25.481  52.037  1.00  0.00     0.037 A 
HETATM   10  C   UNL     1       4.564  24.080  51.804  1.00  0.00     0.070 C 
HETATM   11  H   UNL     1       4.263  26.075  50.226  1.00  0.00     0.184 HD
ENDROOT
BRANCH   1  12
HETATM   12  C   UNL     1       6.008  24.931  54.255  1.00  0.00     0.256 C 
HETATM   13  N   UNL     1       7.032  24.045  54.006  1.00  0.00    -0.323 N 
HETATM   14  H   UNL     1       7.437  24.050  53.082  1.00  0.00     0.169 HD
HETATM   15  O   UNL     1       5.305  25.017  55.253  1.00  0.00    -0.267 OA
BRANCH  13  16
HETATM   16  C   UNL     1       7.574  23.088  54.901  1.00  0.00     0.041 A 
HETATM   17  C   UNL     1       7.918  21.809  54.405  1.00  0.00    -0.035 A 
HETATM   18  C   UNL     1       7.736  21.424  52.960  1.00  0.00     0.050 C 
HETATM   19  C   UNL     1       8.468  20.854  55.279  1.00  0.00     0.009 A 
HETATM   20  C   UNL     1       8.676  21.150  56.624  1.00  0.00     0.001 A 
HETATM   21  C   UNL     1       8.341  22.406  57.111  1.00  0.00     0.002 A 
HETATM   22  C   UNL     1       7.796  23.367  56.255  1.00  0.00     0.030 A 
ENDBRANCH  13  16
ENDBRANCH   1  12
BRANCH   2  23
HETATM   23  C   UNL     1       5.817  27.945  54.621  1.00  0.00    -0.011 A 
HETATM   24  C   UNL     1       6.766  28.244  55.598  1.00  0.00     0.125 A 
HETATM   25  N   UNL     1       6.478  28.791  56.798  1.00  0.00    -0.272 NA
HETATM   26  C   UNL     1       5.181  29.073  57.042  1.00  0.00     0.116 A 
HETATM   27  C   UNL     1       4.162  28.837  56.137  1.00  0.00     0.020 A 
HETATM   28  C   UNL     1       4.486  28.269  54.908  1.00  0.00     0.012 A 
ENDBRANCH   2  23
TORSDOF 3
ENDMDL
