MODEL 1
REMARK VINA RESULT:     -10.5      0.000      0.000
REMARK  3 active torsions:
REMARK  status: ('A' for Active; 'I' for Inactive)
REMARK    1  A    between atoms: C_5  and  C_6 
REMARK       I    between atoms: C_6  and  N_7 
REMARK    2  A    between atoms: N_7  and  C_8 
REMARK    3  A    between atoms: C_13  and  C_14 
ROOT
HETATM    1  C   UNL     1       5.430  26.224  54.336  1.00  0.00     0.137 A 
HETATM    2  N   UNL     1       4.409  26.206  53.418  1.00  0.00    -0.262 N 
HETATM    3  H   UNL     1       3.975  25.378  53.017  1.00  0.00     0.191 HD
HETATM    4  N   UNL     1       3.961  27.432  53.080  1.00  0.00    -0.185 NA
HETATM    5  C   UNL     1       4.748  28.251  53.783  1.00  0.00     0.155 A 
HETATM    6  C   UNL     1       5.695  27.559  54.573  1.00  0.00     0.039 A 
ENDROOT
BRANCH   1   7
HETATM    7  N   UNL     1       6.002  25.084  54.873  1.00  0.00    -0.307 N 
HETATM    8  C   UNL     1       7.231  24.610  54.451  1.00  0.00     0.258 C 
HETATM    9  O   UNL     1       7.911  25.134  53.571  1.00  0.00    -0.267 OA
HETATM   10  H   UNL     1       5.456  24.557  55.545  1.00  0.00     0.170 HD
BRANCH   8  11
HETATM   11  C   UNL     1       7.693  23.348  55.081  1.00  0.00     0.044 A 
HETATM   12  C   UNL     1       7.965  22.169  54.343  1.00  0.00     0.008 A 
HETATM   13  C   UNL     1       8.447  21.054  55.039  1.00  0.00     0.043 A 
HETATM   14  C   UNL     1       7.845  21.762  52.978  1.00  0.00     0.032 A 
HETATM   15  C   UNL     1       8.640  21.046  56.427  1.00  0.00     0.030 A 
HETATM   16  N   UNL     1       8.660  20.049  54.121  1.00  0.00    -0.365 N 
HETATM   17  C   UNL     1       8.326  22.205  57.136  1.00  0.00     0.003 A 
HETATM   18  C   UNL     1       7.859  23.339  56.478  1.00  0.00     0.018 A 
HETATM   19  H   UNL     1       9.014  19.130  54.351  1.00  0.00     0.165 HD
HETATM   20  C   UNL     1       8.296  20.467  52.872  1.00  0.00     0.089 A 
ENDBRANCH   8  11
ENDBRANCH   1   7
BRANCH   6  21
HETATM   21  C   UNL     1       6.730  28.067  55.448  1.00  0.00    -0.018 A 
HETATM   22  C   UNL     1       7.870  28.675  54.904  1.00  0.00     0.052 A 
HETATM   23  C   UNL     1       8.835  29.134  55.775  1.00  0.00     0.105 A 
HETATM   24  C   UNL     1       8.695  29.021  57.137  1.00  0.00     0.105 A 
HETATM   25  O   UNL     1      10.002  29.734  55.420  1.00  0.00    -0.323 OA
HETATM   26  O   UNL     1       9.756  29.536  57.812  1.00  0.00    -0.323 OA
HETATM   27  C   UNL     1       7.581  28.442  57.706  1.00  0.00     0.040 A 
HETATM   28  C   UNL     1      10.579  29.992  56.718  1.00  0.00     0.352 A 
HETATM   29  C   UNL     1       6.585  27.962  56.847  1.00  0.00     0.015 A 
ENDBRANCH   6  21
TORSDOF 3
ENDMDL
MODEL 2
REMARK VINA RESULT:     -10.4      0.862      1.921
REMARK  3 active torsions:
REMARK  status: ('A' for Active; 'I' for Inactive)
REMARK    1  A    between atoms: C_5  and  C_6 
REMARK       I    between atoms: C_6  and  N_7 
REMARK    2  A    between atoms: N_7  and  C_8 
REMARK    3  A    between atoms: C_13  and  C_14 
ROOT
HETATM    1  C   UNL     1       5.203  26.475  53.986  1.00  0.00     0.137 A 
HETATM    2  N   UNL     1       4.092  26.619  53.192  1.00  0.00    -0.262 N 
HETATM    3  H   UNL     1       3.620  25.879  52.677  1.00  0.00     0.191 HD
HETATM    4  N   UNL     1       3.609  27.877  53.158  1.00  0.00    -0.185 NA
HETATM    5  C   UNL     1       4.462  28.555  53.930  1.00  0.00     0.155 A 
HETATM    6  C   UNL     1       5.487  27.740  54.463  1.00  0.00     0.039 A 
ENDROOT
BRANCH   1   7
HETATM    7  N   UNL     1       5.829  25.262  54.220  1.00  0.00    -0.307 N 
HETATM    8  C   UNL     1       6.994  24.901  53.567  1.00  0.00     0.258 C 
HETATM    9  O   UNL     1       7.563  25.596  52.728  1.00  0.00    -0.267 OA
HETATM   10  H   UNL     1       5.367  24.607  54.839  1.00  0.00     0.170 HD
BRANCH   8  11
HETATM   11  C   UNL     1       7.522  23.550  53.881  1.00  0.00     0.044 A 
HETATM   12  C   UNL     1       7.893  23.147  55.189  1.00  0.00     0.008 A 
HETATM   13  C   UNL     1       8.329  21.830  55.373  1.00  0.00     0.043 A 
HETATM   14  C   UNL     1       7.979  23.775  56.469  1.00  0.00     0.032 A 
HETATM   15  C   UNL     1       8.443  20.910  54.321  1.00  0.00     0.030 A 
HETATM   16  N   UNL     1       8.604  21.665  56.712  1.00  0.00    -0.365 N 
HETATM   17  C   UNL     1       8.113  21.343  53.037  1.00  0.00     0.003 A 
HETATM   18  C   UNL     1       7.660  22.641  52.816  1.00  0.00     0.018 A 
HETATM   19  H   UNL     1       8.933  20.803  57.127  1.00  0.00     0.165 HD
HETATM   20  C   UNL     1       8.398  22.836  57.383  1.00  0.00     0.089 A 
ENDBRANCH   8  11
ENDBRANCH   1   7
BRANCH   6  21
HETATM   21  C   UNL     1       6.606  28.084  55.314  1.00  0.00    -0.018 A 
HETATM   22  C   UNL     1       7.724  28.735  54.772  1.00  0.00     0.052 A 
HETATM   23  C   UNL     1       8.770  29.033  55.618  1.00  0.00     0.105 A 
HETATM   24  C   UNL     1       8.732  28.722  56.956  1.00  0.00     0.105 A 
HETATM   25  O   UNL     1       9.929  29.647  55.259  1.00  0.00    -0.323 OA
HETATM   26  O   UNL     1       9.862  29.103  57.609  1.00  0.00    -0.323 OA
HETATM   27  C   UNL     1       7.644  28.096  57.525  1.00  0.00     0.040 A 
HETATM   28  C   UNL     1      10.614  29.694  56.528  1.00  0.00     0.352 A 
HETATM   29  C   UNL     1       6.566  27.776  56.691  1.00  0.00     0.015 A 
ENDBRANCH   6  21
TORSDOF 3
ENDMDL
MODEL 3
REMARK VINA RESULT:     -10.0      1.821      2.805
REMARK  3 active torsions:
REMARK  status: ('A' for Active; 'I' for Inactive)
REMARK    1  A    between atoms: C_5  and  C_6 
REMARK       I    between atoms: C_6  and  N_7 
REMARK    2  A    between atoms: N_7  and  C_8 
REMARK    3  A    between atoms: C_13  and  C_14 
ROOT
HETATM    1  C   UNL     1       5.849  25.944  52.071  1.00  0.00     0.137 A 
HETATM    2  N   UNL     1       5.630  25.960  50.715  1.00  0.00    -0.262 N 
HETATM    3  H   UNL     1       5.742  25.174  50.079  1.00  0.00     0.191 HD
HETATM    4  N   UNL     1       5.195  27.147  50.249  1.00  0.00    -0.185 NA
HETATM    5  C   UNL     1       5.170  27.916  51.341  1.00  0.00     0.155 A 
HETATM    6  C   UNL     1       5.582  27.228  52.506  1.00  0.00     0.039 A 
ENDROOT
BRANCH   1   7
HETATM    7  N   UNL     1       6.237  24.817  52.774  1.00  0.00    -0.307 N 
HETATM    8  C   UNL     1       7.529  24.327  52.721  1.00  0.00     0.258 C 
HETATM    9  O   UNL     1       8.432  24.824  52.050  1.00  0.00    -0.267 OA
HETATM   10  H   UNL     1       5.521  24.311  53.283  1.00  0.00     0.170 HD
BRANCH   8  11
HETATM   11  C   UNL     1       7.785  23.082  53.487  1.00  0.00     0.044 A 
HETATM   12  C   UNL     1       8.019  23.066  54.885  1.00  0.00     0.008 A 
HETATM   13  C   UNL     1       8.196  21.826  55.509  1.00  0.00     0.043 A 
HETATM   14  C   UNL     1       8.166  24.050  55.911  1.00  0.00     0.032 A 
HETATM   15  C   UNL     1       8.182  20.611  54.809  1.00  0.00     0.030 A 
HETATM   16  N   UNL     1       8.380  22.057  56.854  1.00  0.00    -0.365 N 
HETATM   17  C   UNL     1       7.991  20.656  53.428  1.00  0.00     0.003 A 
HETATM   18  C   UNL     1       7.797  21.869  52.774  1.00  0.00     0.018 A 
HETATM   19  H   UNL     1       8.526  21.333  57.545  1.00  0.00     0.165 HD
HETATM   20  C   UNL     1       8.366  23.399  57.107  1.00  0.00     0.089 A 
ENDBRANCH   8  11
ENDBRANCH   1   7
BRANCH   6  21
HETATM   21  C   UNL     1       5.719  27.697  53.868  1.00  0.00    -0.018 A 
HETATM   22  C   UNL     1       6.988  27.769  54.461  1.00  0.00     0.052 A 
HETATM   23  C   UNL     1       7.068  28.212  55.764  1.00  0.00     0.105 A 
HETATM   24  C   UNL     1       5.952  28.588  56.472  1.00  0.00     0.105 A 
HETATM   25  O   UNL     1       8.211  28.330  56.491  1.00  0.00    -0.323 OA
HETATM   26  O   UNL     1       6.252  28.992  57.734  1.00  0.00    -0.323 OA
HETATM   27  C   UNL     1       4.691  28.544  55.916  1.00  0.00     0.040 A 
HETATM   28  C   UNL     1       7.686  28.832  57.738  1.00  0.00     0.352 A 
HETATM   29  C   UNL     1       4.576  28.094  54.595  1.00  0.00     0.015 A 
ENDBRANCH   6  21
TORSDOF 3
ENDMDL
MODEL 4
REMARK VINA RESULT:      -9.4      1.673      2.176
REMARK  3 active torsions:
REMARK  status: ('A' for Active; 'I' for Inactive)
REMARK    1  A    between atoms: C_5  and  C_6 
REMARK       I    between atoms: C_6  and  N_7 
REMARK    2  A    between atoms: N_7  and  C_8 
REMARK    3  A    between atoms: C_13  and  C_14 
ROOT
HETATM    1  C   UNL     1       5.633  26.041  52.527  1.00  0.00     0.137 A 
HETATM    2  N   UNL     1       5.443  25.789  51.190  1.00  0.00    -0.262 N 
HETATM    3  H   UNL     1       5.649  24.917  50.708  1.00  0.00     0.191 HD
HETATM    4  N   UNL     1       4.899  26.820  50.515  1.00  0.00    -0.185 NA
HETATM    5  C   UNL     1       4.771  27.766  51.449  1.00  0.00     0.155 A 
HETATM    6  C   UNL     1       5.227  27.348  52.720  1.00  0.00     0.039 A 
ENDROOT
BRANCH   1   7
HETATM    7  N   UNL     1       6.119  25.107  53.425  1.00  0.00    -0.307 N 
HETATM    8  C   UNL     1       7.427  24.660  53.382  1.00  0.00     0.258 C 
HETATM    9  O   UNL     1       8.260  25.028  52.556  1.00  0.00    -0.267 OA
HETATM   10  H   UNL     1       5.463  24.700  54.081  1.00  0.00     0.170 HD
BRANCH   8  11
HETATM   11  C   UNL     1       7.792  23.619  54.376  1.00  0.00     0.044 A 
HETATM   12  C   UNL     1       8.066  22.274  54.022  1.00  0.00     0.008 A 
HETATM   13  C   UNL     1       8.452  21.392  55.039  1.00  0.00     0.043 A 
HETATM   14  C   UNL     1       8.026  21.500  52.822  1.00  0.00     0.032 A 
HETATM   15  C   UNL     1       8.547  21.774  56.384  1.00  0.00     0.030 A 
HETATM   16  N   UNL     1       8.688  20.165  54.460  1.00  0.00    -0.365 N 
HETATM   17  C   UNL     1       8.231  23.093  56.712  1.00  0.00     0.003 A 
HETATM   18  C   UNL     1       7.859  24.003  55.727  1.00  0.00     0.018 A 
HETATM   19  H   UNL     1       8.987  19.342  54.966  1.00  0.00     0.165 HD
HETATM   20  C   UNL     1       8.430  20.219  53.120  1.00  0.00     0.089 A 
ENDBRANCH   8  11
ENDBRANCH   1   7
BRANCH   6  21
HETATM   21  C   UNL     1       5.284  28.067  53.975  1.00  0.00    -0.018 A 
HETATM   22  C   UNL     1       6.526  28.402  54.533  1.00  0.00     0.052 A 
HETATM   23  C   UNL     1       6.533  29.078  55.734  1.00  0.00     0.105 A 
HETATM   24  C   UNL     1       5.369  29.432  56.373  1.00  0.00     0.105 A 
HETATM   25  O   UNL     1       7.642  29.468  56.419  1.00  0.00    -0.323 OA
HETATM   26  O   UNL     1       5.598  30.091  57.540  1.00  0.00    -0.323 OA
HETATM   27  C   UNL     1       4.131  29.131  55.846  1.00  0.00     0.040 A 
HETATM   28  C   UNL     1       7.041  30.115  57.560  1.00  0.00     0.352 A 
HETATM   29  C   UNL     1       4.091  28.442  54.629  1.00  0.00     0.015 A 
ENDBRANCH   6  21
TORSDOF 3
ENDMDL
MODEL 5
REMARK VINA RESULT:      -9.4      5.044      9.185
REMARK  3 active torsions:
REMARK  status: ('A' for Active; 'I' for Inactive)
REMARK    1  A    between atoms: C_5  and  C_6 
REMARK       I    between atoms: C_6  and  N_7 
REMARK    2  A    between atoms: N_7  and  C_8 
REMARK    3  A    between atoms: C_13  and  C_14 
ROOT
HETATM    1  C   UNL     1       9.652  30.110  58.315  1.00  0.00     0.137 A 
HETATM    2  N   UNL     1      10.930  30.548  58.067  1.00  0.00    -0.262 N 
HETATM    3  H   UNL     1      11.457  31.213  58.628  1.00  0.00     0.191 HD
HETATM    4  N   UNL     1      11.497  29.983  56.983  1.00  0.00    -0.185 NA
HETATM    5  C   UNL     1      10.534  29.185  56.513  1.00  0.00     0.155 A 
HETATM    6  C   UNL     1       9.354  29.233  57.290  1.00  0.00     0.039 A 
ENDROOT
BRANCH   1   7
HETATM    7  N   UNL     1       8.902  30.507  59.409  1.00  0.00    -0.307 N 
HETATM    8  C   UNL     1       8.832  31.829  59.810  1.00  0.00     0.258 C 
HETATM    9  O   UNL     1       9.427  32.753  59.259  1.00  0.00    -0.267 OA
HETATM   10  H   UNL     1       8.452  29.783  59.958  1.00  0.00     0.170 HD
BRANCH   8  11
HETATM   11  C   UNL     1       8.030  32.097  61.030  1.00  0.00     0.044 A 
HETATM   12  C   UNL     1       6.623  32.269  61.009  1.00  0.00     0.008 A 
HETATM   13  C   UNL     1       5.966  32.464  62.230  1.00  0.00     0.043 A 
HETATM   14  C   UNL     1       5.612  32.333  60.001  1.00  0.00     0.032 A 
HETATM   15  C   UNL     1       6.640  32.526  63.457  1.00  0.00     0.030 A 
HETATM   16  N   UNL     1       4.619  32.579  61.965  1.00  0.00    -0.365 N 
HETATM   17  C   UNL     1       8.029  32.396  63.447  1.00  0.00     0.003 A 
HETATM   18  C   UNL     1       8.716  32.185  62.255  1.00  0.00     0.018 A 
HETATM   19  H   UNL     1       3.908  32.722  62.670  1.00  0.00     0.165 HD
HETATM   20  C   UNL     1       4.396  32.505  60.620  1.00  0.00     0.089 A 
ENDBRANCH   8  11
ENDBRANCH   1   7
BRANCH   6  21
HETATM   21  C   UNL     1       8.090  28.551  57.112  1.00  0.00    -0.018 A 
HETATM   22  C   UNL     1       7.986  27.182  57.401  1.00  0.00     0.052 A 
HETATM   23  C   UNL     1       6.766  26.572  57.206  1.00  0.00     0.105 A 
HETATM   24  C   UNL     1       5.670  27.268  56.756  1.00  0.00     0.105 A 
HETATM   25  O   UNL     1       6.494  25.257  57.424  1.00  0.00    -0.323 OA
HETATM   26  O   UNL     1       4.570  26.480  56.634  1.00  0.00    -0.323 OA
HETATM   27  C   UNL     1       5.733  28.616  56.476  1.00  0.00     0.040 A 
HETATM   28  C   UNL     1       5.097  25.208  57.065  1.00  0.00     0.352 A 
HETATM   29  C   UNL     1       6.960  29.264  56.660  1.00  0.00     0.015 A 
ENDBRANCH   6  21
TORSDOF 3
ENDMDL
MODEL 6
REMARK VINA RESULT:      -9.3      2.746      6.998
REMARK  3 active torsions:
REMARK  status: ('A' for Active; 'I' for Inactive)
REMARK    1  A    between atoms: C_5  and  C_6 
REMARK       I    between atoms: C_6  and  N_7 
REMARK    2  A    between atoms: N_7  and  C_8 
REMARK    3  A    between atoms: C_13  and  C_14 
ROOT
HETATM    1  C   UNL     1       6.821  26.615  56.144  1.00  0.00     0.137 A 
HETATM    2  N   UNL     1       7.056  27.326  57.295  1.00  0.00    -0.262 N 
HETATM    3  H   UNL     1       6.652  28.227  57.538  1.00  0.00     0.191 HD
HETATM    4  N   UNL     1       7.881  26.703  58.159  1.00  0.00    -0.185 NA
HETATM    5  C   UNL     1       8.203  25.576  57.518  1.00  0.00     0.155 A 
HETATM    6  C   UNL     1       7.588  25.471  56.250  1.00  0.00     0.039 A 
ENDROOT
BRANCH   1   7
HETATM    7  N   UNL     1       5.958  27.032  55.145  1.00  0.00    -0.307 N 
HETATM    8  C   UNL     1       6.330  27.966  54.196  1.00  0.00     0.258 C 
HETATM    9  O   UNL     1       7.430  28.515  54.157  1.00  0.00    -0.267 OA
HETATM   10  H   UNL     1       5.007  26.680  55.169  1.00  0.00     0.170 HD
BRANCH   8  11
HETATM   11  C   UNL     1       5.283  28.354  53.219  1.00  0.00     0.044 A 
HETATM   12  C   UNL     1       5.049  27.646  52.013  1.00  0.00     0.008 A 
HETATM   13  C   UNL     1       3.998  28.073  51.193  1.00  0.00     0.043 A 
HETATM   14  C   UNL     1       5.659  26.547  51.334  1.00  0.00     0.032 A 
HETATM   15  C   UNL     1       3.193  29.180  51.498  1.00  0.00     0.030 A 
HETATM   16  N   UNL     1       3.948  27.229  50.105  1.00  0.00    -0.365 N 
HETATM   17  C   UNL     1       3.470  29.885  52.669  1.00  0.00     0.003 A 
HETATM   18  C   UNL     1       4.497  29.482  53.518  1.00  0.00     0.018 A 
HETATM   19  H   UNL     1       3.276  27.304  49.353  1.00  0.00     0.165 HD
HETATM   20  C   UNL     1       4.950  26.305  50.180  1.00  0.00     0.089 A 
ENDBRANCH   8  11
ENDBRANCH   1   7
BRANCH   6  21
HETATM   21  C   UNL     1       7.692  24.435  55.245  1.00  0.00    -0.018 A 
HETATM   22  C   UNL     1       7.628  23.085  55.621  1.00  0.00     0.052 A 
HETATM   23  C   UNL     1       7.743  22.133  54.630  1.00  0.00     0.105 A 
HETATM   24  C   UNL     1       7.901  22.476  53.309  1.00  0.00     0.105 A 
HETATM   25  O   UNL     1       7.716  20.786  54.819  1.00  0.00    -0.323 OA
HETATM   26  O   UNL     1       7.993  21.389  52.499  1.00  0.00    -0.323 OA
HETATM   27  C   UNL     1       7.953  23.792  52.903  1.00  0.00     0.040 A 
HETATM   28  C   UNL     1       7.868  20.321  53.462  1.00  0.00     0.352 A 
HETATM   29  C   UNL     1       7.844  24.783  53.886  1.00  0.00     0.015 A 
ENDBRANCH   6  21
TORSDOF 3
ENDMDL
MODEL 7
REMARK VINA RESULT:      -9.2      5.122      9.373
REMARK  3 active torsions:
REMARK  status: ('A' for Active; 'I' for Inactive)
REMARK    1  A    between atoms: C_5  and  C_6 
REMARK       I    between atoms: C_6  and  N_7 
REMARK    2  A    between atoms: N_7  and  C_8 
REMARK    3  A    between atoms: C_13  and  C_14 
ROOT
HETATM    1  C   UNL     1       9.417  30.294  58.009  1.00  0.00     0.137 A 
HETATM    2  N   UNL     1      10.668  30.855  58.074  1.00  0.00    -0.262 N 
HETATM    3  H   UNL     1      10.951  31.626  58.675  1.00  0.00     0.191 HD
HETATM    4  N   UNL     1      11.571  30.265  57.267  1.00  0.00    -0.185 NA
HETATM    5  C   UNL     1      10.858  29.320  56.647  1.00  0.00     0.155 A 
HETATM    6  C   UNL     1       9.505  29.299  57.055  1.00  0.00     0.039 A 
ENDROOT
BRANCH   1   7
HETATM    7  N   UNL     1       8.351  30.696  58.795  1.00  0.00    -0.307 N 
HETATM    8  C   UNL     1       8.357  31.898  59.481  1.00  0.00     0.258 C 
HETATM    9  O   UNL     1       9.291  32.697  59.471  1.00  0.00    -0.267 OA
HETATM   10  H   UNL     1       7.582  30.047  58.912  1.00  0.00     0.170 HD
BRANCH   8  11
HETATM   11  C   UNL     1       7.167  32.172  60.323  1.00  0.00     0.044 A 
HETATM   12  C   UNL     1       7.242  32.393  61.722  1.00  0.00     0.008 A 
HETATM   13  C   UNL     1       6.058  32.694  62.405  1.00  0.00     0.043 A 
HETATM   14  C   UNL     1       8.273  32.359  62.712  1.00  0.00     0.032 A 
HETATM   15  C   UNL     1       4.808  32.757  61.775  1.00  0.00     0.030 A 
HETATM   16  N   UNL     1       6.380  32.891  63.730  1.00  0.00    -0.365 N 
HETATM   17  C   UNL     1       4.754  32.495  60.405  1.00  0.00     0.003 A 
HETATM   18  C   UNL     1       5.912  32.206  59.689  1.00  0.00     0.018 A 
HETATM   19  H   UNL     1       5.712  33.129  64.452  1.00  0.00     0.165 HD
HETATM   20  C   UNL     1       7.716  32.688  63.926  1.00  0.00     0.089 A 
ENDBRANCH   8  11
ENDBRANCH   1   7
BRANCH   6  21
HETATM   21  C   UNL     1       8.411  28.458  56.616  1.00  0.00    -0.018 A 
HETATM   22  C   UNL     1       8.014  27.362  57.396  1.00  0.00     0.052 A 
HETATM   23  C   UNL     1       6.974  26.584  56.933  1.00  0.00     0.105 A 
HETATM   24  C   UNL     1       6.327  26.865  55.754  1.00  0.00     0.105 A 
HETATM   25  O   UNL     1       6.473  25.482  57.553  1.00  0.00    -0.323 OA
HETATM   26  O   UNL     1       5.335  25.976  55.483  1.00  0.00    -0.323 OA
HETATM   27  C   UNL     1       6.681  27.942  54.971  1.00  0.00     0.040 A 
HETATM   28  C   UNL     1       5.428  25.106  56.631  1.00  0.00     0.352 A 
HETATM   29  C   UNL     1       7.736  28.749  55.411  1.00  0.00     0.015 A 
ENDBRANCH   6  21
TORSDOF 3
ENDMDL
MODEL 8
REMARK VINA RESULT:      -9.1      5.051      9.278
REMARK  3 active torsions:
REMARK  status: ('A' for Active; 'I' for Inactive)
REMARK    1  A    between atoms: C_5  and  C_6 
REMARK       I    between atoms: C_6  and  N_7 
REMARK    2  A    between atoms: N_7  and  C_8 
REMARK    3  A    between atoms: C_13  and  C_14 
ROOT
HETATM    1  C   UNL     1       9.444  30.268  57.983  1.00  0.00     0.137 A 
HETATM    2  N   UNL     1      10.692  30.837  58.054  1.00  0.00    -0.262 N 
HETATM    3  H   UNL     1      10.966  31.613  58.652  1.00  0.00     0.191 HD
HETATM    4  N   UNL     1      11.604  30.245  57.257  1.00  0.00    -0.185 NA
HETATM    5  C   UNL     1      10.901  29.293  56.638  1.00  0.00     0.155 A 
HETATM    6  C   UNL     1       9.544  29.267  57.036  1.00  0.00     0.039 A 
ENDROOT
BRANCH   1   7
HETATM    7  N   UNL     1       8.370  30.671  58.758  1.00  0.00    -0.307 N 
HETATM    8  C   UNL     1       8.366  31.876  59.436  1.00  0.00     0.258 C 
HETATM    9  O   UNL     1       9.297  32.679  59.430  1.00  0.00    -0.267 OA
HETATM   10  H   UNL     1       7.603  30.018  58.873  1.00  0.00     0.170 HD
BRANCH   8  11
HETATM   11  C   UNL     1       7.168  32.150  60.268  1.00  0.00     0.044 A 
HETATM   12  C   UNL     1       7.231  32.375  61.667  1.00  0.00     0.008 A 
HETATM   13  C   UNL     1       6.040  32.676  62.339  1.00  0.00     0.043 A 
HETATM   14  C   UNL     1       8.253  32.346  62.665  1.00  0.00     0.032 A 
HETATM   15  C   UNL     1       4.796  32.734  61.697  1.00  0.00     0.030 A 
HETATM   16  N   UNL     1       6.350  32.877  63.666  1.00  0.00    -0.365 N 
HETATM   17  C   UNL     1       4.754  32.468  60.328  1.00  0.00     0.003 A 
HETATM   18  C   UNL     1       5.919  32.180  59.623  1.00  0.00     0.018 A 
HETATM   19  H   UNL     1       5.676  33.116  64.381  1.00  0.00     0.165 HD
HETATM   20  C   UNL     1       7.685  32.677  63.874  1.00  0.00     0.089 A 
ENDBRANCH   8  11
ENDBRANCH   1   7
BRANCH   6  21
HETATM   21  C   UNL     1       8.458  28.418  56.594  1.00  0.00    -0.018 A 
HETATM   22  C   UNL     1       7.782  28.710  55.401  1.00  0.00     0.052 A 
HETATM   23  C   UNL     1       6.747  27.880  55.026  1.00  0.00     0.105 A 
HETATM   24  C   UNL     1       6.384  26.789  55.777  1.00  0.00     0.105 A 
HETATM   25  O   UNL     1       5.981  28.024  53.912  1.00  0.00    -0.323 OA
HETATM   26  O   UNL     1       5.344  26.106  55.230  1.00  0.00    -0.323 OA
HETATM   27  C   UNL     1       7.036  26.464  56.947  1.00  0.00     0.040 A 
HETATM   28  C   UNL     1       5.097  26.891  54.044  1.00  0.00     0.352 A 
HETATM   29  C   UNL     1       8.089  27.290  57.357  1.00  0.00     0.015 A 
ENDBRANCH   6  21
TORSDOF 3
ENDMDL
MODEL 9
REMARK VINA RESULT:      -9.0      3.423      7.598
REMARK  3 active torsions:
REMARK  status: ('A' for Active; 'I' for Inactive)
REMARK    1  A    between atoms: C_5  and  C_6 
REMARK       I    between atoms: C_6  and  N_7 
REMARK    2  A    between atoms: N_7  and  C_8 
REMARK    3  A    between atoms: C_13  and  C_14 
ROOT
HETATM    1  C   UNL     1       6.220  27.561  53.794  1.00  0.00     0.137 A 
HETATM    2  N   UNL     1       6.293  28.784  54.412  1.00  0.00    -0.262 N 
HETATM    3  H   UNL     1       5.802  29.630  54.132  1.00  0.00     0.191 HD
HETATM    4  N   UNL     1       7.079  28.793  55.507  1.00  0.00    -0.185 NA
HETATM    5  C   UNL     1       7.543  27.542  55.563  1.00  0.00     0.155 A 
HETATM    6  C   UNL     1       7.057  26.730  54.513  1.00  0.00     0.039 A 
ENDROOT
BRANCH   1   7
HETATM    7  N   UNL     1       5.424  27.303  52.691  1.00  0.00    -0.307 N 
HETATM    8  C   UNL     1       5.392  28.147  51.596  1.00  0.00     0.258 C 
HETATM    9  O   UNL     1       6.037  29.190  51.504  1.00  0.00    -0.267 OA
HETATM   10  H   UNL     1       4.804  26.502  52.736  1.00  0.00     0.170 HD
BRANCH   8  11
HETATM   11  C   UNL     1       4.453  27.769  50.510  1.00  0.00     0.044 A 
HETATM   12  C   UNL     1       3.291  28.518  50.195  1.00  0.00     0.008 A 
HETATM   13  C   UNL     1       2.508  28.094  49.114  1.00  0.00     0.043 A 
HETATM   14  C   UNL     1       2.629  29.661  50.738  1.00  0.00     0.032 A 
HETATM   15  C   UNL     1       2.807  26.952  48.358  1.00  0.00     0.030 A 
HETATM   16  N   UNL     1       1.462  28.980  48.984  1.00  0.00    -0.365 N 
HETATM   17  C   UNL     1       3.932  26.209  48.714  1.00  0.00     0.003 A 
HETATM   18  C   UNL     1       4.744  26.607  49.772  1.00  0.00     0.018 A 
HETATM   19  H   UNL     1       0.742  28.915  48.277  1.00  0.00     0.165 HD
HETATM   20  C   UNL     1       1.524  29.930  49.964  1.00  0.00     0.089 A 
ENDBRANCH   8  11
ENDBRANCH   1   7
BRANCH   6  21
HETATM   21  C   UNL     1       7.332  25.343  54.201  1.00  0.00    -0.018 A 
HETATM   22  C   UNL     1       7.216  24.365  55.200  1.00  0.00     0.052 A 
HETATM   23  C   UNL     1       7.498  23.059  54.861  1.00  0.00     0.105 A 
HETATM   24  C   UNL     1       7.869  22.705  53.586  1.00  0.00     0.105 A 
HETATM   25  O   UNL     1       7.450  21.993  55.704  1.00  0.00    -0.323 OA
HETATM   26  O   UNL     1       8.099  21.371  53.465  1.00  0.00    -0.323 OA
HETATM   27  C   UNL     1       7.978  23.638  52.577  1.00  0.00     0.040 A 
HETATM   28  C   UNL     1       7.825  20.925  54.810  1.00  0.00     0.352 A 
HETATM   29  C   UNL     1       7.702  24.974  52.891  1.00  0.00     0.015 A 
ENDBRANCH   6  21
TORSDOF 3
ENDMDL
MODEL 10
REMARK VINA RESULT:      -9.0      2.658      7.144
REMARK  3 active torsions:
REMARK  status: ('A' for Active; 'I' for Inactive)
REMARK    1  A    between atoms: C_5  and  C_6 
REMARK       I    between atoms: C_6  and  N_7 
REMARK    2  A    between atoms: N_7  and  C_8 
REMARK    3  A    between atoms: C_13  and  C_14 
ROOT
HETATM    1  C   UNL     1       7.190  26.062  55.927  1.00  0.00     0.137 A 
HETATM    2  N   UNL     1       7.335  27.104  56.809  1.00  0.00    -0.262 N 
HETATM    3  H   UNL     1       6.985  28.051  56.684  1.00  0.00     0.191 HD
HETATM    4  N   UNL     1       7.983  26.770  57.943  1.00  0.00    -0.185 NA
HETATM    5  C   UNL     1       8.285  25.482  57.756  1.00  0.00     0.155 A 
HETATM    6  C   UNL     1       7.832  24.987  56.512  1.00  0.00     0.039 A 
ENDROOT
BRANCH   1   7
HETATM    7  N   UNL     1       6.504  26.158  54.728  1.00  0.00    -0.307 N 
HETATM    8  C   UNL     1       6.824  27.107  53.774  1.00  0.00     0.258 C 
HETATM    9  O   UNL     1       7.715  27.946  53.901  1.00  0.00    -0.267 OA
HETATM   10  H   UNL     1       5.705  25.550  54.595  1.00  0.00     0.170 HD
BRANCH   8  11
HETATM   11  C   UNL     1       5.969  27.124  52.562  1.00  0.00     0.044 A 
HETATM   12  C   UNL     1       5.060  28.172  52.269  1.00  0.00     0.008 A 
HETATM   13  C   UNL     1       4.344  28.106  51.068  1.00  0.00     0.043 A 
HETATM   14  C   UNL     1       4.615  29.358  52.930  1.00  0.00     0.032 A 
HETATM   15  C   UNL     1       4.465  27.041  50.165  1.00  0.00     0.030 A 
HETATM   16  N   UNL     1       3.554  29.232  50.991  1.00  0.00    -0.365 N 
HETATM   17  C   UNL     1       5.335  26.002  50.495  1.00  0.00     0.003 A 
HETATM   18  C   UNL     1       6.076  26.039  51.673  1.00  0.00     0.018 A 
HETATM   19  H   UNL     1       2.934  29.444  50.220  1.00  0.00     0.165 HD
HETATM   20  C   UNL     1       3.708  29.994  52.114  1.00  0.00     0.089 A 
ENDBRANCH   8  11
ENDBRANCH   1   7
BRANCH   6  21
HETATM   21  C   UNL     1       7.974  23.673  55.922  1.00  0.00    -0.018 A 
HETATM   22  C   UNL     1       7.888  23.516  54.531  1.00  0.00     0.052 A 
HETATM   23  C   UNL     1       8.019  22.245  54.015  1.00  0.00     0.105 A 
HETATM   24  C   UNL     1       8.240  21.155  54.822  1.00  0.00     0.105 A 
HETATM   25  O   UNL     1       7.949  21.913  52.698  1.00  0.00    -0.323 OA
HETATM   26  O   UNL     1       8.339  19.998  54.114  1.00  0.00    -0.323 OA
HETATM   27  C   UNL     1       8.345  21.274  56.191  1.00  0.00     0.040 A 
HETATM   28  C   UNL     1       8.160  20.487  52.768  1.00  0.00     0.352 A 
HETATM   29  C   UNL     1       8.212  22.552  56.746  1.00  0.00     0.015 A 
ENDBRANCH   6  21
TORSDOF 3
ENDMDL
