MODEL 1
REMARK VINA RESULT:      -9.0      0.000      0.000
REMARK  3 active torsions:
REMARK  status: ('A' for Active; 'I' for Inactive)
REMARK    1  A    between atoms: C_3  and  N_4 
REMARK       I    between atoms: N_4  and  C_5 
REMARK    2  A    between atoms: C_5  and  C_6 
REMARK    3  A    between atoms: C_6  and  C_7 
ROOT
HETATM    1  C   UNL     1       7.454  26.520  56.078  1.00  0.00     0.286 C 
HETATM    2  N   UNL     1       8.182  27.390  57.097  1.00  0.00    -0.056 N 
HETATM    3  H   UNL     1       7.560  27.429  57.933  1.00  0.00     0.278 HD
HETATM    4  H   UNL     1       9.047  26.934  57.409  1.00  0.00     0.278 HD
HETATM    5  C   UNL     1       8.452  28.778  56.574  1.00  0.00     0.209 C 
HETATM    6  C   UNL     1       7.104  29.448  56.198  1.00  0.00     0.115 C 
HETATM    7  N   UNL     1       6.280  28.590  55.346  1.00  0.00    -0.353 N 
HETATM    8  C   UNL     1       6.229  27.221  55.449  1.00  0.00     0.249 C 
HETATM    9  O   UNL     1       5.288  26.603  54.964  1.00  0.00    -0.271 OA
HETATM   10  C   UNL     1       9.239  29.570  57.616  1.00  0.00     0.035 C 
HETATM   11  C   UNL     1       8.401  29.974  58.826  1.00  0.00     0.002 C 
HETATM   12  C   UNL     1       7.133  30.708  58.405  1.00  0.00     0.002 C 
HETATM   13  C   UNL     1       6.299  29.878  57.434  1.00  0.00     0.027 C 
HETATM   14  H   UNL     1       5.451  28.995  54.916  1.00  0.00     0.163 HD
ENDROOT
BRANCH   1  15
HETATM   15  C   UNL     1       7.077  25.161  56.678  1.00  0.00     0.146 C 
BRANCH  15  16
HETATM   16  C   UNL     1       8.318  24.442  57.150  1.00  0.00     0.224 C 
HETATM   17  N   UNL     1       8.783  23.328  56.527  1.00  0.00    -0.327 N 
HETATM   18  H   UNL     1       9.478  22.833  57.077  1.00  0.00     0.169 HD
HETATM   19  O   UNL     1       8.905  24.880  58.150  1.00  0.00    -0.273 OA
BRANCH  17  20
HETATM   20  C   UNL     1       8.424  22.718  55.307  1.00  0.00     0.040 A 
HETATM   21  C   UNL     1       8.194  21.325  55.290  1.00  0.00    -0.035 A 
HETATM   22  C   UNL     1       8.273  20.476  56.531  1.00  0.00     0.050 C 
HETATM   23  C   UNL     1       7.868  20.695  54.075  1.00  0.00     0.009 A 
HETATM   24  C   UNL     1       7.775  21.425  52.894  1.00  0.00     0.001 A 
HETATM   25  C   UNL     1       8.025  22.791  52.907  1.00  0.00     0.002 A 
HETATM   26  C   UNL     1       8.355  23.432  54.104  1.00  0.00     0.030 A 
ENDBRANCH  17  20
ENDBRANCH  15  16
ENDBRANCH   1  15
TORSDOF 3
ENDMDL
MODEL 2
REMARK VINA RESULT:      -8.8      1.294      1.714
REMARK  3 active torsions:
REMARK  status: ('A' for Active; 'I' for Inactive)
REMARK    1  A    between atoms: C_3  and  N_4 
REMARK       I    between atoms: N_4  and  C_5 
REMARK    2  A    between atoms: C_5  and  C_6 
REMARK    3  A    between atoms: C_6  and  C_7 
ROOT
HETATM    1  C   UNL     1       6.690  26.168  55.768  1.00  0.00     0.286 C 
HETATM    2  N   UNL     1       6.655  27.426  56.629  1.00  0.00    -0.056 N 
HETATM    3  H   UNL     1       5.822  27.324  57.247  1.00  0.00     0.278 HD
HETATM    4  H   UNL     1       7.469  27.458  57.254  1.00  0.00     0.278 HD
HETATM    5  C   UNL     1       6.549  28.682  55.801  1.00  0.00     0.209 C 
HETATM    6  C   UNL     1       5.260  28.614  54.942  1.00  0.00     0.115 C 
HETATM    7  N   UNL     1       5.150  27.352  54.210  1.00  0.00    -0.353 N 
HETATM    8  C   UNL     1       5.579  26.139  54.694  1.00  0.00     0.249 C 
HETATM    9  O   UNL     1       5.156  25.097  54.205  1.00  0.00    -0.271 OA
HETATM   10  C   UNL     1       6.589  29.901  56.721  1.00  0.00     0.035 C 
HETATM   11  C   UNL     1       5.308  30.088  57.528  1.00  0.00     0.002 C 
HETATM   12  C   UNL     1       4.079  30.104  56.627  1.00  0.00     0.002 C 
HETATM   13  C   UNL     1       3.989  28.843  55.775  1.00  0.00     0.027 C 
HETATM   14  H   UNL     1       4.426  27.270  53.499  1.00  0.00     0.163 HD
ENDROOT
BRANCH   1  15
HETATM   15  C   UNL     1       6.666  24.903  56.634  1.00  0.00     0.146 C 
BRANCH  15  16
HETATM   16  C   UNL     1       8.072  24.520  57.028  1.00  0.00     0.224 C 
HETATM   17  N   UNL     1       8.730  23.492  56.429  1.00  0.00    -0.327 N 
HETATM   18  H   UNL     1       9.562  23.210  56.939  1.00  0.00     0.169 HD
HETATM   19  O   UNL     1       8.620  25.155  57.940  1.00  0.00    -0.273 OA
BRANCH  17  20
HETATM   20  C   UNL     1       8.425  22.723  55.287  1.00  0.00     0.040 A 
HETATM   21  C   UNL     1       8.298  21.325  55.429  1.00  0.00    -0.035 A 
HETATM   22  C   UNL     1       8.430  20.630  56.758  1.00  0.00     0.050 C 
HETATM   23  C   UNL     1       8.028  20.539  54.294  1.00  0.00     0.009 A 
HETATM   24  C   UNL     1       7.891  21.121  53.037  1.00  0.00     0.001 A 
HETATM   25  C   UNL     1       8.040  22.494  52.895  1.00  0.00     0.002 A 
HETATM   26  C   UNL     1       8.313  23.289  54.011  1.00  0.00     0.030 A 
ENDBRANCH  17  20
ENDBRANCH  15  16
ENDBRANCH   1  15
TORSDOF 3
ENDMDL
MODEL 3
REMARK VINA RESULT:      -8.7      2.171      2.790
REMARK  3 active torsions:
REMARK  status: ('A' for Active; 'I' for Inactive)
REMARK    1  A    between atoms: C_3  and  N_4 
REMARK       I    between atoms: N_4  and  C_5 
REMARK    2  A    between atoms: C_5  and  C_6 
REMARK    3  A    between atoms: C_6  and  C_7 
ROOT
HETATM    1  C   UNL     1       6.717  26.477  53.762  1.00  0.00     0.286 C 
HETATM    2  N   UNL     1       7.589  26.916  54.932  1.00  0.00    -0.056 N 
HETATM    3  H   UNL     1       7.159  26.492  55.782  1.00  0.00     0.278 HD
HETATM    4  H   UNL     1       8.528  26.508  54.856  1.00  0.00     0.278 HD
HETATM    5  C   UNL     1       7.653  28.417  55.065  1.00  0.00     0.209 C 
HETATM    6  C   UNL     1       6.217  28.969  55.261  1.00  0.00     0.115 C 
HETATM    7  N   UNL     1       5.286  28.453  54.258  1.00  0.00    -0.353 N 
HETATM    8  C   UNL     1       5.344  27.185  53.731  1.00  0.00     0.249 C 
HETATM    9  O   UNL     1       4.362  26.704  53.177  1.00  0.00    -0.271 OA
HETATM   10  C   UNL     1       8.595  28.786  56.210  1.00  0.00     0.035 C 
HETATM   11  C   UNL     1       8.011  28.490  57.589  1.00  0.00     0.002 C 
HETATM   12  C   UNL     1       6.639  29.131  57.762  1.00  0.00     0.002 C 
HETATM   13  C   UNL     1       5.670  28.690  56.670  1.00  0.00     0.027 C 
HETATM   14  H   UNL     1       4.360  28.873  54.201  1.00  0.00     0.163 HD
ENDROOT
BRANCH   1  15
HETATM   15  C   UNL     1       6.563  24.952  53.727  1.00  0.00     0.146 C 
BRANCH  15  16
HETATM   16  C   UNL     1       7.607  24.348  52.818  1.00  0.00     0.224 C 
HETATM   17  N   UNL     1       8.415  23.336  53.228  1.00  0.00    -0.327 N 
HETATM   18  H   UNL     1       9.202  23.187  52.604  1.00  0.00     0.169 HD
HETATM   19  O   UNL     1       7.732  24.815  51.678  1.00  0.00    -0.273 OA
BRANCH  17  20
HETATM   20  C   UNL     1       8.388  22.522  54.380  1.00  0.00     0.040 A 
HETATM   21  C   UNL     1       8.200  21.132  54.220  1.00  0.00    -0.035 A 
HETATM   22  C   UNL     1       8.072  20.482  52.868  1.00  0.00     0.050 C 
HETATM   23  C   UNL     1       8.137  20.310  55.360  1.00  0.00     0.009 A 
HETATM   24  C   UNL     1       8.252  20.850  56.638  1.00  0.00     0.001 A 
HETATM   25  C   UNL     1       8.413  22.220  56.795  1.00  0.00     0.002 A 
HETATM   26  C   UNL     1       8.473  23.052  55.673  1.00  0.00     0.030 A 
ENDBRANCH  17  20
ENDBRANCH  15  16
ENDBRANCH   1  15
TORSDOF 3
ENDMDL
MODEL 4
REMARK VINA RESULT:      -8.6      2.618      4.195
REMARK  3 active torsions:
REMARK  status: ('A' for Active; 'I' for Inactive)
REMARK    1  A    between atoms: C_3  and  N_4 
REMARK       I    between atoms: N_4  and  C_5 
REMARK    2  A    between atoms: C_5  and  C_6 
REMARK    3  A    between atoms: C_6  and  C_7 
ROOT
HETATM    1  C   UNL     1       5.375  25.434  55.915  1.00  0.00     0.286 C 
HETATM    2  N   UNL     1       5.661  25.038  54.471  1.00  0.00    -0.056 N 
HETATM    3  H   UNL     1       6.597  25.440  54.247  1.00  0.00     0.278 HD
HETATM    4  H   UNL     1       5.764  24.020  54.390  1.00  0.00     0.278 HD
HETATM    5  C   UNL     1       4.618  25.562  53.517  1.00  0.00     0.209 C 
HETATM    6  C   UNL     1       4.567  27.109  53.624  1.00  0.00     0.115 C 
HETATM    7  N   UNL     1       4.456  27.563  55.010  1.00  0.00    -0.353 N 
HETATM    8  C   UNL     1       5.052  26.936  56.078  1.00  0.00     0.249 C 
HETATM    9  O   UNL     1       5.213  27.539  57.133  1.00  0.00    -0.271 OA
HETATM   10  C   UNL     1       4.929  25.072  52.104  1.00  0.00     0.035 C 
HETATM   11  C   UNL     1       6.136  25.766  51.478  1.00  0.00     0.002 C 
HETATM   12  C   UNL     1       5.993  27.283  51.528  1.00  0.00     0.002 C 
HETATM   13  C   UNL     1       5.774  27.782  52.952  1.00  0.00     0.027 C 
HETATM   14  H   UNL     1       4.257  28.547  55.178  1.00  0.00     0.163 HD
ENDROOT
BRANCH   1  15
HETATM   15  C   UNL     1       6.515  25.002  56.845  1.00  0.00     0.146 C 
BRANCH  15  16
HETATM   16  C   UNL     1       7.848  25.285  56.194  1.00  0.00     0.224 C 
HETATM   17  N   UNL     1       8.666  24.286  55.770  1.00  0.00    -0.327 N 
HETATM   18  H   UNL     1       9.606  24.611  55.564  1.00  0.00     0.169 HD
HETATM   19  O   UNL     1       8.202  26.466  56.072  1.00  0.00    -0.273 OA
BRANCH  17  20
HETATM   20  C   UNL     1       8.458  22.897  55.636  1.00  0.00     0.040 A 
HETATM   21  C   UNL     1       8.211  22.373  54.349  1.00  0.00    -0.035 A 
HETATM   22  C   UNL     1       8.207  23.231  53.112  1.00  0.00     0.050 C 
HETATM   23  C   UNL     1       7.968  20.995  54.201  1.00  0.00     0.009 A 
HETATM   24  C   UNL     1       7.962  20.148  55.306  1.00  0.00     0.001 A 
HETATM   25  C   UNL     1       8.181  20.669  56.574  1.00  0.00     0.002 A 
HETATM   26  C   UNL     1       8.420  22.036  56.739  1.00  0.00     0.030 A 
ENDBRANCH  17  20
ENDBRANCH  15  16
ENDBRANCH   1  15
TORSDOF 3
ENDMDL
MODEL 5
REMARK VINA RESULT:      -8.6      1.226      7.042
REMARK  3 active torsions:
REMARK  status: ('A' for Active; 'I' for Inactive)
REMARK    1  A    between atoms: C_3  and  N_4 
REMARK       I    between atoms: N_4  and  C_5 
REMARK    2  A    between atoms: C_5  and  C_6 
REMARK    3  A    between atoms: C_6  and  C_7 
ROOT
HETATM    1  C   UNL     1       7.231  25.044  55.187  1.00  0.00     0.286 C 
HETATM    2  N   UNL     1       7.158  23.758  54.371  1.00  0.00    -0.056 N 
HETATM    3  H   UNL     1       6.495  23.136  54.881  1.00  0.00     0.278 HD
HETATM    4  H   UNL     1       6.732  23.936  53.455  1.00  0.00     0.278 HD
HETATM    5  C   UNL     1       8.504  23.094  54.230  1.00  0.00     0.209 C 
HETATM    6  C   UNL     1       9.061  22.774  55.643  1.00  0.00     0.115 C 
HETATM    7  N   UNL     1       9.007  23.934  56.532  1.00  0.00    -0.353 N 
HETATM    8  C   UNL     1       8.008  24.877  56.512  1.00  0.00     0.249 C 
HETATM    9  O   UNL     1       7.832  25.607  57.481  1.00  0.00    -0.271 OA
HETATM   10  C   UNL     1       8.369  21.854  53.349  1.00  0.00     0.035 C 
HETATM   11  C   UNL     1       7.650  20.699  54.039  1.00  0.00     0.002 C 
HETATM   12  C   UNL     1       8.293  20.366  55.381  1.00  0.00     0.002 C 
HETATM   13  C   UNL     1       8.344  21.583  56.298  1.00  0.00     0.027 C 
HETATM   14  H   UNL     1       9.490  23.876  57.427  1.00  0.00     0.163 HD
ENDROOT
BRANCH   1  15
HETATM   15  C   UNL     1       5.834  25.629  55.425  1.00  0.00     0.146 C 
BRANCH  15  16
HETATM   16  C   UNL     1       5.599  26.800  54.500  1.00  0.00     0.224 C 
HETATM   17  N   UNL     1       6.066  28.044  54.785  1.00  0.00    -0.327 N 
HETATM   18  H   UNL     1       5.648  28.761  54.200  1.00  0.00     0.169 HD
HETATM   19  O   UNL     1       4.940  26.608  53.469  1.00  0.00    -0.273 OA
BRANCH  17  20
HETATM   20  C   UNL     1       6.957  28.507  55.775  1.00  0.00     0.040 A 
HETATM   21  C   UNL     1       6.426  28.981  56.993  1.00  0.00    -0.035 A 
HETATM   22  C   UNL     1       4.950  28.968  57.294  1.00  0.00     0.050 C 
HETATM   23  C   UNL     1       7.299  29.477  57.979  1.00  0.00     0.009 A 
HETATM   24  C   UNL     1       8.673  29.512  57.764  1.00  0.00     0.001 A 
HETATM   25  C   UNL     1       9.193  29.068  56.555  1.00  0.00     0.002 A 
HETATM   26  C   UNL     1       8.340  28.576  55.564  1.00  0.00     0.030 A 
ENDBRANCH  17  20
ENDBRANCH  15  16
ENDBRANCH   1  15
TORSDOF 3
ENDMDL
MODEL 6
REMARK VINA RESULT:      -8.2      1.816      2.973
REMARK  3 active torsions:
REMARK  status: ('A' for Active; 'I' for Inactive)
REMARK    1  A    between atoms: C_3  and  N_4 
REMARK       I    between atoms: N_4  and  C_5 
REMARK    2  A    between atoms: C_5  and  C_6 
REMARK    3  A    between atoms: C_6  and  C_7 
ROOT
HETATM    1  C   UNL     1       5.674  25.943  54.958  1.00  0.00     0.286 C 
HETATM    2  N   UNL     1       6.449  27.248  54.823  1.00  0.00    -0.056 N 
HETATM    3  H   UNL     1       7.441  26.973  54.656  1.00  0.00     0.278 HD
HETATM    4  H   UNL     1       6.152  27.760  53.985  1.00  0.00     0.278 HD
HETATM    5  C   UNL     1       6.341  28.107  56.058  1.00  0.00     0.209 C 
HETATM    6  C   UNL     1       6.881  27.313  57.276  1.00  0.00     0.115 C 
HETATM    7  N   UNL     1       6.292  25.977  57.369  1.00  0.00    -0.353 N 
HETATM    8  C   UNL     1       5.959  25.202  56.284  1.00  0.00     0.249 C 
HETATM    9  O   UNL     1       5.804  23.994  56.416  1.00  0.00    -0.271 OA
HETATM   10  C   UNL     1       7.082  29.423  55.828  1.00  0.00     0.035 C 
HETATM   11  C   UNL     1       8.600  29.267  55.829  1.00  0.00     0.002 C 
HETATM   12  C   UNL     1       9.086  28.561  57.089  1.00  0.00     0.002 C 
HETATM   13  C   UNL     1       8.414  27.205  57.270  1.00  0.00     0.027 C 
HETATM   14  H   UNL     1       6.458  25.437  58.216  1.00  0.00     0.163 HD
ENDROOT
BRANCH   1  15
HETATM   15  C   UNL     1       5.906  25.032  53.746  1.00  0.00     0.146 C 
BRANCH  15  16
HETATM   16  C   UNL     1       7.297  25.244  53.200  1.00  0.00     0.224 C 
HETATM   17  N   UNL     1       8.274  24.311  53.342  1.00  0.00    -0.327 N 
HETATM   18  H   UNL     1       9.198  24.676  53.130  1.00  0.00     0.169 HD
HETATM   19  O   UNL     1       7.545  26.315  52.628  1.00  0.00    -0.273 OA
BRANCH  17  20
HETATM   20  C   UNL     1       8.235  22.974  53.790  1.00  0.00     0.040 A 
HETATM   21  C   UNL     1       8.690  22.685  55.094  1.00  0.00    -0.035 A 
HETATM   22  C   UNL     1       9.172  23.753  56.039  1.00  0.00     0.050 C 
HETATM   23  C   UNL     1       8.689  21.352  55.545  1.00  0.00     0.009 A 
HETATM   24  C   UNL     1       8.252  20.319  54.721  1.00  0.00     0.001 A 
HETATM   25  C   UNL     1       7.827  20.602  53.430  1.00  0.00     0.002 A 
HETATM   26  C   UNL     1       7.826  21.919  52.964  1.00  0.00     0.030 A 
ENDBRANCH  17  20
ENDBRANCH  15  16
ENDBRANCH   1  15
TORSDOF 3
ENDMDL
MODEL 7
REMARK VINA RESULT:      -8.2      2.553      6.978
REMARK  3 active torsions:
REMARK  status: ('A' for Active; 'I' for Inactive)
REMARK    1  A    between atoms: C_3  and  N_4 
REMARK       I    between atoms: N_4  and  C_5 
REMARK    2  A    between atoms: C_5  and  C_6 
REMARK    3  A    between atoms: C_6  and  C_7 
ROOT
HETATM    1  C   UNL     1       5.535  27.534  55.470  1.00  0.00     0.286 C 
HETATM    2  N   UNL     1       6.541  26.389  55.452  1.00  0.00    -0.056 N 
HETATM    3  H   UNL     1       7.300  26.689  54.803  1.00  0.00     0.278 HD
HETATM    4  H   UNL     1       6.983  26.282  56.373  1.00  0.00     0.278 HD
HETATM    5  C   UNL     1       5.926  25.094  54.985  1.00  0.00     0.209 C 
HETATM    6  C   UNL     1       5.351  25.293  53.558  1.00  0.00     0.115 C 
HETATM    7  N   UNL     1       4.499  26.478  53.467  1.00  0.00    -0.353 N 
HETATM    8  C   UNL     1       4.720  27.644  54.162  1.00  0.00     0.249 C 
HETATM    9  O   UNL     1       4.196  28.689  53.792  1.00  0.00    -0.271 OA
HETATM   10  C   UNL     1       6.970  23.981  55.057  1.00  0.00     0.035 C 
HETATM   11  C   UNL     1       8.043  24.091  53.977  1.00  0.00     0.002 C 
HETATM   12  C   UNL     1       7.425  24.192  52.587  1.00  0.00     0.002 C 
HETATM   13  C   UNL     1       6.452  25.362  52.488  1.00  0.00     0.027 C 
HETATM   14  H   UNL     1       3.948  26.610  52.621  1.00  0.00     0.163 HD
ENDROOT
BRANCH   1  15
HETATM   15  C   UNL     1       6.213  28.863  55.822  1.00  0.00     0.146 C 
BRANCH  15  16
HETATM   16  C   UNL     1       5.965  29.201  57.273  1.00  0.00     0.224 C 
HETATM   17  N   UNL     1       6.982  29.497  58.124  1.00  0.00    -0.327 N 
HETATM   18  H   UNL     1       6.693  29.482  59.098  1.00  0.00     0.169 HD
HETATM   19  O   UNL     1       4.798  29.182  57.688  1.00  0.00    -0.273 OA
BRANCH  17  20
HETATM   20  C   UNL     1       8.351  29.747  57.898  1.00  0.00     0.040 A 
HETATM   21  C   UNL     1       8.928  30.904  58.463  1.00  0.00    -0.035 A 
HETATM   22  C   UNL     1       8.150  31.855  59.333  1.00  0.00     0.050 C 
HETATM   23  C   UNL     1      10.285  31.186  58.220  1.00  0.00     0.009 A 
HETATM   24  C   UNL     1      11.059  30.345  57.426  1.00  0.00     0.001 A 
HETATM   25  C   UNL     1      10.484  29.219  56.851  1.00  0.00     0.002 A 
HETATM   26  C   UNL     1       9.137  28.926  57.079  1.00  0.00     0.030 A 
ENDBRANCH  17  20
ENDBRANCH  15  16
ENDBRANCH   1  15
TORSDOF 3
ENDMDL
MODEL 8
REMARK VINA RESULT:      -7.9      2.352      6.974
REMARK  3 active torsions:
REMARK  status: ('A' for Active; 'I' for Inactive)
REMARK    1  A    between atoms: C_3  and  N_4 
REMARK       I    between atoms: N_4  and  C_5 
REMARK    2  A    between atoms: C_5  and  C_6 
REMARK    3  A    between atoms: C_6  and  C_7 
ROOT
HETATM    1  C   UNL     1       5.476  27.237  54.970  1.00  0.00     0.286 C 
HETATM    2  N   UNL     1       6.531  26.158  55.191  1.00  0.00    -0.056 N 
HETATM    3  H   UNL     1       7.292  26.361  54.507  1.00  0.00     0.278 HD
HETATM    4  H   UNL     1       6.954  26.252  56.121  1.00  0.00     0.278 HD
HETATM    5  C   UNL     1       5.983  24.770  54.975  1.00  0.00     0.209 C 
HETATM    6  C   UNL     1       5.434  24.662  53.528  1.00  0.00     0.115 C 
HETATM    7  N   UNL     1       4.535  25.767  53.195  1.00  0.00    -0.353 N 
HETATM    8  C   UNL     1       4.690  27.053  53.652  1.00  0.00     0.249 C 
HETATM    9  O   UNL     1       4.132  27.981  53.078  1.00  0.00    -0.271 OA
HETATM   10  C   UNL     1       7.070  23.741  55.279  1.00  0.00     0.035 C 
HETATM   11  C   UNL     1       8.163  23.689  54.216  1.00  0.00     0.002 C 
HETATM   12  C   UNL     1       7.576  23.491  52.823  1.00  0.00     0.002 C 
HETATM   13  C   UNL     1       6.557  24.573  52.482  1.00  0.00     0.027 C 
HETATM   14  H   UNL     1       4.000  25.706  52.331  1.00  0.00     0.163 HD
ENDROOT
BRANCH   1  15
HETATM   15  C   UNL     1       6.089  28.639  55.066  1.00  0.00     0.146 C 
BRANCH  15  16
HETATM   16  C   UNL     1       7.556  28.588  54.711  1.00  0.00     0.224 C 
HETATM   17  N   UNL     1       8.504  29.170  55.491  1.00  0.00    -0.327 N 
HETATM   18  H   UNL     1       9.401  29.250  55.022  1.00  0.00     0.169 HD
HETATM   19  O   UNL     1       7.885  28.016  53.662  1.00  0.00    -0.273 OA
BRANCH  17  20
HETATM   20  C   UNL     1       8.439  29.730  56.784  1.00  0.00     0.040 A 
HETATM   21  C   UNL     1       9.642  29.927  57.495  1.00  0.00    -0.035 A 
HETATM   22  C   UNL     1      10.992  29.606  56.909  1.00  0.00     0.050 C 
HETATM   23  C   UNL     1       9.594  30.454  58.798  1.00  0.00     0.009 A 
HETATM   24  C   UNL     1       8.378  30.775  59.395  1.00  0.00     0.001 A 
HETATM   25  C   UNL     1       7.194  30.558  58.704  1.00  0.00     0.002 A 
HETATM   26  C   UNL     1       7.223  30.031  57.409  1.00  0.00     0.030 A 
ENDBRANCH  17  20
ENDBRANCH  15  16
ENDBRANCH   1  15
TORSDOF 3
ENDMDL
MODEL 9
REMARK VINA RESULT:      -7.8      5.421      7.679
REMARK  3 active torsions:
REMARK  status: ('A' for Active; 'I' for Inactive)
REMARK    1  A    between atoms: C_3  and  N_4 
REMARK       I    between atoms: N_4  and  C_5 
REMARK    2  A    between atoms: C_5  and  C_6 
REMARK    3  A    between atoms: C_6  and  C_7 
ROOT
HETATM    1  C   UNL     1       4.303  29.199  50.874  1.00  0.00     0.286 C 
HETATM    2  N   UNL     1       3.423  28.088  50.314  1.00  0.00    -0.056 N 
HETATM    3  H   UNL     1       4.027  27.239  50.276  1.00  0.00     0.278 HD
HETATM    4  H   UNL     1       2.664  27.865  50.968  1.00  0.00     0.278 HD
HETATM    5  C   UNL     1       2.888  28.419  48.944  1.00  0.00     0.209 C 
HETATM    6  C   UNL     1       4.079  28.663  47.981  1.00  0.00     0.115 C 
HETATM    7  N   UNL     1       5.052  29.605  48.535  1.00  0.00    -0.353 N 
HETATM    8  C   UNL     1       5.369  29.692  49.870  1.00  0.00     0.249 C 
HETATM    9  O   UNL     1       6.411  30.234  50.220  1.00  0.00    -0.271 OA
HETATM   10  C   UNL     1       1.963  27.297  48.475  1.00  0.00     0.035 C 
HETATM   11  C   UNL     1       2.709  26.022  48.093  1.00  0.00     0.002 C 
HETATM   12  C   UNL     1       3.810  26.304  47.077  1.00  0.00     0.002 C 
HETATM   13  C   UNL     1       4.788  27.358  47.584  1.00  0.00     0.027 C 
HETATM   14  H   UNL     1       5.786  29.953  47.922  1.00  0.00     0.163 HD
ENDROOT
BRANCH   1  15
HETATM   15  C   UNL     1       4.938  28.785  52.207  1.00  0.00     0.146 C 
BRANCH  15  16
HETATM   16  C   UNL     1       4.003  27.873  52.964  1.00  0.00     0.224 C 
HETATM   17  N   UNL     1       4.321  26.579  53.229  1.00  0.00    -0.327 N 
HETATM   18  H   UNL     1       3.521  26.035  53.539  1.00  0.00     0.169 HD
HETATM   19  O   UNL     1       2.908  28.326  53.325  1.00  0.00    -0.273 OA
BRANCH  17  20
HETATM   20  C   UNL     1       5.527  25.862  53.087  1.00  0.00     0.040 A 
HETATM   21  C   UNL     1       6.173  25.389  54.249  1.00  0.00    -0.035 A 
HETATM   22  C   UNL     1       5.601  25.581  55.629  1.00  0.00     0.050 C 
HETATM   23  C   UNL     1       7.394  24.701  54.127  1.00  0.00     0.009 A 
HETATM   24  C   UNL     1       7.973  24.488  52.879  1.00  0.00     0.001 A 
HETATM   25  C   UNL     1       7.349  24.975  51.739  1.00  0.00     0.002 A 
HETATM   26  C   UNL     1       6.138  25.664  51.842  1.00  0.00     0.030 A 
ENDBRANCH  17  20
ENDBRANCH  15  16
ENDBRANCH   1  15
TORSDOF 3
ENDMDL
MODEL 10
REMARK VINA RESULT:      -7.8      3.754      5.366
REMARK  3 active torsions:
REMARK  status: ('A' for Active; 'I' for Inactive)
REMARK    1  A    between atoms: C_3  and  N_4 
REMARK       I    between atoms: N_4  and  C_5 
REMARK    2  A    between atoms: C_5  and  C_6 
REMARK    3  A    between atoms: C_6  and  C_7 
ROOT
HETATM    1  C   UNL     1       4.307  26.973  52.956  1.00  0.00     0.286 C 
HETATM    2  N   UNL     1       4.827  27.052  51.525  1.00  0.00    -0.056 N 
HETATM    3  H   UNL     1       5.781  27.466  51.592  1.00  0.00     0.278 HD
HETATM    4  H   UNL     1       4.953  26.111  51.135  1.00  0.00     0.278 HD
HETATM    5  C   UNL     1       3.944  27.897  50.642  1.00  0.00     0.209 C 
HETATM    6  C   UNL     1       3.858  29.328  51.235  1.00  0.00     0.115 C 
HETATM    7  N   UNL     1       3.520  29.316  52.659  1.00  0.00    -0.353 N 
HETATM    8  C   UNL     1       3.944  28.355  53.545  1.00  0.00     0.249 C 
HETATM    9  O   UNL     1       3.926  28.579  54.750  1.00  0.00    -0.271 OA
HETATM   10  C   UNL     1       4.484  27.877  49.214  1.00  0.00     0.035 C 
HETATM   11  C   UNL     1       5.767  28.685  49.043  1.00  0.00     0.002 C 
HETATM   12  C   UNL     1       5.600  30.109  49.559  1.00  0.00     0.002 C 
HETATM   13  C   UNL     1       5.150  30.132  51.016  1.00  0.00     0.027 C 
HETATM   14  H   UNL     1       3.285  30.201  53.104  1.00  0.00     0.163 HD
ENDROOT
BRANCH   1  15
HETATM   15  C   UNL     1       5.288  26.218  53.861  1.00  0.00     0.146 C 
BRANCH  15  16
HETATM   16  C   UNL     1       6.705  26.634  53.548  1.00  0.00     0.224 C 
HETATM   17  N   UNL     1       7.745  25.764  53.640  1.00  0.00    -0.327 N 
HETATM   18  H   UNL     1       8.648  26.230  53.620  1.00  0.00     0.169 HD
HETATM   19  O   UNL     1       6.912  27.811  53.222  1.00  0.00    -0.273 OA
BRANCH  17  20
HETATM   20  C   UNL     1       7.784  24.366  53.822  1.00  0.00     0.040 A 
HETATM   21  C   UNL     1       7.887  23.860  55.136  1.00  0.00    -0.035 A 
HETATM   22  C   UNL     1       7.911  24.752  56.349  1.00  0.00     0.050 C 
HETATM   23  C   UNL     1       7.961  22.469  55.334  1.00  0.00     0.009 A 
HETATM   24  C   UNL     1       7.941  21.591  54.254  1.00  0.00     0.001 A 
HETATM   25  C   UNL     1       7.864  22.091  52.961  1.00  0.00     0.002 A 
HETATM   26  C   UNL     1       7.794  23.471  52.746  1.00  0.00     0.030 A 
ENDBRANCH  17  20
ENDBRANCH  15  16
ENDBRANCH   1  15
TORSDOF 3
ENDMDL
