MODEL 1
REMARK VINA RESULT:     -11.7      0.000      0.000
REMARK  5 active torsions:
REMARK  status: ('A' for Active; 'I' for Inactive)
REMARK    1  A    between atoms: C_5  and  C_6 
REMARK    2  A    between atoms: C_6  and  O_7 
REMARK    3  A    between atoms: O_7  and  C_8 
REMARK    4  A    between atoms: C_12  and  C_13 
REMARK    5  A    between atoms: C_30  and  O_31 
ROOT
HETATM    1  C   UNL     1       6.659  28.068  56.261  1.00  0.00     0.130 A 
HETATM    2  C   UNL     1       5.952  29.281  56.239  1.00  0.00     0.048 A 
HETATM    3 BR   UNL     1       4.640  29.656  54.917  1.00  0.00    -0.048 Br
HETATM    4  C   UNL     1       6.208  30.264  57.198  1.00  0.00     0.033 A 
HETATM    5  C   UNL     1       7.199  30.069  58.173  1.00  0.00    -0.012 A 
HETATM    6  C   UNL     1       7.913  28.857  58.163  1.00  0.00     0.050 A 
HETATM    7  C   UNL     1       7.671  27.863  57.206  1.00  0.00     0.104 A 
ENDROOT
BRANCH   5   8
HETATM    8  C   UNL     1       7.469  31.090  59.256  1.00  0.00     0.219 C 
HETATM    9  N   UNL     1       7.958  30.442  60.444  1.00  0.00    -0.332 N 
HETATM   10  C   UNL     1       8.020  31.087  61.650  1.00  0.00     0.256 C 
HETATM   11  H   UNL     1       8.632  29.698  60.332  1.00  0.00     0.165 HD
HETATM   12  O   UNL     1       8.763  30.718  62.552  1.00  0.00    -0.267 OA
HETATM   13  C   UNL     1       7.111  32.211  61.793  1.00  0.00     0.073 A 
HETATM   14  C   UNL     1       6.269  32.523  60.750  1.00  0.00     0.088 A 
HETATM   15  C   UNL     1       6.912  33.077  62.915  1.00  0.00    -0.023 A 
HETATM   16  S   UNL     1       5.222  33.812  61.116  1.00  0.00    -0.074 SA
HETATM   17  N   UNL     1       6.275  31.854  59.578  1.00  0.00    -0.358 N 
HETATM   18  C   UNL     1       5.882  33.970  62.679  1.00  0.00     0.018 A 
HETATM   19  C   UNL     1       5.388  34.983  63.653  1.00  0.00     0.281 C 
HETATM   20  N   UNL     1       5.887  34.685  65.064  1.00  0.00    -0.070 N 
HETATM   21  C   UNL     1       7.366  34.301  65.063  1.00  0.00     0.239 C 
HETATM   22  H   UNL     1       5.812  35.568  65.583  1.00  0.00     0.279 HD
HETATM   23  C   UNL     1       5.020  33.697  65.789  1.00  0.00     0.270 C 
HETATM   24  C   UNL     1       7.640  33.039  64.225  1.00  0.00     0.068 C 
HETATM   25  H   UNL     1       5.809  32.266  58.773  1.00  0.00     0.162 HD
ENDBRANCH   5   8
BRANCH   7  26
HETATM   26  O   UNL     1       8.467  26.763  57.361  1.00  0.00    -0.353 OA
HETATM   27  C   UNL     1       7.922  25.645  58.049  1.00  0.00     0.210 C 
ENDBRANCH   7  26
BRANCH   1  28
HETATM   28  O   UNL     1       6.349  27.084  55.318  1.00  0.00    -0.271 OA
BRANCH  28  29
HETATM   29  C   UNL     1       7.308  26.988  54.324  1.00  0.00     0.298 C 
HETATM   30  O   UNL     1       7.961  27.901  53.843  1.00  0.00    -0.259 OA
BRANCH  29  31
HETATM   31  C   UNL     1       7.489  25.559  53.951  1.00  0.00     0.040 A 
HETATM   32  C   UNL     1       7.254  24.588  54.932  1.00  0.00     0.018 A 
HETATM   33  C   UNL     1       7.386  23.232  54.627  1.00  0.00     0.007 A 
HETATM   34  C   UNL     1       7.754  22.828  53.339  1.00  0.00    -0.062 A 
HETATM   35  C   UNL     1       7.921  21.372  53.015  1.00  0.00     0.048 C 
HETATM   36  C   UNL     1       8.015  23.801  52.366  1.00  0.00     0.007 A 
HETATM   37  C   UNL     1       7.879  25.159  52.667  1.00  0.00     0.018 A 
ENDBRANCH  29  31
ENDBRANCH  28  29
ENDBRANCH   1  28
TORSDOF 5
ENDMDL
MODEL 2
REMARK VINA RESULT:     -11.2      1.551      2.363
REMARK  5 active torsions:
REMARK  status: ('A' for Active; 'I' for Inactive)
REMARK    1  A    between atoms: C_5  and  C_6 
REMARK    2  A    between atoms: C_6  and  O_7 
REMARK    3  A    between atoms: O_7  and  C_8 
REMARK    4  A    between atoms: C_12  and  C_13 
REMARK    5  A    between atoms: C_30  and  O_31 
ROOT
HETATM    1  C   UNL     1       7.225  27.413  55.823  1.00  0.00     0.130 A 
HETATM    2  C   UNL     1       7.957  27.196  57.002  1.00  0.00     0.048 A 
HETATM    3 BR   UNL     1       8.794  25.532  57.373  1.00  0.00    -0.048 Br
HETATM    4  C   UNL     1       8.079  28.212  57.953  1.00  0.00     0.033 A 
HETATM    5  C   UNL     1       7.444  29.449  57.761  1.00  0.00    -0.012 A 
HETATM    6  C   UNL     1       6.696  29.639  56.586  1.00  0.00     0.050 A 
HETATM    7  C   UNL     1       6.559  28.629  55.624  1.00  0.00     0.104 A 
ENDROOT
BRANCH   5   8
HETATM    8  C   UNL     1       7.595  30.587  58.746  1.00  0.00     0.219 C 
HETATM    9  N   UNL     1       8.158  30.110  59.981  1.00  0.00    -0.332 N 
HETATM   10  C   UNL     1       8.147  30.863  61.124  1.00  0.00     0.256 C 
HETATM   11  H   UNL     1       8.914  29.442  59.928  1.00  0.00     0.165 HD
HETATM   12  O   UNL     1       8.929  30.666  62.046  1.00  0.00    -0.267 OA
HETATM   13  C   UNL     1       7.113  31.883  61.177  1.00  0.00     0.073 A 
HETATM   14  C   UNL     1       6.238  32.001  60.121  1.00  0.00     0.088 A 
HETATM   15  C   UNL     1       6.816  32.817  62.220  1.00  0.00    -0.023 A 
HETATM   16  S   UNL     1       5.050  33.187  60.384  1.00  0.00    -0.074 SA
HETATM   17  N   UNL     1       6.321  31.234  59.013  1.00  0.00    -0.358 N 
HETATM   18  C   UNL     1       5.689  33.560  61.918  1.00  0.00     0.018 A 
HETATM   19  C   UNL     1       5.082  34.592  62.804  1.00  0.00     0.281 C 
HETATM   20  N   UNL     1       5.615  34.482  64.230  1.00  0.00    -0.070 N 
HETATM   21  C   UNL     1       7.128  34.273  64.246  1.00  0.00     0.239 C 
HETATM   22  H   UNL     1       5.438  35.393  64.669  1.00  0.00     0.279 HD
HETATM   23  C   UNL     1       4.869  33.469  65.050  1.00  0.00     0.270 C 
HETATM   24  C   UNL     1       7.546  32.982  63.520  1.00  0.00     0.068 C 
HETATM   25  H   UNL     1       5.809  31.515  58.180  1.00  0.00     0.162 HD
ENDBRANCH   5   8
BRANCH   7  26
HETATM   26  O   UNL     1       5.793  29.004  54.556  1.00  0.00    -0.353 OA
HETATM   27  C   UNL     1       4.466  28.500  54.486  1.00  0.00     0.210 C 
ENDBRANCH   7  26
BRANCH   1  28
HETATM   28  O   UNL     1       7.159  26.396  54.868  1.00  0.00    -0.271 OA
BRANCH  28  29
HETATM   29  C   UNL     1       6.362  25.340  55.277  1.00  0.00     0.298 C 
HETATM   30  O   UNL     1       5.341  25.407  55.945  1.00  0.00    -0.259 OA
BRANCH  29  31
HETATM   31  C   UNL     1       6.900  24.071  54.718  1.00  0.00     0.040 A 
HETATM   32  C   UNL     1       7.116  24.000  53.336  1.00  0.00     0.018 A 
HETATM   33  C   UNL     1       7.642  22.840  52.764  1.00  0.00     0.007 A 
HETATM   34  C   UNL     1       7.961  21.737  53.564  1.00  0.00    -0.062 A 
HETATM   35  C   UNL     1       8.503  20.480  52.949  1.00  0.00     0.048 C 
HETATM   36  C   UNL     1       7.719  21.800  54.942  1.00  0.00     0.007 A 
HETATM   37  C   UNL     1       7.196  22.961  55.519  1.00  0.00     0.018 A 
ENDBRANCH  29  31
ENDBRANCH  28  29
ENDBRANCH   1  28
TORSDOF 5
ENDMDL
MODEL 3
REMARK VINA RESULT:     -10.9      1.466      2.113
REMARK  5 active torsions:
REMARK  status: ('A' for Active; 'I' for Inactive)
REMARK    1  A    between atoms: C_5  and  C_6 
REMARK    2  A    between atoms: C_6  and  O_7 
REMARK    3  A    between atoms: O_7  and  C_8 
REMARK    4  A    between atoms: C_12  and  C_13 
REMARK    5  A    between atoms: C_30  and  O_31 
ROOT
HETATM    1  C   UNL     1       7.681  28.191  56.723  1.00  0.00     0.130 A 
HETATM    2  C   UNL     1       6.396  28.664  57.033  1.00  0.00     0.048 A 
HETATM    3 BR   UNL     1       4.828  27.817  56.376  1.00  0.00    -0.048 Br
HETATM    4  C   UNL     1       6.236  29.794  57.838  1.00  0.00     0.033 A 
HETATM    5  C   UNL     1       7.355  30.494  58.315  1.00  0.00    -0.012 A 
HETATM    6  C   UNL     1       8.634  30.019  57.974  1.00  0.00     0.050 A 
HETATM    7  C   UNL     1       8.812  28.889  57.164  1.00  0.00     0.104 A 
ENDROOT
BRANCH   5   8
HETATM    8  C   UNL     1       7.220  31.693  59.228  1.00  0.00     0.219 C 
HETATM    9  N   UNL     1       7.637  31.355  60.563  1.00  0.00    -0.332 N 
HETATM   10  C   UNL     1       7.362  32.160  61.636  1.00  0.00     0.256 C 
HETATM   11  H   UNL     1       8.464  30.785  60.669  1.00  0.00     0.165 HD
HETATM   12  O   UNL     1       8.010  32.110  62.675  1.00  0.00    -0.267 OA
HETATM   13  C   UNL     1       6.222  33.044  61.464  1.00  0.00     0.073 A 
HETATM   14  C   UNL     1       5.514  32.996  60.285  1.00  0.00     0.088 A 
HETATM   15  C   UNL     1       5.663  33.987  62.383  1.00  0.00    -0.023 A 
HETATM   16  S   UNL     1       4.170  34.038  60.286  1.00  0.00    -0.074 SA
HETATM   17  N   UNL     1       5.854  32.189  59.259  1.00  0.00    -0.358 N 
HETATM   18  C   UNL     1       4.518  34.567  61.867  1.00  0.00     0.018 A 
HETATM   19  C   UNL     1       3.666  35.561  62.579  1.00  0.00     0.281 C 
HETATM   20  N   UNL     1       3.981  35.593  64.072  1.00  0.00    -0.070 N 
HETATM   21  C   UNL     1       5.488  35.576  64.325  1.00  0.00     0.239 C 
HETATM   22  H   UNL     1       3.635  36.497  64.415  1.00  0.00     0.279 HD
HETATM   23  C   UNL     1       3.240  34.540  64.844  1.00  0.00     0.270 C 
HETATM   24  C   UNL     1       6.159  34.310  63.761  1.00  0.00     0.068 C 
HETATM   25  H   UNL     1       5.448  32.360  58.342  1.00  0.00     0.162 HD
ENDBRANCH   5   8
BRANCH   7  26
HETATM   26  O   UNL     1      10.126  28.588  56.943  1.00  0.00    -0.353 OA
HETATM   27  C   UNL     1      11.061  29.658  56.962  1.00  0.00     0.210 C 
ENDBRANCH   7  26
BRANCH   1  28
HETATM   28  O   UNL     1       7.811  27.030  55.955  1.00  0.00    -0.271 OA
BRANCH  28  29
HETATM   29  C   UNL     1       7.955  25.896  56.737  1.00  0.00     0.298 C 
HETATM   30  O   UNL     1       8.008  25.847  57.956  1.00  0.00    -0.259 OA
BRANCH  29  31
HETATM   31  C   UNL     1       7.970  24.693  55.861  1.00  0.00     0.040 A 
HETATM   32  C   UNL     1       7.340  24.780  54.614  1.00  0.00     0.018 A 
HETATM   33  C   UNL     1       7.347  23.687  53.744  1.00  0.00     0.007 A 
HETATM   34  C   UNL     1       7.984  22.495  54.108  1.00  0.00    -0.062 A 
HETATM   35  C   UNL     1       7.972  21.311  53.186  1.00  0.00     0.048 C 
HETATM   36  C   UNL     1       8.590  22.402  55.367  1.00  0.00     0.007 A 
HETATM   37  C   UNL     1       8.589  23.495  56.239  1.00  0.00     0.018 A 
ENDBRANCH  29  31
ENDBRANCH  28  29
ENDBRANCH   1  28
TORSDOF 5
ENDMDL
MODEL 4
REMARK VINA RESULT:     -10.0      2.715      3.467
REMARK  5 active torsions:
REMARK  status: ('A' for Active; 'I' for Inactive)
REMARK    1  A    between atoms: C_5  and  C_6 
REMARK    2  A    between atoms: C_6  and  O_7 
REMARK    3  A    between atoms: O_7  and  C_8 
REMARK    4  A    between atoms: C_12  and  C_13 
REMARK    5  A    between atoms: C_30  and  O_31 
ROOT
HETATM    1  C   UNL     1       6.569  27.581  55.757  1.00  0.00     0.130 A 
HETATM    2  C   UNL     1       5.420  28.054  55.103  1.00  0.00     0.048 A 
HETATM    3 BR   UNL     1       4.736  27.217  53.541  1.00  0.00    -0.048 Br
HETATM    4  C   UNL     1       4.745  29.177  55.587  1.00  0.00     0.033 A 
HETATM    5  C   UNL     1       5.227  29.870  56.709  1.00  0.00    -0.012 A 
HETATM    6  C   UNL     1       6.393  29.396  57.335  1.00  0.00     0.050 A 
HETATM    7  C   UNL     1       7.083  28.272  56.860  1.00  0.00     0.104 A 
ENDROOT
BRANCH   5   8
HETATM    8  C   UNL     1       4.496  31.061  57.289  1.00  0.00     0.219 C 
HETATM    9  N   UNL     1       5.134  32.285  56.885  1.00  0.00    -0.332 N 
HETATM   10  C   UNL     1       4.850  33.485  57.482  1.00  0.00     0.256 C 
HETATM   11  H   UNL     1       5.451  32.360  55.929  1.00  0.00     0.165 HD
HETATM   12  O   UNL     1       5.064  34.558  56.931  1.00  0.00    -0.267 OA
HETATM   13  C   UNL     1       4.316  33.388  58.830  1.00  0.00     0.073 A 
HETATM   14  C   UNL     1       4.159  32.143  59.397  1.00  0.00     0.088 A 
HETATM   15  C   UNL     1       3.935  34.434  59.729  1.00  0.00    -0.023 A 
HETATM   16  S   UNL     1       3.599  32.219  61.000  1.00  0.00    -0.074 SA
HETATM   17  N   UNL     1       4.442  30.998  58.740  1.00  0.00    -0.358 N 
HETATM   18  C   UNL     1       3.560  33.922  60.959  1.00  0.00     0.018 A 
HETATM   19  C   UNL     1       3.146  34.737  62.135  1.00  0.00     0.281 C 
HETATM   20  N   UNL     1       3.533  36.203  61.957  1.00  0.00    -0.070 N 
HETATM   21  C   UNL     1       3.213  36.698  60.548  1.00  0.00     0.239 C 
HETATM   22  H   UNL     1       2.933  36.734  62.600  1.00  0.00     0.279 HD
HETATM   23  C   UNL     1       4.948  36.483  62.376  1.00  0.00     0.270 C 
HETATM   24  C   UNL     1       3.972  35.909  59.466  1.00  0.00     0.068 C 
HETATM   25  H   UNL     1       4.092  30.118  59.111  1.00  0.00     0.162 HD
ENDBRANCH   5   8
BRANCH   7  26
HETATM   26  O   UNL     1       8.192  27.970  57.601  1.00  0.00    -0.353 OA
HETATM   27  C   UNL     1       9.322  28.822  57.475  1.00  0.00     0.210 C 
ENDBRANCH   7  26
BRANCH   1  28
HETATM   28  O   UNL     1       7.196  26.427  55.279  1.00  0.00    -0.271 OA
BRANCH  28  29
HETATM   29  C   UNL     1       6.667  25.273  55.833  1.00  0.00     0.298 C 
HETATM   30  O   UNL     1       5.912  25.198  56.791  1.00  0.00    -0.259 OA
BRANCH  29  31
HETATM   31  C   UNL     1       7.106  24.097  55.034  1.00  0.00     0.040 A 
HETATM   32  C   UNL     1       7.421  22.917  55.719  1.00  0.00     0.018 A 
HETATM   33  C   UNL     1       7.815  21.777  55.014  1.00  0.00     0.007 A 
HETATM   34  C   UNL     1       7.896  21.802  53.617  1.00  0.00    -0.062 A 
HETATM   35  C   UNL     1       8.343  20.586  52.858  1.00  0.00     0.048 C 
HETATM   36  C   UNL     1       7.607  22.991  52.936  1.00  0.00     0.007 A 
HETATM   37  C   UNL     1       7.208  24.132  53.638  1.00  0.00     0.018 A 
ENDBRANCH  29  31
ENDBRANCH  28  29
ENDBRANCH   1  28
TORSDOF 5
ENDMDL
MODEL 5
REMARK VINA RESULT:      -9.7      3.401     11.053
REMARK  5 active torsions:
REMARK  status: ('A' for Active; 'I' for Inactive)
REMARK    1  A    between atoms: C_5  and  C_6 
REMARK    2  A    between atoms: C_6  and  O_7 
REMARK    3  A    between atoms: O_7  and  C_8 
REMARK    4  A    between atoms: C_12  and  C_13 
REMARK    5  A    between atoms: C_30  and  O_31 
ROOT
HETATM    1  C   UNL     1       5.854  32.978  61.419  1.00  0.00     0.130 A 
HETATM    2  C   UNL     1       4.823  32.966  60.467  1.00  0.00     0.048 A 
HETATM    3 BR   UNL     1       3.132  33.763  60.804  1.00  0.00    -0.048 Br
HETATM    4  C   UNL     1       5.015  32.347  59.229  1.00  0.00     0.033 A 
HETATM    5  C   UNL     1       6.224  31.698  58.935  1.00  0.00    -0.012 A 
HETATM    6  C   UNL     1       7.235  31.700  59.911  1.00  0.00     0.050 A 
HETATM    7  C   UNL     1       7.058  32.313  61.160  1.00  0.00     0.104 A 
ENDROOT
BRANCH   5   8
HETATM    8  C   UNL     1       6.484  31.060  57.588  1.00  0.00     0.219 C 
HETATM    9  N   UNL     1       5.291  31.085  56.784  1.00  0.00    -0.332 N 
HETATM   10  C   UNL     1       5.168  30.340  55.642  1.00  0.00     0.256 C 
HETATM   11  H   UNL     1       4.731  31.926  56.796  1.00  0.00     0.165 HD
HETATM   12  O   UNL     1       4.366  30.620  54.760  1.00  0.00    -0.267 OA
HETATM   13  C   UNL     1       6.029  29.171  55.577  1.00  0.00     0.073 A 
HETATM   14  C   UNL     1       6.861  28.896  56.638  1.00  0.00     0.088 A 
HETATM   15  C   UNL     1       6.137  28.184  54.547  1.00  0.00    -0.023 A 
HETATM   16  S   UNL     1       7.737  27.454  56.428  1.00  0.00    -0.074 SA
HETATM   17  N   UNL     1       6.945  29.689  57.728  1.00  0.00    -0.358 N 
HETATM   18  C   UNL     1       7.012  27.176  54.911  1.00  0.00     0.018 A 
HETATM   19  C   UNL     1       7.324  25.974  54.089  1.00  0.00     0.281 C 
HETATM   20  N   UNL     1       6.301  25.786  52.972  1.00  0.00    -0.070 N 
HETATM   21  C   UNL     1       5.982  27.109  52.279  1.00  0.00     0.239 C 
HETATM   22  H   UNL     1       6.755  25.188  52.271  1.00  0.00     0.279 HD
HETATM   23  C   UNL     1       5.076  25.045  53.426  1.00  0.00     0.270 C 
HETATM   24  C   UNL     1       5.387  28.147  53.248  1.00  0.00     0.068 C 
HETATM   25  H   UNL     1       7.730  29.572  58.363  1.00  0.00     0.162 HD
ENDBRANCH   5   8
BRANCH   7  26
HETATM   26  O   UNL     1       8.153  32.206  61.971  1.00  0.00    -0.353 OA
HETATM   27  C   UNL     1       8.382  30.957  62.609  1.00  0.00     0.210 C 
ENDBRANCH   7  26
BRANCH   1  28
HETATM   28  O   UNL     1       5.652  33.646  62.630  1.00  0.00    -0.271 OA
BRANCH  28  29
HETATM   29  C   UNL     1       5.245  32.791  63.640  1.00  0.00     0.298 C 
HETATM   30  O   UNL     1       4.751  31.681  63.509  1.00  0.00    -0.259 OA
BRANCH  29  31
HETATM   31  C   UNL     1       5.561  33.401  64.960  1.00  0.00     0.040 A 
HETATM   32  C   UNL     1       4.494  33.766  65.790  1.00  0.00     0.018 A 
HETATM   33  C   UNL     1       4.738  34.320  67.049  1.00  0.00     0.007 A 
HETATM   34  C   UNL     1       6.050  34.516  67.495  1.00  0.00    -0.062 A 
HETATM   35  C   UNL     1       6.315  35.134  68.836  1.00  0.00     0.048 C 
HETATM   36  C   UNL     1       7.115  34.176  66.652  1.00  0.00     0.007 A 
HETATM   37  C   UNL     1       6.875  33.617  65.394  1.00  0.00     0.018 A 
ENDBRANCH  29  31
ENDBRANCH  28  29
ENDBRANCH   1  28
TORSDOF 5
ENDMDL
MODEL 6
REMARK VINA RESULT:      -9.4      2.283      3.073
REMARK  5 active torsions:
REMARK  status: ('A' for Active; 'I' for Inactive)
REMARK    1  A    between atoms: C_5  and  C_6 
REMARK    2  A    between atoms: C_6  and  O_7 
REMARK    3  A    between atoms: O_7  and  C_8 
REMARK    4  A    between atoms: C_12  and  C_13 
REMARK    5  A    between atoms: C_30  and  O_31 
ROOT
HETATM    1  C   UNL     1       5.794  28.745  54.639  1.00  0.00     0.130 A 
HETATM    2  C   UNL     1       4.849  29.777  54.515  1.00  0.00     0.048 A 
HETATM    3 BR   UNL     1       4.070  30.232  52.843  1.00  0.00    -0.048 Br
HETATM    4  C   UNL     1       4.459  30.514  55.636  1.00  0.00     0.033 A 
HETATM    5  C   UNL     1       5.033  30.260  56.891  1.00  0.00    -0.012 A 
HETATM    6  C   UNL     1       5.995  29.240  56.990  1.00  0.00     0.050 A 
HETATM    7  C   UNL     1       6.400  28.493  55.875  1.00  0.00     0.104 A 
ENDROOT
BRANCH   5   8
HETATM    8  C   UNL     1       4.600  31.005  58.135  1.00  0.00     0.219 C 
HETATM    9  N   UNL     1       3.864  32.189  57.778  1.00  0.00    -0.332 N 
HETATM   10  C   UNL     1       3.595  33.178  58.686  1.00  0.00     0.256 C 
HETATM   11  H   UNL     1       3.194  32.119  57.026  1.00  0.00     0.165 HD
HETATM   12  O   UNL     1       2.677  33.975  58.533  1.00  0.00    -0.267 OA
HETATM   13  C   UNL     1       4.505  33.237  59.817  1.00  0.00     0.073 A 
HETATM   14  C   UNL     1       5.545  32.339  59.883  1.00  0.00     0.088 A 
HETATM   15  C   UNL     1       4.517  34.148  60.921  1.00  0.00    -0.023 A 
HETATM   16  S   UNL     1       6.552  32.600  61.227  1.00  0.00    -0.074 SA
HETATM   17  N   UNL     1       5.739  31.373  58.959  1.00  0.00    -0.358 N 
HETATM   18  C   UNL     1       5.609  33.922  61.740  1.00  0.00     0.018 A 
HETATM   19  C   UNL     1       5.946  34.717  62.954  1.00  0.00     0.281 C 
HETATM   20  N   UNL     1       5.171  36.031  62.990  1.00  0.00    -0.070 N 
HETATM   21  C   UNL     1       3.706  35.825  62.608  1.00  0.00     0.239 C 
HETATM   22  H   UNL     1       5.179  36.338  63.970  1.00  0.00     0.279 HD
HETATM   23  C   UNL     1       5.840  37.120  62.202  1.00  0.00     0.270 C 
HETATM   24  C   UNL     1       3.548  35.261  61.185  1.00  0.00     0.068 C 
HETATM   25  H   UNL     1       6.368  30.604  59.175  1.00  0.00     0.162 HD
ENDBRANCH   5   8
BRANCH   7  26
HETATM   26  O   UNL     1       7.345  27.552  56.173  1.00  0.00    -0.353 OA
HETATM   27  C   UNL     1       8.146  27.762  57.327  1.00  0.00     0.210 C 
ENDBRANCH   7  26
BRANCH   1  28
HETATM   28  O   UNL     1       6.130  27.993  53.510  1.00  0.00    -0.271 OA
BRANCH  28  29
HETATM   29  C   UNL     1       5.368  26.842  53.400  1.00  0.00     0.298 C 
HETATM   30  O   UNL     1       4.155  26.773  53.267  1.00  0.00    -0.259 OA
BRANCH  29  31
HETATM   31  C   UNL     1       6.266  25.656  53.397  1.00  0.00     0.040 A 
HETATM   32  C   UNL     1       6.198  24.776  54.484  1.00  0.00     0.018 A 
HETATM   33  C   UNL     1       7.002  23.634  54.519  1.00  0.00     0.007 A 
HETATM   34  C   UNL     1       7.883  23.356  53.467  1.00  0.00    -0.062 A 
HETATM   35  C   UNL     1       8.766  22.144  53.513  1.00  0.00     0.048 C 
HETATM   36  C   UNL     1       7.969  24.251  52.394  1.00  0.00     0.007 A 
HETATM   37  C   UNL     1       7.163  25.392  52.354  1.00  0.00     0.018 A 
ENDBRANCH  29  31
ENDBRANCH  28  29
ENDBRANCH   1  28
TORSDOF 5
ENDMDL
MODEL 7
REMARK VINA RESULT:      -9.3      3.504     10.503
REMARK  5 active torsions:
REMARK  status: ('A' for Active; 'I' for Inactive)
REMARK    1  A    between atoms: C_5  and  C_6 
REMARK    2  A    between atoms: C_6  and  O_7 
REMARK    3  A    between atoms: O_7  and  C_8 
REMARK    4  A    between atoms: C_12  and  C_13 
REMARK    5  A    between atoms: C_30  and  O_31 
ROOT
HETATM    1  C   UNL     1       5.880  31.562  58.322  1.00  0.00     0.130 A 
HETATM    2  C   UNL     1       5.213  31.112  57.172  1.00  0.00     0.048 A 
HETATM    3 BR   UNL     1       3.633  31.952  56.533  1.00  0.00    -0.048 Br
HETATM    4  C   UNL     1       5.695  30.009  56.463  1.00  0.00     0.033 A 
HETATM    5  C   UNL     1       6.830  29.314  56.911  1.00  0.00    -0.012 A 
HETATM    6  C   UNL     1       7.470  29.766  58.078  1.00  0.00     0.050 A 
HETATM    7  C   UNL     1       6.997  30.868  58.803  1.00  0.00     0.104 A 
ENDROOT
BRANCH   5   8
HETATM    8  C   UNL     1       7.408  28.147  56.142  1.00  0.00     0.219 C 
HETATM    9  N   UNL     1       6.430  27.612  55.232  1.00  0.00    -0.332 N 
HETATM   10  C   UNL     1       6.592  26.398  54.621  1.00  0.00     0.256 C 
HETATM   11  H   UNL     1       5.858  28.266  54.717  1.00  0.00     0.165 HD
HETATM   12  O   UNL     1       6.005  26.101  53.588  1.00  0.00    -0.267 OA
HETATM   13  C   UNL     1       7.479  25.476  55.312  1.00  0.00     0.073 A 
HETATM   14  C   UNL     1       8.054  25.870  56.499  1.00  0.00     0.088 A 
HETATM   15  C   UNL     1       7.847  24.140  54.960  1.00  0.00    -0.023 A 
HETATM   16  S   UNL     1       8.996  24.645  57.208  1.00  0.00    -0.074 SA
HETATM   17  N   UNL     1       7.864  27.094  57.035  1.00  0.00    -0.358 N 
HETATM   18  C   UNL     1       8.644  23.569  55.935  1.00  0.00     0.018 A 
HETATM   19  C   UNL     1       9.170  22.175  55.903  1.00  0.00     0.281 C 
HETATM   20  N   UNL     1       8.435  21.329  54.868  1.00  0.00    -0.070 N 
HETATM   21  C   UNL     1       8.244  22.091  53.558  1.00  0.00     0.239 C 
HETATM   22  H   UNL     1       9.053  20.536  54.660  1.00  0.00     0.279 HD
HETATM   23  C   UNL     1       7.160  20.739  55.400  1.00  0.00     0.270 C 
HETATM   24  C   UNL     1       7.415  23.374  53.745  1.00  0.00     0.068 C 
HETATM   25  H   UNL     1       8.487  27.411  57.774  1.00  0.00     0.162 HD
ENDBRANCH   5   8
BRANCH   7  26
HETATM   26  O   UNL     1       7.752  31.149  59.907  1.00  0.00    -0.353 OA
HETATM   27  C   UNL     1       8.820  32.074  59.759  1.00  0.00     0.210 C 
ENDBRANCH   7  26
BRANCH   1  28
HETATM   28  O   UNL     1       5.403  32.697  58.984  1.00  0.00    -0.271 OA
BRANCH  28  29
HETATM   29  C   UNL     1       4.588  32.376  60.057  1.00  0.00     0.298 C 
HETATM   30  O   UNL     1       3.499  31.824  60.012  1.00  0.00    -0.259 OA
BRANCH  29  31
HETATM   31  C   UNL     1       5.272  32.749  61.324  1.00  0.00     0.040 A 
HETATM   32  C   UNL     1       5.623  34.091  61.512  1.00  0.00     0.018 A 
HETATM   33  C   UNL     1       6.245  34.498  62.695  1.00  0.00     0.007 A 
HETATM   34  C   UNL     1       6.522  33.569  63.705  1.00  0.00    -0.062 A 
HETATM   35  C   UNL     1       7.213  33.998  64.967  1.00  0.00     0.048 C 
HETATM   36  C   UNL     1       6.194  32.223  63.504  1.00  0.00     0.007 A 
HETATM   37  C   UNL     1       5.568  31.813  62.323  1.00  0.00     0.018 A 
ENDBRANCH  29  31
ENDBRANCH  28  29
ENDBRANCH   1  28
TORSDOF 5
ENDMDL
MODEL 8
REMARK VINA RESULT:      -9.2      2.587      3.800
REMARK  5 active torsions:
REMARK  status: ('A' for Active; 'I' for Inactive)
REMARK    1  A    between atoms: C_5  and  C_6 
REMARK    2  A    between atoms: C_6  and  O_7 
REMARK    3  A    between atoms: O_7  and  C_8 
REMARK    4  A    between atoms: C_12  and  C_13 
REMARK    5  A    between atoms: C_30  and  O_31 
ROOT
HETATM    1  C   UNL     1       5.878  28.795  55.022  1.00  0.00     0.130 A 
HETATM    2  C   UNL     1       6.366  28.511  56.307  1.00  0.00     0.048 A 
HETATM    3 BR   UNL     1       7.618  27.118  56.623  1.00  0.00    -0.048 Br
HETATM    4  C   UNL     1       5.929  29.253  57.407  1.00  0.00     0.033 A 
HETATM    5  C   UNL     1       4.968  30.264  57.249  1.00  0.00    -0.012 A 
HETATM    6  C   UNL     1       4.473  30.516  55.958  1.00  0.00     0.050 A 
HETATM    7  C   UNL     1       4.899  29.779  54.844  1.00  0.00     0.104 A 
ENDROOT
BRANCH   5   8
HETATM    8  C   UNL     1       4.507  31.119  58.409  1.00  0.00     0.219 C 
HETATM    9  N   UNL     1       3.823  32.290  57.927  1.00  0.00    -0.332 N 
HETATM   10  C   UNL     1       3.548  33.357  58.740  1.00  0.00     0.256 C 
HETATM   11  H   UNL     1       3.183  32.177  57.154  1.00  0.00     0.165 HD
HETATM   12  O   UNL     1       2.661  34.163  58.484  1.00  0.00    -0.267 OA
HETATM   13  C   UNL     1       4.411  33.482  59.902  1.00  0.00     0.073 A 
HETATM   14  C   UNL     1       5.420  32.564  60.085  1.00  0.00     0.088 A 
HETATM   15  C   UNL     1       4.406  34.479  60.929  1.00  0.00    -0.023 A 
HETATM   16  S   UNL     1       6.378  32.906  61.446  1.00  0.00    -0.074 SA
HETATM   17  N   UNL     1       5.622  31.522  59.250  1.00  0.00    -0.358 N 
HETATM   18  C   UNL     1       5.455  34.291  61.811  1.00  0.00     0.018 A 
HETATM   19  C   UNL     1       5.767  35.172  62.971  1.00  0.00     0.281 C 
HETATM   20  N   UNL     1       5.031  36.505  62.868  1.00  0.00    -0.070 N 
HETATM   21  C   UNL     1       3.578  36.309  62.440  1.00  0.00     0.239 C 
HETATM   22  H   UNL     1       5.009  36.891  63.819  1.00  0.00     0.279 HD
HETATM   23  C   UNL     1       5.766  37.508  62.025  1.00  0.00     0.270 C 
HETATM   24  C   UNL     1       3.461  35.635  61.061  1.00  0.00     0.068 C 
HETATM   25  H   UNL     1       6.218  30.756  59.554  1.00  0.00     0.162 HD
ENDBRANCH   5   8
BRANCH   7  26
HETATM   26  O   UNL     1       4.300  30.171  53.680  1.00  0.00    -0.353 OA
HETATM   27  C   UNL     1       3.271  31.147  53.762  1.00  0.00     0.210 C 
ENDBRANCH   7  26
BRANCH   1  28
HETATM   28  O   UNL     1       6.369  28.069  53.934  1.00  0.00    -0.271 OA
BRANCH  28  29
HETATM   29  C   UNL     1       5.525  27.033  53.568  1.00  0.00     0.298 C 
HETATM   30  O   UNL     1       4.342  27.118  53.277  1.00  0.00    -0.259 OA
BRANCH  29  31
HETATM   31  C   UNL     1       6.299  25.764  53.511  1.00  0.00     0.040 A 
HETATM   32  C   UNL     1       7.236  25.611  52.482  1.00  0.00     0.018 A 
HETATM   33  C   UNL     1       8.007  24.448  52.397  1.00  0.00     0.007 A 
HETATM   34  C   UNL     1       7.852  23.426  53.340  1.00  0.00    -0.062 A 
HETATM   35  C   UNL     1       8.660  22.166  53.238  1.00  0.00     0.048 C 
HETATM   36  C   UNL     1       6.895  23.570  54.353  1.00  0.00     0.007 A 
HETATM   37  C   UNL     1       6.126  24.733  54.443  1.00  0.00     0.018 A 
ENDBRANCH  29  31
ENDBRANCH  28  29
ENDBRANCH   1  28
TORSDOF 5
ENDMDL
MODEL 9
REMARK VINA RESULT:      -9.0      6.602      8.567
REMARK  5 active torsions:
REMARK  status: ('A' for Active; 'I' for Inactive)
REMARK    1  A    between atoms: C_5  and  C_6 
REMARK    2  A    between atoms: C_6  and  O_7 
REMARK    3  A    between atoms: O_7  and  C_8 
REMARK    4  A    between atoms: C_12  and  C_13 
REMARK    5  A    between atoms: C_30  and  O_31 
ROOT
HETATM    1  C   UNL     1       5.225  27.012  54.109  1.00  0.00     0.130 A 
HETATM    2  C   UNL     1       4.996  28.213  54.798  1.00  0.00     0.048 A 
HETATM    3 BR   UNL     1       4.981  28.297  56.696  1.00  0.00    -0.048 Br
HETATM    4  C   UNL     1       4.758  29.396  54.094  1.00  0.00     0.033 A 
HETATM    5  C   UNL     1       4.707  29.393  52.691  1.00  0.00    -0.012 A 
HETATM    6  C   UNL     1       4.915  28.175  52.020  1.00  0.00     0.050 A 
HETATM    7  C   UNL     1       5.151  26.979  52.712  1.00  0.00     0.104 A 
ENDROOT
BRANCH   5   8
HETATM    8  C   UNL     1       4.500  30.662  51.895  1.00  0.00     0.219 C 
HETATM    9  N   UNL     1       5.539  30.810  50.910  1.00  0.00    -0.332 N 
HETATM   10  C   UNL     1       5.749  31.989  50.246  1.00  0.00     0.256 C 
HETATM   11  H   UNL     1       5.826  29.987  50.400  1.00  0.00     0.165 HD
HETATM   12  O   UNL     1       6.332  32.040  49.170  1.00  0.00    -0.267 OA
HETATM   13  C   UNL     1       5.266  33.175  50.934  1.00  0.00     0.073 A 
HETATM   14  C   UNL     1       4.671  33.034  52.167  1.00  0.00     0.088 A 
HETATM   15  C   UNL     1       5.340  34.546  50.532  1.00  0.00    -0.023 A 
HETATM   16  S   UNL     1       4.239  34.525  52.860  1.00  0.00    -0.074 SA
HETATM   17  N   UNL     1       4.479  31.834  52.755  1.00  0.00    -0.358 N 
HETATM   18  C   UNL     1       4.843  35.381  51.517  1.00  0.00     0.018 A 
HETATM   19  C   UNL     1       4.810  36.869  51.441  1.00  0.00     0.281 C 
HETATM   20  N   UNL     1       5.714  37.387  50.326  1.00  0.00    -0.070 N 
HETATM   21  C   UNL     1       5.555  36.565  49.049  1.00  0.00     0.239 C 
HETATM   22  H   UNL     1       5.382  38.335  50.110  1.00  0.00     0.279 HD
HETATM   23  C   UNL     1       7.144  37.533  50.762  1.00  0.00     0.270 C 
HETATM   24  C   UNL     1       5.922  35.084  49.259  1.00  0.00     0.068 C 
HETATM   25  H   UNL     1       3.836  31.767  53.540  1.00  0.00     0.162 HD
ENDBRANCH   5   8
BRANCH   7  26
HETATM   26  O   UNL     1       5.325  25.905  51.885  1.00  0.00    -0.353 OA
HETATM   27  C   UNL     1       5.059  26.087  50.501  1.00  0.00     0.210 C 
ENDBRANCH   7  26
BRANCH   1  28
HETATM   28  O   UNL     1       5.507  25.854  54.839  1.00  0.00    -0.271 OA
BRANCH  28  29
HETATM   29  C   UNL     1       6.867  25.665  55.020  1.00  0.00     0.298 C 
HETATM   30  O   UNL     1       7.655  26.444  55.535  1.00  0.00    -0.259 OA
BRANCH  29  31
HETATM   31  C   UNL     1       7.243  24.306  54.545  1.00  0.00     0.040 A 
HETATM   32  C   UNL     1       7.612  24.157  53.203  1.00  0.00     0.018 A 
HETATM   33  C   UNL     1       7.998  22.907  52.713  1.00  0.00     0.007 A 
HETATM   34  C   UNL     1       8.021  21.791  53.558  1.00  0.00    -0.062 A 
HETATM   35  C   UNL     1       8.411  20.442  53.028  1.00  0.00     0.048 C 
HETATM   36  C   UNL     1       7.626  21.937  54.893  1.00  0.00     0.007 A 
HETATM   37  C   UNL     1       7.244  23.188  55.388  1.00  0.00     0.018 A 
ENDBRANCH  29  31
ENDBRANCH  28  29
ENDBRANCH   1  28
TORSDOF 5
ENDMDL
MODEL 10
REMARK VINA RESULT:      -9.0      4.907      6.322
REMARK  5 active torsions:
REMARK  status: ('A' for Active; 'I' for Inactive)
REMARK    1  A    between atoms: C_5  and  C_6 
REMARK    2  A    between atoms: C_6  and  O_7 
REMARK    3  A    between atoms: O_7  and  C_8 
REMARK    4  A    between atoms: C_12  and  C_13 
REMARK    5  A    between atoms: C_30  and  O_31 
ROOT
HETATM    1  C   UNL     1       6.268  27.149  55.358  1.00  0.00     0.130 A 
HETATM    2  C   UNL     1       6.434  28.096  56.382  1.00  0.00     0.048 A 
HETATM    3 BR   UNL     1       7.846  27.973  57.647  1.00  0.00    -0.048 Br
HETATM    4  C   UNL     1       5.543  29.165  56.504  1.00  0.00     0.033 A 
HETATM    5  C   UNL     1       4.450  29.287  55.632  1.00  0.00    -0.012 A 
HETATM    6  C   UNL     1       4.288  28.315  54.629  1.00  0.00     0.050 A 
HETATM    7  C   UNL     1       5.170  27.234  54.494  1.00  0.00     0.104 A 
ENDROOT
BRANCH   5   8
HETATM    8  C   UNL     1       3.494  30.456  55.704  1.00  0.00     0.219 C 
HETATM    9  N   UNL     1       3.272  31.004  54.392  1.00  0.00    -0.332 N 
HETATM   10  C   UNL     1       2.675  32.222  54.204  1.00  0.00     0.256 C 
HETATM   11  H   UNL     1       3.153  30.357  53.625  1.00  0.00     0.165 HD
HETATM   12  O   UNL     1       2.135  32.530  53.148  1.00  0.00    -0.267 OA
HETATM   13  C   UNL     1       2.769  33.132  55.333  1.00  0.00     0.073 A 
HETATM   14  C   UNL     1       3.444  32.726  56.462  1.00  0.00     0.088 A 
HETATM   15  C   UNL     1       2.276  34.469  55.459  1.00  0.00    -0.023 A 
HETATM   16  S   UNL     1       3.523  33.940  57.649  1.00  0.00    -0.074 SA
HETATM   17  N   UNL     1       3.993  31.499  56.585  1.00  0.00    -0.358 N 
HETATM   18  C   UNL     1       2.655  35.028  56.667  1.00  0.00     0.018 A 
HETATM   19  C   UNL     1       2.345  36.419  57.102  1.00  0.00     0.281 C 
HETATM   20  N   UNL     1       1.885  37.277  55.927  1.00  0.00    -0.070 N 
HETATM   21  C   UNL     1       0.892  36.526  55.041  1.00  0.00     0.239 C 
HETATM   22  H   UNL     1       1.374  38.068  56.337  1.00  0.00     0.279 HD
HETATM   23  C   UNL     1       3.031  37.871  55.159  1.00  0.00     0.270 C 
HETATM   24  C   UNL     1       1.500  35.247  54.438  1.00  0.00     0.068 C 
HETATM   25  H   UNL     1       4.267  31.173  57.509  1.00  0.00     0.162 HD
ENDBRANCH   5   8
BRANCH   7  26
HETATM   26  O   UNL     1       4.843  26.398  53.464  1.00  0.00    -0.353 OA
HETATM   27  C   UNL     1       4.840  26.939  52.150  1.00  0.00     0.210 C 
ENDBRANCH   7  26
BRANCH   1  28
HETATM   28  O   UNL     1       7.202  26.117  55.230  1.00  0.00    -0.271 OA
BRANCH  28  29
HETATM   29  C   UNL     1       6.813  24.970  55.901  1.00  0.00     0.298 C 
HETATM   30  O   UNL     1       6.186  24.908  56.947  1.00  0.00    -0.259 OA
BRANCH  29  31
HETATM   31  C   UNL     1       7.220  23.776  55.112  1.00  0.00     0.040 A 
HETATM   32  C   UNL     1       7.301  23.904  53.720  1.00  0.00     0.018 A 
HETATM   33  C   UNL     1       7.702  22.820  52.935  1.00  0.00     0.007 A 
HETATM   34  C   UNL     1       8.029  21.597  53.530  1.00  0.00    -0.062 A 
HETATM   35  C   UNL     1       8.437  20.424  52.688  1.00  0.00     0.048 C 
HETATM   36  C   UNL     1       7.922  21.463  54.920  1.00  0.00     0.007 A 
HETATM   37  C   UNL     1       7.525  22.547  55.709  1.00  0.00     0.018 A 
ENDBRANCH  29  31
ENDBRANCH  28  29
ENDBRANCH   1  28
TORSDOF 5
ENDMDL
