MODEL 1
REMARK VINA RESULT:      -9.0      0.000      0.000
REMARK  4 active torsions:
REMARK  status: ('A' for Active; 'I' for Inactive)
REMARK    1  A    between atoms: C_4  and  C_5 
REMARK    2  A    between atoms: C_6  and  C_7 
REMARK       I    between atoms: C_7  and  N_8 
REMARK    3  A    between atoms: N_8  and  C_9 
REMARK    4  A    between atoms: C_11  and  C_12 
ROOT
HETATM    1  C   UNL     1       6.234  25.057  54.416  1.00  0.00     0.035 A 
HETATM    2  C   UNL     1       6.710  23.759  54.635  1.00  0.00     0.042 A 
HETATM    3  C   UNL     1       7.619  23.150  53.750  1.00  0.00    -0.021 A 
HETATM    4  C   UNL     1       8.009  23.859  52.607  1.00  0.00     0.012 A 
HETATM    5  C   UNL     1       7.503  25.134  52.351  1.00  0.00     0.003 A 
HETATM    6  C   UNL     1       6.617  25.726  53.250  1.00  0.00     0.029 A 
ENDROOT
BRANCH   1   7
HETATM    7  N   UNL     1       5.342  25.737  55.269  1.00  0.00    -0.324 N 
HETATM    8  C   UNL     1       5.523  26.616  56.300  1.00  0.00     0.245 C 
HETATM    9  O   UNL     1       4.573  26.891  57.032  1.00  0.00    -0.268 OA
HETATM   10  H   UNL     1       4.358  25.532  55.141  1.00  0.00     0.169 HD
BRANCH   8  11
HETATM   11  C   UNL     1       6.827  27.286  56.472  1.00  0.00     0.077 C 
HETATM   12  C   UNL     1       6.895  28.441  57.151  1.00  0.00     0.042 C 
BRANCH  12  13
HETATM   13  C   UNL     1       8.146  29.079  57.360  1.00  0.00     0.075 A 
HETATM   14  O   UNL     1       8.320  30.187  58.163  1.00  0.00    -0.316 OA
HETATM   15  C   UNL     1       9.627  30.557  58.113  1.00  0.00     0.050 A 
HETATM   16  C   UNL     1      10.004  31.742  58.908  1.00  0.00     0.076 C 
HETATM   17  C   UNL     1      10.328  29.701  57.299  1.00  0.00     0.035 A 
HETATM   18  C   UNL     1       9.384  28.764  56.814  1.00  0.00     0.039 A 
ENDBRANCH  12  13
ENDBRANCH   8  11
ENDBRANCH   1   7
BRANCH   3  19
HETATM   19  C   UNL     1       8.154  21.816  54.006  1.00  0.00     0.010 A 
HETATM   20  C   UNL     1       8.435  20.744  53.120  1.00  0.00     0.152 A 
HETATM   21  N   UNL     1       8.936  19.670  53.737  1.00  0.00    -0.187 NA
HETATM   22  N   UNL     1       8.983  20.045  55.024  1.00  0.00    -0.289 N 
HETATM   23  H   UNL     1       9.337  19.382  55.706  1.00  0.00     0.188 HD
HETATM   24  C   UNL     1       8.534  21.317  55.236  1.00  0.00     0.123 A 
ENDBRANCH   3  19
TORSDOF 4
ENDMDL
MODEL 2
REMARK VINA RESULT:      -8.7      3.265      7.745
REMARK  4 active torsions:
REMARK  status: ('A' for Active; 'I' for Inactive)
REMARK    1  A    between atoms: C_4  and  C_5 
REMARK    2  A    between atoms: C_6  and  C_7 
REMARK       I    between atoms: C_7  and  N_8 
REMARK    3  A    between atoms: N_8  and  C_9 
REMARK    4  A    between atoms: C_11  and  C_12 
ROOT
HETATM    1  C   UNL     1       7.115  27.123  55.018  1.00  0.00     0.035 A 
HETATM    2  C   UNL     1       7.988  28.149  55.398  1.00  0.00     0.042 A 
HETATM    3  C   UNL     1       8.421  28.291  56.730  1.00  0.00    -0.021 A 
HETATM    4  C   UNL     1       7.922  27.401  57.689  1.00  0.00     0.012 A 
HETATM    5  C   UNL     1       7.013  26.404  57.332  1.00  0.00     0.003 A 
HETATM    6  C   UNL     1       6.610  26.271  56.004  1.00  0.00     0.029 A 
ENDROOT
BRANCH   1   7
HETATM    7  N   UNL     1       6.658  26.907  53.703  1.00  0.00    -0.324 N 
HETATM    8  C   UNL     1       6.958  25.974  52.751  1.00  0.00     0.245 C 
HETATM    9  O   UNL     1       6.577  26.147  51.594  1.00  0.00    -0.268 OA
HETATM   10  H   UNL     1       5.993  27.583  53.346  1.00  0.00     0.169 HD
BRANCH   8  11
HETATM   11  C   UNL     1       7.660  24.733  53.136  1.00  0.00     0.077 C 
HETATM   12  C   UNL     1       6.952  23.629  53.415  1.00  0.00     0.042 C 
BRANCH  12  13
HETATM   13  C   UNL     1       7.613  22.417  53.748  1.00  0.00     0.075 A 
HETATM   14  O   UNL     1       8.002  22.079  55.028  1.00  0.00    -0.316 OA
HETATM   15  C   UNL     1       8.632  20.876  54.986  1.00  0.00     0.050 A 
HETATM   16  C   UNL     1       9.133  20.353  56.272  1.00  0.00     0.076 C 
HETATM   17  C   UNL     1       8.655  20.401  53.697  1.00  0.00     0.035 A 
HETATM   18  C   UNL     1       8.012  21.386  52.908  1.00  0.00     0.039 A 
ENDBRANCH  12  13
ENDBRANCH   8  11
ENDBRANCH   1   7
BRANCH   3  19
HETATM   19  C   UNL     1       9.371  29.330  57.116  1.00  0.00     0.010 A 
HETATM   20  C   UNL     1      10.703  29.572  56.692  1.00  0.00     0.152 A 
HETATM   21  N   UNL     1      11.252  30.644  57.271  1.00  0.00    -0.187 NA
HETATM   22  N   UNL     1      10.276  31.101  58.069  1.00  0.00    -0.289 N 
HETATM   23  H   UNL     1      10.457  31.928  58.626  1.00  0.00     0.188 HD
HETATM   24  C   UNL     1       9.133  30.356  58.009  1.00  0.00     0.123 A 
ENDBRANCH   3  19
TORSDOF 4
ENDMDL
MODEL 3
REMARK VINA RESULT:      -8.6      1.286      1.594
REMARK  4 active torsions:
REMARK  status: ('A' for Active; 'I' for Inactive)
REMARK    1  A    between atoms: C_4  and  C_5 
REMARK    2  A    between atoms: C_6  and  C_7 
REMARK       I    between atoms: C_7  and  N_8 
REMARK    3  A    between atoms: N_8  and  C_9 
REMARK    4  A    between atoms: C_11  and  C_12 
ROOT
HETATM    1  C   UNL     1       6.074  25.541  53.669  1.00  0.00     0.035 A 
HETATM    2  C   UNL     1       6.398  24.438  54.467  1.00  0.00     0.042 A 
HETATM    3  C   UNL     1       7.384  23.512  54.077  1.00  0.00    -0.021 A 
HETATM    4  C   UNL     1       8.011  23.692  52.838  1.00  0.00     0.012 A 
HETATM    5  C   UNL     1       7.661  24.759  52.010  1.00  0.00     0.003 A 
HETATM    6  C   UNL     1       6.694  25.675  52.423  1.00  0.00     0.029 A 
ENDROOT
BRANCH   1   7
HETATM    7  N   UNL     1       5.117  26.519  54.005  1.00  0.00    -0.324 N 
HETATM    8  C   UNL     1       5.096  27.527  54.926  1.00  0.00     0.245 C 
HETATM    9  O   UNL     1       4.035  28.102  55.169  1.00  0.00    -0.268 OA
HETATM   10  H   UNL     1       4.239  26.475  53.501  1.00  0.00     0.169 HD
BRANCH   8  11
HETATM   11  C   UNL     1       6.355  27.970  55.558  1.00  0.00     0.077 C 
HETATM   12  C   UNL     1       6.332  28.959  56.463  1.00  0.00     0.042 C 
BRANCH  12  13
HETATM   13  C   UNL     1       7.527  29.371  57.109  1.00  0.00     0.075 A 
HETATM   14  O   UNL     1       8.778  29.295  56.533  1.00  0.00    -0.316 OA
HETATM   15  C   UNL     1       9.696  29.738  57.431  1.00  0.00     0.050 A 
HETATM   16  C   UNL     1      11.106  29.719  56.992  1.00  0.00     0.076 C 
HETATM   17  C   UNL     1       9.072  30.121  58.593  1.00  0.00     0.035 A 
HETATM   18  C   UNL     1       7.691  29.881  58.390  1.00  0.00     0.039 A 
ENDBRANCH  12  13
ENDBRANCH   8  11
ENDBRANCH   1   7
BRANCH   3  19
HETATM   19  C   UNL     1       7.757  22.390  54.934  1.00  0.00     0.010 A 
HETATM   20  C   UNL     1       7.821  20.999  54.664  1.00  0.00     0.152 A 
HETATM   21  N   UNL     1       8.224  20.278  55.714  1.00  0.00    -0.187 NA
HETATM   22  N   UNL     1       8.425  21.201  56.666  1.00  0.00    -0.289 N 
HETATM   23  H   UNL     1       8.742  20.891  57.579  1.00  0.00     0.188 HD
HETATM   24  C   UNL     1       8.166  22.476  56.250  1.00  0.00     0.123 A 
ENDBRANCH   3  19
TORSDOF 4
ENDMDL
MODEL 4
REMARK VINA RESULT:      -8.3      3.606      8.235
REMARK  4 active torsions:
REMARK  status: ('A' for Active; 'I' for Inactive)
REMARK    1  A    between atoms: C_4  and  C_5 
REMARK    2  A    between atoms: C_6  and  C_7 
REMARK       I    between atoms: C_7  and  N_8 
REMARK    3  A    between atoms: N_8  and  C_9 
REMARK    4  A    between atoms: C_11  and  C_12 
ROOT
HETATM    1  C   UNL     1       8.330  29.355  55.895  1.00  0.00     0.035 A 
HETATM    2  C   UNL     1       7.894  29.736  57.169  1.00  0.00     0.042 A 
HETATM    3  C   UNL     1       8.797  30.170  58.157  1.00  0.00    -0.021 A 
HETATM    4  C   UNL     1      10.164  30.170  57.853  1.00  0.00     0.012 A 
HETATM    5  C   UNL     1      10.616  29.746  56.603  1.00  0.00     0.003 A 
HETATM    6  C   UNL     1       9.703  29.336  55.633  1.00  0.00     0.029 A 
ENDROOT
BRANCH   1   7
HETATM    7  N   UNL     1       7.483  28.933  54.851  1.00  0.00    -0.324 N 
HETATM    8  C   UNL     1       7.144  27.703  54.363  1.00  0.00     0.245 C 
HETATM    9  O   UNL     1       6.550  27.622  53.288  1.00  0.00    -0.268 OA
HETATM   10  H   UNL     1       7.043  29.668  54.310  1.00  0.00     0.169 HD
BRANCH   8  11
HETATM   11  C   UNL     1       7.417  26.494  55.166  1.00  0.00     0.077 C 
HETATM   12  C   UNL     1       7.473  25.297  54.564  1.00  0.00     0.042 C 
BRANCH  12  13
HETATM   13  C   UNL     1       7.773  24.129  55.314  1.00  0.00     0.075 A 
HETATM   14  O   UNL     1       7.547  22.845  54.864  1.00  0.00    -0.316 OA
HETATM   15  C   UNL     1       7.915  21.973  55.838  1.00  0.00     0.050 A 
HETATM   16  C   UNL     1       7.733  20.539  55.538  1.00  0.00     0.076 C 
HETATM   17  C   UNL     1       8.397  22.658  56.927  1.00  0.00     0.035 A 
HETATM   18  C   UNL     1       8.300  24.032  56.596  1.00  0.00     0.039 A 
ENDBRANCH  12  13
ENDBRANCH   8  11
ENDBRANCH   1   7
BRANCH   3  19
HETATM   19  C   UNL     1       8.336  30.616  59.469  1.00  0.00     0.010 A 
HETATM   20  C   UNL     1       8.942  30.517  60.747  1.00  0.00     0.152 A 
HETATM   21  N   UNL     1       8.206  31.061  61.721  1.00  0.00    -0.187 NA
HETATM   22  N   UNL     1       7.123  31.516  61.075  1.00  0.00    -0.289 N 
HETATM   23  H   UNL     1       6.400  31.981  61.614  1.00  0.00     0.188 HD
HETATM   24  C   UNL     1       7.154  31.281  59.730  1.00  0.00     0.123 A 
ENDBRANCH   3  19
TORSDOF 4
ENDMDL
MODEL 5
REMARK VINA RESULT:      -7.9      3.455      5.869
REMARK  4 active torsions:
REMARK  status: ('A' for Active; 'I' for Inactive)
REMARK    1  A    between atoms: C_4  and  C_5 
REMARK    2  A    between atoms: C_6  and  C_7 
REMARK       I    between atoms: C_7  and  N_8 
REMARK    3  A    between atoms: N_8  and  C_9 
REMARK    4  A    between atoms: C_11  and  C_12 
ROOT
HETATM    1  C   UNL     1       8.441  29.262  57.383  1.00  0.00     0.035 A 
HETATM    2  C   UNL     1       8.619  27.882  57.234  1.00  0.00     0.042 A 
HETATM    3  C   UNL     1       7.524  27.008  57.097  1.00  0.00    -0.021 A 
HETATM    4  C   UNL     1       6.233  27.548  57.158  1.00  0.00     0.012 A 
HETATM    5  C   UNL     1       6.041  28.916  57.356  1.00  0.00     0.003 A 
HETATM    6  C   UNL     1       7.140  29.765  57.473  1.00  0.00     0.029 A 
ENDROOT
BRANCH   1   7
HETATM    7  N   UNL     1       9.488  30.197  57.503  1.00  0.00    -0.324 N 
HETATM    8  C   UNL     1       9.753  31.194  58.399  1.00  0.00     0.245 C 
HETATM    9  O   UNL     1      10.630  32.018  58.143  1.00  0.00    -0.268 OA
HETATM   10  H   UNL     1      10.191  30.174  56.773  1.00  0.00     0.169 HD
BRANCH   8  11
HETATM   11  C   UNL     1       9.046  31.222  59.695  1.00  0.00     0.077 C 
HETATM   12  C   UNL     1       8.686  32.398  60.229  1.00  0.00     0.042 C 
BRANCH  12  13
HETATM   13  C   UNL     1       7.971  32.442  61.454  1.00  0.00     0.075 A 
HETATM   14  O   UNL     1       6.616  32.685  61.547  1.00  0.00    -0.316 OA
HETATM   15  C   UNL     1       6.265  32.690  62.859  1.00  0.00     0.050 A 
HETATM   16  C   UNL     1       4.843  32.948  63.157  1.00  0.00     0.076 C 
HETATM   17  C   UNL     1       7.366  32.440  63.642  1.00  0.00     0.035 A 
HETATM   18  C   UNL     1       8.453  32.289  62.748  1.00  0.00     0.039 A 
ENDBRANCH  12  13
ENDBRANCH   8  11
ENDBRANCH   1   7
BRANCH   3  19
HETATM   19  C   UNL     1       7.713  25.576  56.890  1.00  0.00     0.010 A 
HETATM   20  C   UNL     1       8.671  24.680  57.431  1.00  0.00     0.152 A 
HETATM   21  N   UNL     1       8.513  23.423  57.008  1.00  0.00    -0.187 NA
HETATM   22  N   UNL     1       7.450  23.500  56.194  1.00  0.00    -0.289 N 
HETATM   23  H   UNL     1       7.127  22.652  55.740  1.00  0.00     0.188 HD
HETATM   24  C   UNL     1       6.933  24.760  56.094  1.00  0.00     0.123 A 
ENDBRANCH   3  19
TORSDOF 4
ENDMDL
MODEL 6
REMARK VINA RESULT:      -7.7      1.637      2.245
REMARK  4 active torsions:
REMARK  status: ('A' for Active; 'I' for Inactive)
REMARK    1  A    between atoms: C_4  and  C_5 
REMARK    2  A    between atoms: C_6  and  C_7 
REMARK       I    between atoms: C_7  and  N_8 
REMARK    3  A    between atoms: N_8  and  C_9 
REMARK    4  A    between atoms: C_11  and  C_12 
ROOT
HETATM    1  C   UNL     1       6.774  25.286  55.681  1.00  0.00     0.035 A 
HETATM    2  C   UNL     1       6.987  24.133  54.916  1.00  0.00     0.042 A 
HETATM    3  C   UNL     1       7.983  23.198  55.256  1.00  0.00    -0.021 A 
HETATM    4  C   UNL     1       8.797  23.468  56.363  1.00  0.00     0.012 A 
HETATM    5  C   UNL     1       8.627  24.638  57.104  1.00  0.00     0.003 A 
HETATM    6  C   UNL     1       7.624  25.542  56.760  1.00  0.00     0.029 A 
ENDROOT
BRANCH   1   7
HETATM    7  N   UNL     1       5.784  26.252  55.414  1.00  0.00    -0.324 N 
HETATM    8  C   UNL     1       5.402  27.399  56.051  1.00  0.00     0.245 C 
HETATM    9  O   UNL     1       4.348  27.946  55.728  1.00  0.00    -0.268 OA
HETATM   10  H   UNL     1       5.194  26.075  54.609  1.00  0.00     0.169 HD
BRANCH   8  11
HETATM   11  C   UNL     1       6.293  28.011  57.056  1.00  0.00     0.077 C 
HETATM   12  C   UNL     1       6.372  29.347  57.147  1.00  0.00     0.042 C 
BRANCH  12  13
HETATM   13  C   UNL     1       7.194  29.952  58.134  1.00  0.00     0.075 A 
HETATM   14  O   UNL     1       6.812  31.040  58.892  1.00  0.00    -0.316 OA
HETATM   15  C   UNL     1       7.842  31.381  59.709  1.00  0.00     0.050 A 
HETATM   16  C   UNL     1       7.620  32.541  60.595  1.00  0.00     0.076 C 
HETATM   17  C   UNL     1       8.901  30.528  59.515  1.00  0.00     0.035 A 
HETATM   18  C   UNL     1       8.491  29.622  58.507  1.00  0.00     0.039 A 
ENDBRANCH  12  13
ENDBRANCH   8  11
ENDBRANCH   1   7
BRANCH   3  19
HETATM   19  C   UNL     1       8.170  21.971  54.487  1.00  0.00     0.010 A 
HETATM   20  C   UNL     1       8.638  20.691  54.883  1.00  0.00     0.152 A 
HETATM   21  N   UNL     1       8.657  19.807  53.883  1.00  0.00    -0.187 NA
HETATM   22  N   UNL     1       8.200  20.510  52.836  1.00  0.00    -0.289 N 
HETATM   23  H   UNL     1       8.121  20.043  51.939  1.00  0.00     0.188 HD
HETATM   24  C   UNL     1       7.890  21.803  53.146  1.00  0.00     0.123 A 
ENDBRANCH   3  19
TORSDOF 4
ENDMDL
MODEL 7
REMARK VINA RESULT:      -7.6      8.257     11.661
REMARK  4 active torsions:
REMARK  status: ('A' for Active; 'I' for Inactive)
REMARK    1  A    between atoms: C_4  and  C_5 
REMARK    2  A    between atoms: C_6  and  C_7 
REMARK       I    between atoms: C_7  and  N_8 
REMARK    3  A    between atoms: N_8  and  C_9 
REMARK    4  A    between atoms: C_11  and  C_12 
ROOT
HETATM    1  C   UNL     1       5.576  32.760  63.310  1.00  0.00     0.035 A 
HETATM    2  C   UNL     1       6.000  32.217  62.091  1.00  0.00     0.042 A 
HETATM    3  C   UNL     1       7.359  31.951  61.837  1.00  0.00    -0.021 A 
HETATM    4  C   UNL     1       8.296  32.287  62.822  1.00  0.00     0.012 A 
HETATM    5  C   UNL     1       7.891  32.876  64.020  1.00  0.00     0.003 A 
HETATM    6  C   UNL     1       6.539  33.114  64.259  1.00  0.00     0.029 A 
ENDROOT
BRANCH   1   7
HETATM    7  N   UNL     1       4.234  33.030  63.642  1.00  0.00    -0.324 N 
HETATM    8  C   UNL     1       3.545  34.185  63.884  1.00  0.00     0.245 C 
HETATM    9  O   UNL     1       2.420  34.125  64.378  1.00  0.00    -0.268 OA
HETATM   10  H   UNL     1       3.634  32.222  63.765  1.00  0.00     0.169 HD
BRANCH   8  11
HETATM   11  C   UNL     1       4.122  35.482  63.476  1.00  0.00     0.077 C 
HETATM   12  C   UNL     1       4.759  36.239  64.380  1.00  0.00     0.042 C 
BRANCH  12  13
HETATM   13  C   UNL     1       5.354  37.470  63.996  1.00  0.00     0.075 A 
HETATM   14  O   UNL     1       5.575  38.521  64.862  1.00  0.00    -0.316 OA
HETATM   15  C   UNL     1       6.124  39.549  64.163  1.00  0.00     0.050 A 
HETATM   16  C   UNL     1       6.423  40.775  64.928  1.00  0.00     0.076 C 
HETATM   17  C   UNL     1       6.284  39.192  62.847  1.00  0.00     0.035 A 
HETATM   18  C   UNL     1       5.787  37.870  62.738  1.00  0.00     0.039 A 
ENDBRANCH  12  13
ENDBRANCH   8  11
ENDBRANCH   1   7
BRANCH   3  19
HETATM   19  C   UNL     1       7.794  31.337  60.586  1.00  0.00     0.010 A 
HETATM   20  C   UNL     1       8.855  30.435  60.316  1.00  0.00     0.152 A 
HETATM   21  N   UNL     1       8.931  30.083  59.030  1.00  0.00    -0.187 NA
HETATM   22  N   UNL     1       7.918  30.754  58.464  1.00  0.00    -0.289 N 
HETATM   23  H   UNL     1       7.767  30.647  57.466  1.00  0.00     0.188 HD
HETATM   24  C   UNL     1       7.206  31.512  59.349  1.00  0.00     0.123 A 
ENDBRANCH   3  19
TORSDOF 4
ENDMDL
MODEL 8
REMARK VINA RESULT:      -7.5      3.215      5.743
REMARK  4 active torsions:
REMARK  status: ('A' for Active; 'I' for Inactive)
REMARK    1  A    between atoms: C_4  and  C_5 
REMARK    2  A    between atoms: C_6  and  C_7 
REMARK       I    between atoms: C_7  and  N_8 
REMARK    3  A    between atoms: N_8  and  C_9 
REMARK    4  A    between atoms: C_11  and  C_12 
ROOT
HETATM    1  C   UNL     1       7.295  25.528  54.223  1.00  0.00     0.035 A 
HETATM    2  C   UNL     1       7.540  24.355  54.947  1.00  0.00     0.042 A 
HETATM    3  C   UNL     1       7.992  23.181  54.315  1.00  0.00    -0.021 A 
HETATM    4  C   UNL     1       8.153  23.195  52.924  1.00  0.00     0.012 A 
HETATM    5  C   UNL     1       7.864  24.343  52.185  1.00  0.00     0.003 A 
HETATM    6  C   UNL     1       7.434  25.500  52.832  1.00  0.00     0.029 A 
ENDROOT
BRANCH   1   7
HETATM    7  N   UNL     1       6.863  26.743  54.790  1.00  0.00    -0.324 N 
HETATM    8  C   UNL     1       6.454  27.931  54.254  1.00  0.00     0.245 C 
HETATM    9  O   UNL     1       6.344  28.917  54.982  1.00  0.00    -0.268 OA
HETATM   10  H   UNL     1       6.877  26.792  55.802  1.00  0.00     0.169 HD
BRANCH   8  11
HETATM   11  C   UNL     1       6.070  27.999  52.830  1.00  0.00     0.077 C 
HETATM   12  C   UNL     1       4.789  27.815  52.478  1.00  0.00     0.042 C 
BRANCH  12  13
HETATM   13  C   UNL     1       4.395  27.916  51.118  1.00  0.00     0.075 A 
HETATM   14  O   UNL     1       4.711  26.981  50.154  1.00  0.00    -0.316 OA
HETATM   15  C   UNL     1       4.210  27.401  48.963  1.00  0.00     0.050 A 
HETATM   16  C   UNL     1       4.462  26.527  47.800  1.00  0.00     0.076 C 
HETATM   17  C   UNL     1       3.552  28.596  49.123  1.00  0.00     0.035 A 
HETATM   18  C   UNL     1       3.676  28.927  50.494  1.00  0.00     0.039 A 
ENDBRANCH  12  13
ENDBRANCH   8  11
ENDBRANCH   1   7
BRANCH   3  19
HETATM   19  C   UNL     1       8.296  21.974  55.078  1.00  0.00     0.010 A 
HETATM   20  C   UNL     1       8.468  21.777  56.472  1.00  0.00     0.152 A 
HETATM   21  N   UNL     1       8.728  20.508  56.796  1.00  0.00    -0.187 NA
HETATM   22  N   UNL     1       8.723  19.878  55.612  1.00  0.00    -0.289 N 
HETATM   23  H   UNL     1       8.900  18.879  55.597  1.00  0.00     0.188 HD
HETATM   24  C   UNL     1       8.465  20.706  54.557  1.00  0.00     0.123 A 
ENDBRANCH   3  19
TORSDOF 4
ENDMDL
MODEL 9
REMARK VINA RESULT:      -7.3      6.320      9.707
REMARK  4 active torsions:
REMARK  status: ('A' for Active; 'I' for Inactive)
REMARK    1  A    between atoms: C_4  and  C_5 
REMARK    2  A    between atoms: C_6  and  C_7 
REMARK       I    between atoms: C_7  and  N_8 
REMARK    3  A    between atoms: N_8  and  C_9 
REMARK    4  A    between atoms: C_11  and  C_12 
ROOT
HETATM    1  C   UNL     1       7.749  31.298  61.462  1.00  0.00     0.035 A 
HETATM    2  C   UNL     1       7.943  30.826  60.159  1.00  0.00     0.042 A 
HETATM    3  C   UNL     1       9.180  30.965  59.503  1.00  0.00    -0.021 A 
HETATM    4  C   UNL     1      10.214  31.633  60.169  1.00  0.00     0.012 A 
HETATM    5  C   UNL     1      10.018  32.153  61.449  1.00  0.00     0.003 A 
HETATM    6  C   UNL     1       8.790  31.990  62.088  1.00  0.00     0.029 A 
ENDROOT
BRANCH   1   7
HETATM    7  N   UNL     1       6.548  31.174  62.188  1.00  0.00    -0.324 N 
HETATM    8  C   UNL     1       5.729  32.080  62.801  1.00  0.00     0.245 C 
HETATM    9  O   UNL     1       4.851  31.680  63.565  1.00  0.00    -0.268 OA
HETATM   10  H   UNL     1       6.209  30.230  62.331  1.00  0.00     0.169 HD
BRANCH   8  11
HETATM   11  C   UNL     1       5.850  33.516  62.477  1.00  0.00     0.077 C 
HETATM   12  C   UNL     1       5.058  34.405  63.094  1.00  0.00     0.042 C 
BRANCH  12  13
HETATM   13  C   UNL     1       5.189  35.792  62.825  1.00  0.00     0.075 A 
HETATM   14  O   UNL     1       5.908  36.666  63.614  1.00  0.00    -0.316 OA
HETATM   15  C   UNL     1       5.798  37.914  63.090  1.00  0.00     0.050 A 
HETATM   16  C   UNL     1       6.498  38.993  63.814  1.00  0.00     0.076 C 
HETATM   17  C   UNL     1       5.026  37.883  61.954  1.00  0.00     0.035 A 
HETATM   18  C   UNL     1       4.632  36.532  61.789  1.00  0.00     0.039 A 
ENDBRANCH  12  13
ENDBRANCH   8  11
ENDBRANCH   1   7
BRANCH   3  19
HETATM   19  C   UNL     1       9.397  30.426  58.163  1.00  0.00     0.010 A 
HETATM   20  C   UNL     1       8.559  29.635  57.335  1.00  0.00     0.152 A 
HETATM   21  N   UNL     1       9.110  29.346  56.153  1.00  0.00    -0.187 NA
HETATM   22  N   UNL     1      10.306  29.950  56.211  1.00  0.00    -0.289 N 
HETATM   23  H   UNL     1      10.925  29.872  55.411  1.00  0.00     0.188 HD
HETATM   24  C   UNL     1      10.523  30.612  57.386  1.00  0.00     0.123 A 
ENDBRANCH   3  19
TORSDOF 4
ENDMDL
MODEL 10
REMARK VINA RESULT:      -7.3      8.959     12.967
REMARK  4 active torsions:
REMARK  status: ('A' for Active; 'I' for Inactive)
REMARK    1  A    between atoms: C_4  and  C_5 
REMARK    2  A    between atoms: C_6  and  C_7 
REMARK       I    between atoms: C_7  and  N_8 
REMARK    3  A    between atoms: N_8  and  C_9 
REMARK    4  A    between atoms: C_11  and  C_12 
ROOT
HETATM    1  C   UNL     1       6.001  34.193  63.633  1.00  0.00     0.035 A 
HETATM    2  C   UNL     1       5.970  33.784  62.295  1.00  0.00     0.042 A 
HETATM    3  C   UNL     1       6.924  32.888  61.777  1.00  0.00    -0.021 A 
HETATM    4  C   UNL     1       7.945  32.441  62.625  1.00  0.00     0.012 A 
HETATM    5  C   UNL     1       8.016  32.879  63.947  1.00  0.00     0.003 A 
HETATM    6  C   UNL     1       7.051  33.754  64.445  1.00  0.00     0.029 A 
ENDROOT
BRANCH   1   7
HETATM    7  N   UNL     1       5.069  35.067  64.226  1.00  0.00    -0.324 N 
HETATM    8  C   UNL     1       4.553  35.168  65.487  1.00  0.00     0.245 C 
HETATM    9  O   UNL     1       3.575  35.889  65.683  1.00  0.00    -0.268 OA
HETATM   10  H   UNL     1       4.651  35.756  63.611  1.00  0.00     0.169 HD
BRANCH   8  11
HETATM   11  C   UNL     1       5.221  34.480  66.610  1.00  0.00     0.077 C 
HETATM   12  C   UNL     1       5.513  35.163  67.726  1.00  0.00     0.042 C 
BRANCH  12  13
HETATM   13  C   UNL     1       6.120  34.508  68.831  1.00  0.00     0.075 A 
HETATM   14  O   UNL     1       5.506  33.519  69.571  1.00  0.00    -0.316 OA
HETATM   15  C   UNL     1       6.348  33.137  70.566  1.00  0.00     0.050 A 
HETATM   16  C   UNL     1       5.853  32.085  71.476  1.00  0.00     0.076 C 
HETATM   17  C   UNL     1       7.520  33.848  70.491  1.00  0.00     0.035 A 
HETATM   18  C   UNL     1       7.372  34.727  69.390  1.00  0.00     0.039 A 
ENDBRANCH  12  13
ENDBRANCH   8  11
ENDBRANCH   1   7
BRANCH   3  19
HETATM   19  C   UNL     1       6.860  32.423  60.394  1.00  0.00     0.010 A 
HETATM   20  C   UNL     1       7.849  31.827  59.570  1.00  0.00     0.152 A 
HETATM   21  N   UNL     1       7.402  31.523  58.349  1.00  0.00    -0.187 NA
HETATM   22  N   UNL     1       6.121  31.921  58.378  1.00  0.00    -0.289 N 
HETATM   23  H   UNL     1       5.557  31.792  57.545  1.00  0.00     0.188 HD
HETATM   24  C   UNL     1       5.747  32.459  59.577  1.00  0.00     0.123 A 
ENDBRANCH   3  19
TORSDOF 4
ENDMDL
