MODEL 1
REMARK VINA RESULT:     -10.0      0.000      0.000
REMARK  6 active torsions:
REMARK  status: ('A' for Active; 'I' for Inactive)
REMARK    1  A    between atoms: O_2  and  C_3 
REMARK    2  A    between atoms: C_6  and  C_7 
REMARK    3  A    between atoms: C_7  and  N_8 
REMARK       I    between atoms: N_8  and  C_9 
REMARK    4  A    between atoms: C_9  and  C_10 
REMARK    5  A    between atoms: C_13  and  C_14 
REMARK    6  A    between atoms: C_19  and  C_20 
ROOT
HETATM    1  C   UNL     1       6.893  28.935  57.123  1.00  0.00     0.096 A 
HETATM    2  C   UNL     1       6.924  28.447  55.829  1.00  0.00     0.138 A 
HETATM    3  N   UNL     1       5.611  28.389  55.418  1.00  0.00    -0.240 N 
HETATM    4  C   UNL     1       5.188  27.968  54.093  1.00  0.00     0.221 C 
HETATM    5  C   UNL     1       6.359  28.123  53.105  1.00  0.00     0.066 C 
HETATM    6  C   UNL     1       7.651  27.514  53.667  1.00  0.00     0.118 C 
HETATM    7  N   UNL     1       7.926  28.089  54.983  1.00  0.00    -0.365 N 
HETATM    8  N   UNL     1       4.732  28.725  56.372  1.00  0.00    -0.181 NA
HETATM    9  C   UNL     1       5.511  29.103  57.388  1.00  0.00     0.160 A 
HETATM   10  H   UNL     1       8.900  28.324  55.162  1.00  0.00     0.161 HD
ENDROOT
BRANCH   1  11
HETATM   11  C   UNL     1       7.975  29.244  58.036  1.00  0.00     0.257 C 
HETATM   12  N   UNL     1       7.628  30.040  59.103  1.00  0.00    -0.352 N 
HETATM   13  H   UNL     1       6.742  30.525  59.060  1.00  0.00     0.163 HD
HETATM   14  O   UNL     1       9.117  28.839  57.845  1.00  0.00    -0.267 OA
BRANCH  12  15
HETATM   15  C   UNL     1       8.582  30.418  60.119  1.00  0.00     0.161 C 
BRANCH  15  16
HETATM   16  C   UNL     1       8.024  31.431  61.084  1.00  0.00    -0.040 A 
HETATM   17  C   UNL     1       6.901  32.198  60.745  1.00  0.00     0.011 A 
HETATM   18  C   UNL     1       6.338  33.090  61.665  1.00  0.00     0.037 A 
HETATM   19  C   UNL     1       6.888  33.224  62.940  1.00  0.00     0.068 A 
HETATM   20  C   UNL     1       8.024  32.484  63.273  1.00  0.00     0.037 A 
HETATM   21  C   UNL     1       8.584  31.588  62.359  1.00  0.00     0.011 A 
BRANCH  19  22
HETATM   22  O   UNL     1       6.420  34.044  63.929  1.00  0.00    -0.356 OA
HETATM   23  C   UNL     1       6.923  33.803  65.238  1.00  0.00     0.210 C 
ENDBRANCH  19  22
ENDBRANCH  15  16
ENDBRANCH  12  15
ENDBRANCH   1  11
BRANCH   4  24
HETATM   24  C   UNL     1       4.001  28.761  53.584  1.00  0.00     0.409 C 
HETATM   25  F   UNL     1       3.634  29.748  54.433  1.00  0.00    -0.169 F 
HETATM   26  F   UNL     1       4.335  29.372  52.412  1.00  0.00    -0.169 F 
HETATM   27  F   UNL     1       2.919  28.005  53.311  1.00  0.00    -0.169 F 
ENDBRANCH   4  24
BRANCH   6  28
HETATM   28  C   UNL     1       7.628  25.991  53.675  1.00  0.00    -0.035 A 
HETATM   29  C   UNL     1       7.801  25.299  52.461  1.00  0.00     0.009 A 
HETATM   30  C   UNL     1       7.757  23.904  52.413  1.00  0.00     0.001 A 
HETATM   31  C   UNL     1       7.550  23.173  53.578  1.00  0.00     0.000 A 
HETATM   32  C   UNL     1       7.389  23.836  54.791  1.00  0.00     0.001 A 
HETATM   33  C   UNL     1       7.427  25.232  54.839  1.00  0.00     0.009 A 
ENDBRANCH   6  28
TORSDOF 6
ENDMDL
MODEL 2
REMARK VINA RESULT:      -9.9      2.721      4.643
REMARK  6 active torsions:
REMARK  status: ('A' for Active; 'I' for Inactive)
REMARK    1  A    between atoms: O_2  and  C_3 
REMARK    2  A    between atoms: C_6  and  C_7 
REMARK    3  A    between atoms: C_7  and  N_8 
REMARK       I    between atoms: N_8  and  C_9 
REMARK    4  A    between atoms: C_9  and  C_10 
REMARK    5  A    between atoms: C_13  and  C_14 
REMARK    6  A    between atoms: C_19  and  C_20 
ROOT
HETATM    1  C   UNL     1       8.751  30.296  58.329  1.00  0.00     0.096 A 
HETATM    2  C   UNL     1       7.521  29.860  57.871  1.00  0.00     0.138 A 
HETATM    3  N   UNL     1       7.793  28.876  56.946  1.00  0.00    -0.240 N 
HETATM    4  C   UNL     1       6.776  28.112  56.244  1.00  0.00     0.221 C 
HETATM    5  C   UNL     1       5.455  28.164  57.034  1.00  0.00     0.066 C 
HETATM    6  C   UNL     1       5.107  29.599  57.452  1.00  0.00     0.118 C 
HETATM    7  N   UNL     1       6.236  30.182  58.175  1.00  0.00    -0.365 N 
HETATM    8  N   UNL     1       9.101  28.701  56.714  1.00  0.00    -0.181 NA
HETATM    9  C   UNL     1       9.681  29.526  57.588  1.00  0.00     0.160 A 
HETATM   10  H   UNL     1       5.992  30.731  58.996  1.00  0.00     0.161 HD
ENDROOT
BRANCH   1  11
HETATM   11  C   UNL     1       9.081  31.284  59.337  1.00  0.00     0.257 C 
HETATM   12  N   UNL     1       8.862  30.888  60.636  1.00  0.00    -0.352 N 
HETATM   13  H   UNL     1       8.297  30.064  60.788  1.00  0.00     0.163 HD
HETATM   14  O   UNL     1       9.500  32.397  59.038  1.00  0.00    -0.267 OA
BRANCH  12  15
HETATM   15  C   UNL     1       9.163  31.743  61.759  1.00  0.00     0.161 C 
BRANCH  15  16
HETATM   16  C   UNL     1       7.932  32.128  62.537  1.00  0.00    -0.040 A 
HETATM   17  C   UNL     1       6.663  31.697  62.126  1.00  0.00     0.011 A 
HETATM   18  C   UNL     1       5.524  31.994  62.884  1.00  0.00     0.037 A 
HETATM   19  C   UNL     1       5.640  32.724  64.067  1.00  0.00     0.068 A 
HETATM   20  C   UNL     1       6.897  33.181  64.466  1.00  0.00     0.037 A 
HETATM   21  C   UNL     1       8.036  32.881  63.714  1.00  0.00     0.011 A 
BRANCH  19  22
HETATM   22  O   UNL     1       4.610  33.060  64.901  1.00  0.00    -0.356 OA
HETATM   23  C   UNL     1       4.943  33.876  66.017  1.00  0.00     0.210 C 
ENDBRANCH  19  22
ENDBRANCH  15  16
ENDBRANCH  12  15
ENDBRANCH   1  11
BRANCH   4  24
HETATM   24  C   UNL     1       7.176  26.665  56.038  1.00  0.00     0.409 C 
HETATM   25  F   UNL     1       6.108  25.846  55.900  1.00  0.00    -0.169 F 
HETATM   26  F   UNL     1       7.891  26.555  54.883  1.00  0.00    -0.169 F 
HETATM   27  F   UNL     1       7.969  26.176  57.012  1.00  0.00    -0.169 F 
ENDBRANCH   4  24
BRANCH   6  28
HETATM   28  C   UNL     1       4.644  30.456  56.280  1.00  0.00    -0.035 A 
HETATM   29  C   UNL     1       3.860  29.864  55.271  1.00  0.00     0.009 A 
HETATM   30  C   UNL     1       3.437  30.601  54.162  1.00  0.00     0.001 A 
HETATM   31  C   UNL     1       3.780  31.944  54.046  1.00  0.00     0.000 A 
HETATM   32  C   UNL     1       4.545  32.551  55.038  1.00  0.00     0.001 A 
HETATM   33  C   UNL     1       4.973  31.814  56.145  1.00  0.00     0.009 A 
ENDBRANCH   6  28
TORSDOF 6
ENDMDL
MODEL 3
REMARK VINA RESULT:      -9.8      4.120      8.313
REMARK  6 active torsions:
REMARK  status: ('A' for Active; 'I' for Inactive)
REMARK    1  A    between atoms: O_2  and  C_3 
REMARK    2  A    between atoms: C_6  and  C_7 
REMARK    3  A    between atoms: C_7  and  N_8 
REMARK       I    between atoms: N_8  and  C_9 
REMARK    4  A    between atoms: C_9  and  C_10 
REMARK    5  A    between atoms: C_13  and  C_14 
REMARK    6  A    between atoms: C_19  and  C_20 
ROOT
HETATM    1  C   UNL     1       5.619  27.895  53.729  1.00  0.00     0.096 A 
HETATM    2  C   UNL     1       5.918  28.261  55.029  1.00  0.00     0.138 A 
HETATM    3  N   UNL     1       5.274  29.461  55.238  1.00  0.00    -0.240 N 
HETATM    4  C   UNL     1       5.287  30.185  56.498  1.00  0.00     0.221 C 
HETATM    5  C   UNL     1       5.627  29.217  57.646  1.00  0.00     0.066 C 
HETATM    6  C   UNL     1       6.851  28.354  57.308  1.00  0.00     0.118 C 
HETATM    7  N   UNL     1       6.631  27.680  56.029  1.00  0.00    -0.365 N 
HETATM    8  N   UNL     1       4.651  29.935  54.151  1.00  0.00    -0.181 NA
HETATM    9  C   UNL     1       4.819  28.963  53.252  1.00  0.00     0.160 A 
HETATM   10  H   UNL     1       6.930  26.708  55.991  1.00  0.00     0.161 HD
ENDROOT
BRANCH   1  11
HETATM   11  C   UNL     1       5.985  26.710  52.979  1.00  0.00     0.257 C 
HETATM   12  N   UNL     1       7.309  26.348  53.071  1.00  0.00    -0.352 N 
HETATM   13  H   UNL     1       7.957  27.026  53.448  1.00  0.00     0.163 HD
HETATM   14  O   UNL     1       5.169  26.101  52.296  1.00  0.00    -0.267 OA
BRANCH  12  15
HETATM   15  C   UNL     1       7.831  25.178  52.407  1.00  0.00     0.161 C 
BRANCH  15  16
HETATM   16  C   UNL     1       7.766  23.947  53.273  1.00  0.00    -0.040 A 
HETATM   17  C   UNL     1       7.929  22.672  52.716  1.00  0.00     0.011 A 
HETATM   18  C   UNL     1       7.939  21.531  53.528  1.00  0.00     0.037 A 
HETATM   19  C   UNL     1       7.789  21.651  54.909  1.00  0.00     0.068 A 
HETATM   20  C   UNL     1       7.597  22.916  55.466  1.00  0.00     0.037 A 
HETATM   21  C   UNL     1       7.593  24.057  54.659  1.00  0.00     0.011 A 
BRANCH  19  22
HETATM   22  O   UNL     1       7.800  20.619  55.806  1.00  0.00    -0.356 OA
HETATM   23  C   UNL     1       9.036  20.372  56.467  1.00  0.00     0.210 C 
ENDBRANCH  19  22
ENDBRANCH  15  16
ENDBRANCH  12  15
ENDBRANCH   1  11
BRANCH   4  24
HETATM   24  C   UNL     1       3.962  30.859  56.793  1.00  0.00     0.409 C 
HETATM   25  F   UNL     1       2.908  30.029  56.619  1.00  0.00    -0.169 F 
HETATM   26  F   UNL     1       3.932  31.242  58.101  1.00  0.00    -0.169 F 
HETATM   27  F   UNL     1       3.749  31.979  56.075  1.00  0.00    -0.169 F 
ENDBRANCH   4  24
BRANCH   6  28
HETATM   28  C   UNL     1       8.154  29.142  57.350  1.00  0.00    -0.035 A 
HETATM   29  C   UNL     1       9.045  29.047  56.264  1.00  0.00     0.009 A 
HETATM   30  C   UNL     1      10.265  29.726  56.269  1.00  0.00     0.001 A 
HETATM   31  C   UNL     1      10.615  30.520  57.356  1.00  0.00     0.000 A 
HETATM   32  C   UNL     1       9.745  30.637  58.437  1.00  0.00     0.001 A 
HETATM   33  C   UNL     1       8.526  29.954  58.434  1.00  0.00     0.009 A 
ENDBRANCH   6  28
TORSDOF 6
ENDMDL
MODEL 4
REMARK VINA RESULT:      -9.7      2.240      3.476
REMARK  6 active torsions:
REMARK  status: ('A' for Active; 'I' for Inactive)
REMARK    1  A    between atoms: O_2  and  C_3 
REMARK    2  A    between atoms: C_6  and  C_7 
REMARK    3  A    between atoms: C_7  and  N_8 
REMARK       I    between atoms: N_8  and  C_9 
REMARK    4  A    between atoms: C_9  and  C_10 
REMARK    5  A    between atoms: C_13  and  C_14 
REMARK    6  A    between atoms: C_19  and  C_20 
ROOT
HETATM    1  C   UNL     1       6.871  26.710  56.082  1.00  0.00     0.096 A 
HETATM    2  C   UNL     1       7.202  25.795  55.100  1.00  0.00     0.138 A 
HETATM    3  N   UNL     1       6.055  25.606  54.361  1.00  0.00    -0.240 N 
HETATM    4  C   UNL     1       5.968  24.746  53.193  1.00  0.00     0.221 C 
HETATM    5  C   UNL     1       7.376  24.531  52.606  1.00  0.00     0.066 C 
HETATM    6  C   UNL     1       8.386  24.150  53.697  1.00  0.00     0.118 C 
HETATM    7  N   UNL     1       8.351  25.152  54.762  1.00  0.00    -0.365 N 
HETATM    8  N   UNL     1       4.991  26.266  54.839  1.00  0.00    -0.181 NA
HETATM    9  C   UNL     1       5.498  26.973  55.852  1.00  0.00     0.160 A 
HETATM   10  H   UNL     1       9.258  25.427  55.133  1.00  0.00     0.161 HD
ENDROOT
BRANCH   1  11
HETATM   11  C   UNL     1       7.687  27.314  57.117  1.00  0.00     0.257 C 
HETATM   12  N   UNL     1       8.233  28.534  56.792  1.00  0.00    -0.352 N 
HETATM   13  H   UNL     1       8.222  28.811  55.820  1.00  0.00     0.163 HD
HETATM   14  O   UNL     1       7.889  26.753  58.189  1.00  0.00    -0.267 OA
BRANCH  12  15
HETATM   15  C   UNL     1       9.049  29.280  57.720  1.00  0.00     0.161 C 
BRANCH  15  16
HETATM   16  C   UNL     1       8.233  30.195  58.596  1.00  0.00    -0.040 A 
HETATM   17  C   UNL     1       8.616  30.445  59.921  1.00  0.00     0.011 A 
HETATM   18  C   UNL     1       7.901  31.349  60.716  1.00  0.00     0.037 A 
HETATM   19  C   UNL     1       6.794  32.019  60.194  1.00  0.00     0.068 A 
HETATM   20  C   UNL     1       6.391  31.753  58.884  1.00  0.00     0.037 A 
HETATM   21  C   UNL     1       7.107  30.856  58.087  1.00  0.00     0.011 A 
BRANCH  19  22
HETATM   22  O   UNL     1       6.029  32.935  60.860  1.00  0.00    -0.356 OA
HETATM   23  C   UNL     1       6.626  33.545  61.999  1.00  0.00     0.210 C 
ENDBRANCH  19  22
ENDBRANCH  15  16
ENDBRANCH  12  15
ENDBRANCH   1  11
BRANCH   4  24
HETATM   24  C   UNL     1       5.064  25.317  52.119  1.00  0.00     0.409 C 
HETATM   25  F   UNL     1       5.755  25.787  51.055  1.00  0.00    -0.169 F 
HETATM   26  F   UNL     1       4.254  24.331  51.640  1.00  0.00    -0.169 F 
HETATM   27  F   UNL     1       4.241  26.289  52.560  1.00  0.00    -0.169 F 
ENDBRANCH   4  24
BRANCH   6  28
HETATM   28  C   UNL     1       8.190  22.729  54.210  1.00  0.00    -0.035 A 
HETATM   29  C   UNL     1       8.131  22.507  55.599  1.00  0.00     0.009 A 
HETATM   30  C   UNL     1       7.983  21.218  56.117  1.00  0.00     0.001 A 
HETATM   31  C   UNL     1       7.881  20.129  55.258  1.00  0.00     0.000 A 
HETATM   32  C   UNL     1       7.925  20.327  53.881  1.00  0.00     0.001 A 
HETATM   33  C   UNL     1       8.078  21.615  53.361  1.00  0.00     0.009 A 
ENDBRANCH   6  28
TORSDOF 6
ENDMDL
MODEL 5
REMARK VINA RESULT:      -9.6      3.049      3.881
REMARK  6 active torsions:
REMARK  status: ('A' for Active; 'I' for Inactive)
REMARK    1  A    between atoms: O_2  and  C_3 
REMARK    2  A    between atoms: C_6  and  C_7 
REMARK    3  A    between atoms: C_7  and  N_8 
REMARK       I    between atoms: N_8  and  C_9 
REMARK    4  A    between atoms: C_9  and  C_10 
REMARK    5  A    between atoms: C_13  and  C_14 
REMARK    6  A    between atoms: C_19  and  C_20 
ROOT
HETATM    1  C   UNL     1       7.043  28.876  57.443  1.00  0.00     0.096 A 
HETATM    2  C   UNL     1       6.582  27.712  56.855  1.00  0.00     0.138 A 
HETATM    3  N   UNL     1       7.663  26.859  56.812  1.00  0.00    -0.240 N 
HETATM    4  C   UNL     1       7.609  25.498  56.305  1.00  0.00     0.221 C 
HETATM    5  C   UNL     1       6.155  24.992  56.340  1.00  0.00     0.066 C 
HETATM    6  C   UNL     1       5.190  26.017  55.731  1.00  0.00     0.118 C 
HETATM    7  N   UNL     1       5.368  27.308  56.396  1.00  0.00    -0.365 N 
HETATM    8  N   UNL     1       8.802  27.410  57.254  1.00  0.00    -0.181 NA
HETATM    9  C   UNL     1       8.415  28.614  57.681  1.00  0.00     0.160 A 
HETATM   10  H   UNL     1       4.510  27.811  56.609  1.00  0.00     0.161 HD
ENDROOT
BRANCH   1  11
HETATM   11  C   UNL     1       6.342  30.098  57.783  1.00  0.00     0.257 C 
HETATM   12  N   UNL     1       6.933  30.856  58.767  1.00  0.00    -0.352 N 
HETATM   13  H   UNL     1       7.656  30.422  59.324  1.00  0.00     0.163 HD
HETATM   14  O   UNL     1       5.286  30.408  57.242  1.00  0.00    -0.267 OA
BRANCH  12  15
HETATM   15  C   UNL     1       6.378  32.114  59.202  1.00  0.00     0.161 C 
BRANCH  15  16
HETATM   16  C   UNL     1       6.739  32.440  60.628  1.00  0.00    -0.040 A 
HETATM   17  C   UNL     1       5.872  33.193  61.431  1.00  0.00     0.011 A 
HETATM   18  C   UNL     1       6.172  33.439  62.777  1.00  0.00     0.037 A 
HETATM   19  C   UNL     1       7.343  32.931  63.338  1.00  0.00     0.068 A 
HETATM   20  C   UNL     1       8.225  32.205  62.536  1.00  0.00     0.037 A 
HETATM   21  C   UNL     1       7.924  31.953  61.194  1.00  0.00     0.011 A 
BRANCH  19  22
HETATM   22  O   UNL     1       7.736  33.085  64.638  1.00  0.00    -0.356 OA
HETATM   23  C   UNL     1       6.831  33.774  65.493  1.00  0.00     0.210 C 
ENDBRANCH  19  22
ENDBRANCH  15  16
ENDBRANCH  12  15
ENDBRANCH   1  11
BRANCH   4  24
HETATM   24  C   UNL     1       8.485  24.550  57.098  1.00  0.00     0.409 C 
HETATM   25  F   UNL     1       8.569  24.890  58.405  1.00  0.00    -0.169 F 
HETATM   26  F   UNL     1       7.941  23.300  57.066  1.00  0.00    -0.169 F 
HETATM   27  F   UNL     1       9.733  24.421  56.607  1.00  0.00    -0.169 F 
ENDBRANCH   4  24
BRANCH   6  28
HETATM   28  C   UNL     1       5.308  26.107  54.215  1.00  0.00    -0.035 A 
HETATM   29  C   UNL     1       4.993  24.976  53.437  1.00  0.00     0.009 A 
HETATM   30  C   UNL     1       5.115  25.001  52.046  1.00  0.00     0.001 A 
HETATM   31  C   UNL     1       5.544  26.158  51.405  1.00  0.00     0.000 A 
HETATM   32  C   UNL     1       5.850  27.291  52.153  1.00  0.00     0.001 A 
HETATM   33  C   UNL     1       5.733  27.266  53.545  1.00  0.00     0.009 A 
ENDBRANCH   6  28
TORSDOF 6
ENDMDL
MODEL 6
REMARK VINA RESULT:      -9.2      5.720     10.098
REMARK  6 active torsions:
REMARK  status: ('A' for Active; 'I' for Inactive)
REMARK    1  A    between atoms: O_2  and  C_3 
REMARK    2  A    between atoms: C_6  and  C_7 
REMARK    3  A    between atoms: C_7  and  N_8 
REMARK       I    between atoms: N_8  and  C_9 
REMARK    4  A    between atoms: C_9  and  C_10 
REMARK    5  A    between atoms: C_13  and  C_14 
REMARK    6  A    between atoms: C_19  and  C_20 
ROOT
HETATM    1  C   UNL     1       5.424  26.944  51.450  1.00  0.00     0.096 A 
HETATM    2  C   UNL     1       5.511  26.286  52.664  1.00  0.00     0.138 A 
HETATM    3  N   UNL     1       6.013  27.208  53.556  1.00  0.00    -0.240 N 
HETATM    4  C   UNL     1       6.225  26.944  54.969  1.00  0.00     0.221 C 
HETATM    5  C   UNL     1       5.347  25.758  55.410  1.00  0.00     0.066 C 
HETATM    6  C   UNL     1       5.473  24.577  54.439  1.00  0.00     0.118 C 
HETATM    7  N   UNL     1       5.187  25.033  53.079  1.00  0.00    -0.365 N 
HETATM    8  N   UNL     1       6.331  28.382  52.995  1.00  0.00    -0.181 NA
HETATM    9  C   UNL     1       5.928  28.238  51.731  1.00  0.00     0.160 A 
HETATM   10  H   UNL     1       4.616  24.404  52.518  1.00  0.00     0.161 HD
ENDROOT
BRANCH   1  11
HETATM   11  C   UNL     1       4.929  26.487  50.167  1.00  0.00     0.257 C 
HETATM   12  N   UNL     1       5.215  27.311  49.104  1.00  0.00    -0.352 N 
HETATM   13  H   UNL     1       5.535  28.248  49.308  1.00  0.00     0.163 HD
HETATM   14  O   UNL     1       4.280  25.452  50.057  1.00  0.00    -0.267 OA
BRANCH  12  15
HETATM   15  C   UNL     1       4.817  26.988  47.755  1.00  0.00     0.161 C 
BRANCH  15  16
HETATM   16  C   UNL     1       3.464  27.551  47.404  1.00  0.00    -0.040 A 
HETATM   17  C   UNL     1       2.349  26.711  47.288  1.00  0.00     0.011 A 
HETATM   18  C   UNL     1       1.077  27.239  47.031  1.00  0.00     0.037 A 
HETATM   19  C   UNL     1       0.904  28.615  46.890  1.00  0.00     0.068 A 
HETATM   20  C   UNL     1       2.016  29.454  46.976  1.00  0.00     0.037 A 
HETATM   21  C   UNL     1       3.285  28.931  47.239  1.00  0.00     0.011 A 
BRANCH  19  22
HETATM   22  O   UNL     1      -0.284  29.250  46.657  1.00  0.00    -0.356 OA
HETATM   23  C   UNL     1      -0.644  29.434  45.293  1.00  0.00     0.210 C 
ENDBRANCH  19  22
ENDBRANCH  15  16
ENDBRANCH  12  15
ENDBRANCH   1  11
BRANCH   4  24
HETATM   24  C   UNL     1       5.908  28.146  55.836  1.00  0.00     0.409 C 
HETATM   25  F   UNL     1       5.822  27.830  57.149  1.00  0.00    -0.169 F 
HETATM   26  F   UNL     1       6.916  29.057  55.730  1.00  0.00    -0.169 F 
HETATM   27  F   UNL     1       4.784  28.796  55.476  1.00  0.00    -0.169 F 
ENDBRANCH   4  24
BRANCH   6  28
HETATM   28  C   UNL     1       6.811  23.858  54.557  1.00  0.00    -0.035 A 
HETATM   29  C   UNL     1       7.371  23.265  53.409  1.00  0.00     0.009 A 
HETATM   30  C   UNL     1       8.581  22.571  53.474  1.00  0.00     0.001 A 
HETATM   31  C   UNL     1       9.259  22.463  54.684  1.00  0.00     0.000 A 
HETATM   32  C   UNL     1       8.728  23.050  55.829  1.00  0.00     0.001 A 
HETATM   33  C   UNL     1       7.516  23.742  55.766  1.00  0.00     0.009 A 
ENDBRANCH   6  28
TORSDOF 6
ENDMDL
MODEL 7
REMARK VINA RESULT:      -9.1      5.085      9.172
REMARK  6 active torsions:
REMARK  status: ('A' for Active; 'I' for Inactive)
REMARK    1  A    between atoms: O_2  and  C_3 
REMARK    2  A    between atoms: C_6  and  C_7 
REMARK    3  A    between atoms: C_7  and  N_8 
REMARK       I    between atoms: N_8  and  C_9 
REMARK    4  A    between atoms: C_9  and  C_10 
REMARK    5  A    between atoms: C_13  and  C_14 
REMARK    6  A    between atoms: C_19  and  C_20 
ROOT
HETATM    1  C   UNL     1       5.220  28.337  54.021  1.00  0.00     0.096 A 
HETATM    2  C   UNL     1       5.543  27.155  54.663  1.00  0.00     0.138 A 
HETATM    3  N   UNL     1       6.615  27.450  55.477  1.00  0.00    -0.240 N 
HETATM    4  C   UNL     1       7.249  26.496  56.369  1.00  0.00     0.221 C 
HETATM    5  C   UNL     1       6.271  25.345  56.673  1.00  0.00     0.066 C 
HETATM    6  C   UNL     1       5.629  24.802  55.389  1.00  0.00     0.118 C 
HETATM    7  N   UNL     1       5.013  25.903  54.650  1.00  0.00    -0.365 N 
HETATM    8  N   UNL     1       7.058  28.708  55.349  1.00  0.00    -0.181 NA
HETATM    9  C   UNL     1       6.182  29.258  54.505  1.00  0.00     0.160 A 
HETATM   10  H   UNL     1       4.103  25.701  54.244  1.00  0.00     0.161 HD
ENDROOT
BRANCH   1  11
HETATM   11  C   UNL     1       4.156  28.637  53.084  1.00  0.00     0.257 C 
HETATM   12  N   UNL     1       4.439  29.633  52.179  1.00  0.00    -0.352 N 
HETATM   13  H   UNL     1       5.240  30.221  52.362  1.00  0.00     0.163 HD
HETATM   14  O   UNL     1       3.077  28.054  53.124  1.00  0.00    -0.267 OA
BRANCH  12  15
HETATM   15  C   UNL     1       3.497  30.034  51.162  1.00  0.00     0.161 C 
BRANCH  15  16
HETATM   16  C   UNL     1       3.384  29.023  50.051  1.00  0.00    -0.040 A 
HETATM   17  C   UNL     1       2.134  28.683  49.518  1.00  0.00     0.011 A 
HETATM   18  C   UNL     1       2.031  27.796  48.439  1.00  0.00     0.037 A 
HETATM   19  C   UNL     1       3.179  27.240  47.876  1.00  0.00     0.068 A 
HETATM   20  C   UNL     1       4.425  27.552  48.421  1.00  0.00     0.037 A 
HETATM   21  C   UNL     1       4.531  28.442  49.494  1.00  0.00     0.011 A 
BRANCH  19  22
HETATM   22  O   UNL     1       3.210  26.381  46.813  1.00  0.00    -0.356 OA
HETATM   23  C   UNL     1       2.860  25.029  47.085  1.00  0.00     0.210 C 
ENDBRANCH  19  22
ENDBRANCH  15  16
ENDBRANCH  12  15
ENDBRANCH   1  11
BRANCH   4  24
HETATM   24  C   UNL     1       7.692  27.127  57.673  1.00  0.00     0.409 C 
HETATM   25  F   UNL     1       7.807  26.225  58.675  1.00  0.00    -0.169 F 
HETATM   26  F   UNL     1       8.930  27.674  57.511  1.00  0.00    -0.169 F 
HETATM   27  F   UNL     1       6.896  28.132  58.090  1.00  0.00    -0.169 F 
ENDBRANCH   4  24
BRANCH   6  28
HETATM   28  C   UNL     1       6.602  23.988  54.544  1.00  0.00    -0.035 A 
HETATM   29  C   UNL     1       7.314  22.935  55.148  1.00  0.00     0.009 A 
HETATM   30  C   UNL     1       8.239  22.180  54.423  1.00  0.00     0.001 A 
HETATM   31  C   UNL     1       8.462  22.457  53.078  1.00  0.00     0.000 A 
HETATM   32  C   UNL     1       7.760  23.487  52.458  1.00  0.00     0.001 A 
HETATM   33  C   UNL     1       6.839  24.245  53.184  1.00  0.00     0.009 A 
ENDBRANCH   6  28
TORSDOF 6
ENDMDL
MODEL 8
REMARK VINA RESULT:      -8.9      6.895      9.598
REMARK  6 active torsions:
REMARK  status: ('A' for Active; 'I' for Inactive)
REMARK    1  A    between atoms: O_2  and  C_3 
REMARK    2  A    between atoms: C_6  and  C_7 
REMARK    3  A    between atoms: C_7  and  N_8 
REMARK       I    between atoms: N_8  and  C_9 
REMARK    4  A    between atoms: C_9  and  C_10 
REMARK    5  A    between atoms: C_13  and  C_14 
REMARK    6  A    between atoms: C_19  and  C_20 
ROOT
HETATM    1  C   UNL     1       4.886  27.145  50.930  1.00  0.00     0.096 A 
HETATM    2  C   UNL     1       4.190  28.186  50.343  1.00  0.00     0.138 A 
HETATM    3  N   UNL     1       3.797  27.725  49.106  1.00  0.00    -0.240 N 
HETATM    4  C   UNL     1       2.996  28.491  48.166  1.00  0.00     0.221 C 
HETATM    5  C   UNL     1       2.231  29.594  48.920  1.00  0.00     0.066 C 
HETATM    6  C   UNL     1       3.156  30.372  49.866  1.00  0.00     0.118 C 
HETATM    7  N   UNL     1       3.841  29.434  50.755  1.00  0.00    -0.365 N 
HETATM    8  N   UNL     1       4.253  26.498  48.819  1.00  0.00    -0.181 NA
HETATM    9  C   UNL     1       4.870  26.128  49.943  1.00  0.00     0.160 A 
HETATM   10  H   UNL     1       3.915  29.728  51.726  1.00  0.00     0.161 HD
ENDROOT
BRANCH   1  11
HETATM   11  C   UNL     1       5.493  27.043  52.243  1.00  0.00     0.257 C 
HETATM   12  N   UNL     1       6.603  26.233  52.311  1.00  0.00    -0.352 N 
HETATM   13  H   UNL     1       6.779  25.610  51.534  1.00  0.00     0.163 HD
HETATM   14  O   UNL     1       5.024  27.621  53.217  1.00  0.00    -0.267 OA
BRANCH  12  15
HETATM   15  C   UNL     1       7.340  26.045  53.537  1.00  0.00     0.161 C 
BRANCH  15  16
HETATM   16  C   UNL     1       7.578  24.590  53.848  1.00  0.00    -0.040 A 
HETATM   17  C   UNL     1       7.613  24.139  55.174  1.00  0.00     0.011 A 
HETATM   18  C   UNL     1       7.764  22.778  55.465  1.00  0.00     0.037 A 
HETATM   19  C   UNL     1       7.880  21.849  54.432  1.00  0.00     0.068 A 
HETATM   20  C   UNL     1       7.875  22.295  53.110  1.00  0.00     0.037 A 
HETATM   21  C   UNL     1       7.718  23.652  52.816  1.00  0.00     0.011 A 
BRANCH  19  22
HETATM   22  O   UNL     1       8.012  20.497  54.587  1.00  0.00    -0.356 OA
HETATM   23  C   UNL     1       8.389  20.044  55.882  1.00  0.00     0.210 C 
ENDBRANCH  19  22
ENDBRANCH  15  16
ENDBRANCH  12  15
ENDBRANCH   1  11
BRANCH   4  24
HETATM   24  C   UNL     1       2.007  27.628  47.410  1.00  0.00     0.409 C 
HETATM   25  F   UNL     1       2.612  26.674  46.665  1.00  0.00    -0.169 F 
HETATM   26  F   UNL     1       1.212  26.967  48.300  1.00  0.00    -0.169 F 
HETATM   27  F   UNL     1       1.170  28.326  46.617  1.00  0.00    -0.169 F 
ENDBRANCH   4  24
BRANCH   6  28
HETATM   28  C   UNL     1       4.113  31.297  49.124  1.00  0.00    -0.035 A 
HETATM   29  C   UNL     1       5.407  31.497  49.642  1.00  0.00     0.009 A 
HETATM   30  C   UNL     1       6.310  32.359  49.014  1.00  0.00     0.001 A 
HETATM   31  C   UNL     1       5.940  33.029  47.852  1.00  0.00     0.000 A 
HETATM   32  C   UNL     1       4.669  32.837  47.317  1.00  0.00     0.001 A 
HETATM   33  C   UNL     1       3.764  31.979  47.947  1.00  0.00     0.009 A 
ENDBRANCH   6  28
TORSDOF 6
ENDMDL
MODEL 9
REMARK VINA RESULT:      -8.9      5.294      9.154
REMARK  6 active torsions:
REMARK  status: ('A' for Active; 'I' for Inactive)
REMARK    1  A    between atoms: O_2  and  C_3 
REMARK    2  A    between atoms: C_6  and  C_7 
REMARK    3  A    between atoms: C_7  and  N_8 
REMARK       I    between atoms: N_8  and  C_9 
REMARK    4  A    between atoms: C_9  and  C_10 
REMARK    5  A    between atoms: C_13  and  C_14 
REMARK    6  A    between atoms: C_19  and  C_20 
ROOT
HETATM    1  C   UNL     1       5.973  27.241  53.018  1.00  0.00     0.096 A 
HETATM    2  C   UNL     1       6.173  26.295  54.007  1.00  0.00     0.138 A 
HETATM    3  N   UNL     1       7.122  26.829  54.851  1.00  0.00    -0.240 N 
HETATM    4  C   UNL     1       7.599  26.177  56.059  1.00  0.00     0.221 C 
HETATM    5  C   UNL     1       6.563  25.139  56.529  1.00  0.00     0.066 C 
HETATM    6  C   UNL     1       6.102  24.243  55.371  1.00  0.00     0.118 C 
HETATM    7  N   UNL     1       5.624  25.080  54.270  1.00  0.00    -0.365 N 
HETATM    8  N   UNL     1       7.606  28.009  54.440  1.00  0.00    -0.181 NA
HETATM    9  C   UNL     1       6.874  28.281  53.357  1.00  0.00     0.160 A 
HETATM   10  H   UNL     1       4.778  24.753  53.810  1.00  0.00     0.161 HD
ENDROOT
BRANCH   1  11
HETATM   11  C   UNL     1       5.062  27.243  51.891  1.00  0.00     0.257 C 
HETATM   12  N   UNL     1       5.587  26.756  50.716  1.00  0.00    -0.352 N 
HETATM   13  H   UNL     1       6.591  26.650  50.658  1.00  0.00     0.163 HD
HETATM   14  O   UNL     1       3.918  27.674  51.985  1.00  0.00    -0.267 OA
BRANCH  12  15
HETATM   15  C   UNL     1       4.804  26.664  49.507  1.00  0.00     0.161 C 
BRANCH  15  16
HETATM   16  C   UNL     1       4.652  27.995  48.818  1.00  0.00    -0.040 A 
HETATM   17  C   UNL     1       3.603  28.217  47.915  1.00  0.00     0.011 A 
HETATM   18  C   UNL     1       3.416  29.474  47.327  1.00  0.00     0.037 A 
HETATM   19  C   UNL     1       4.276  30.527  47.636  1.00  0.00     0.068 A 
HETATM   20  C   UNL     1       5.340  30.305  48.512  1.00  0.00     0.037 A 
HETATM   21  C   UNL     1       5.524  29.054  49.106  1.00  0.00     0.011 A 
BRANCH  19  22
HETATM   22  O   UNL     1       4.187  31.800  47.144  1.00  0.00    -0.356 OA
HETATM   23  C   UNL     1       5.081  32.131  46.088  1.00  0.00     0.210 C 
ENDBRANCH  19  22
ENDBRANCH  15  16
ENDBRANCH  12  15
ENDBRANCH   1  11
BRANCH   4  24
HETATM   24  C   UNL     1       7.862  27.160  57.182  1.00  0.00     0.409 C 
HETATM   25  F   UNL     1       6.970  28.176  57.203  1.00  0.00    -0.169 F 
HETATM   26  F   UNL     1       7.738  26.520  58.379  1.00  0.00    -0.169 F 
HETATM   27  F   UNL     1       9.105  27.681  57.169  1.00  0.00    -0.169 F 
ENDBRANCH   4  24
BRANCH   6  28
HETATM   28  C   UNL     1       7.169  23.245  54.940  1.00  0.00    -0.035 A 
HETATM   29  C   UNL     1       7.386  23.028  53.565  1.00  0.00     0.009 A 
HETATM   30  C   UNL     1       8.331  22.101  53.122  1.00  0.00     0.001 A 
HETATM   31  C   UNL     1       9.085  21.379  54.042  1.00  0.00     0.000 A 
HETATM   32  C   UNL     1       8.895  21.586  55.405  1.00  0.00     0.001 A 
HETATM   33  C   UNL     1       7.946  22.510  55.850  1.00  0.00     0.009 A 
ENDBRANCH   6  28
TORSDOF 6
ENDMDL
MODEL 10
REMARK VINA RESULT:      -8.8      2.858      4.106
REMARK  6 active torsions:
REMARK  status: ('A' for Active; 'I' for Inactive)
REMARK    1  A    between atoms: O_2  and  C_3 
REMARK    2  A    between atoms: C_6  and  C_7 
REMARK    3  A    between atoms: C_7  and  N_8 
REMARK       I    between atoms: N_8  and  C_9 
REMARK    4  A    between atoms: C_9  and  C_10 
REMARK    5  A    between atoms: C_13  and  C_14 
REMARK    6  A    between atoms: C_19  and  C_20 
ROOT
HETATM    1  C   UNL     1       5.935  28.547  55.971  1.00  0.00     0.096 A 
HETATM    2  C   UNL     1       5.516  27.791  54.891  1.00  0.00     0.138 A 
HETATM    3  N   UNL     1       6.496  26.843  54.694  1.00  0.00    -0.240 N 
HETATM    4  C   UNL     1       6.437  25.807  53.678  1.00  0.00     0.221 C 
HETATM    5  C   UNL     1       4.973  25.585  53.253  1.00  0.00     0.066 C 
HETATM    6  C   UNL     1       4.268  26.915  52.955  1.00  0.00     0.118 C 
HETATM    7  N   UNL     1       4.407  27.807  54.106  1.00  0.00    -0.365 N 
HETATM    8  N   UNL     1       7.550  26.981  55.511  1.00  0.00    -0.181 NA
HETATM    9  C   UNL     1       7.187  27.981  56.316  1.00  0.00     0.160 A 
HETATM   10  H   UNL     1       3.572  28.334  54.353  1.00  0.00     0.161 HD
ENDROOT
BRANCH   1  11
HETATM   11  C   UNL     1       5.289  29.653  56.651  1.00  0.00     0.257 C 
HETATM   12  N   UNL     1       6.139  30.511  57.308  1.00  0.00    -0.352 N 
HETATM   13  H   UNL     1       7.090  30.204  57.463  1.00  0.00     0.163 HD
HETATM   14  O   UNL     1       4.070  29.786  56.652  1.00  0.00    -0.267 OA
BRANCH  12  15
HETATM   15  C   UNL     1       5.659  31.676  58.011  1.00  0.00     0.161 C 
BRANCH  15  16
HETATM   16  C   UNL     1       6.404  31.920  59.298  1.00  0.00    -0.040 A 
HETATM   17  C   UNL     1       5.838  32.702  60.314  1.00  0.00     0.011 A 
HETATM   18  C   UNL     1       6.497  32.872  61.538  1.00  0.00     0.037 A 
HETATM   19  C   UNL     1       7.729  32.260  61.763  1.00  0.00     0.068 A 
HETATM   20  C   UNL     1       8.311  31.503  60.744  1.00  0.00     0.037 A 
HETATM   21  C   UNL     1       7.653  31.326  59.524  1.00  0.00     0.011 A 
BRANCH  19  22
HETATM   22  O   UNL     1       8.458  32.335  62.917  1.00  0.00    -0.356 OA
HETATM   23  C   UNL     1       7.821  32.958  64.026  1.00  0.00     0.210 C 
ENDBRANCH  19  22
ENDBRANCH  15  16
ENDBRANCH  12  15
ENDBRANCH   1  11
BRANCH   4  24
HETATM   24  C   UNL     1       7.019  24.492  54.157  1.00  0.00     0.409 C 
HETATM   25  F   UNL     1       6.541  24.122  55.366  1.00  0.00    -0.169 F 
HETATM   26  F   UNL     1       6.668  23.501  53.289  1.00  0.00    -0.169 F 
HETATM   27  F   UNL     1       8.366  24.479  54.205  1.00  0.00    -0.169 F 
ENDBRANCH   4  24
BRANCH   6  28
HETATM   28  C   UNL     1       4.736  27.549  51.651  1.00  0.00    -0.035 A 
HETATM   29  C   UNL     1       5.158  28.892  51.658  1.00  0.00     0.009 A 
HETATM   30  C   UNL     1       5.567  29.526  50.483  1.00  0.00     0.001 A 
HETATM   31  C   UNL     1       5.571  28.828  49.280  1.00  0.00     0.000 A 
HETATM   32  C   UNL     1       5.168  27.496  49.252  1.00  0.00     0.001 A 
HETATM   33  C   UNL     1       4.754  26.862  50.427  1.00  0.00     0.009 A 
ENDBRANCH   6  28
TORSDOF 6
ENDMDL
