MODEL 1
REMARK VINA RESULT:     -10.2      0.000      0.000
REMARK  6 active torsions:
REMARK  status: ('A' for Active; 'I' for Inactive)
REMARK    1  A    between atoms: O_2  and  C_3 
REMARK    2  A    between atoms: C_6  and  C_7 
REMARK    3  A    between atoms: C_7  and  N_8 
REMARK       I    between atoms: N_8  and  C_9 
REMARK    4  A    between atoms: C_9  and  C_10 
REMARK    5  A    between atoms: C_13  and  C_14 
REMARK    6  A    between atoms: C_19  and  C_20 
ROOT
HETATM    1  C   UNL     1       7.154  27.952  55.789  1.00  0.00     0.096 A 
HETATM    2  C   UNL     1       6.838  26.823  55.057  1.00  0.00     0.138 A 
HETATM    3  N   UNL     1       5.873  27.215  54.155  1.00  0.00    -0.240 N 
HETATM    4  C   UNL     1       5.200  26.318  53.231  1.00  0.00     0.221 C 
HETATM    5  C   UNL     1       5.972  24.992  53.099  1.00  0.00     0.066 C 
HETATM    6  C   UNL     1       6.424  24.502  54.479  1.00  0.00     0.118 C 
HETATM    7  N   UNL     1       7.262  25.530  55.106  1.00  0.00    -0.365 N 
HETATM    8  N   UNL     1       5.432  28.466  54.358  1.00  0.00    -0.181 NA
HETATM    9  C   UNL     1       6.233  28.923  55.325  1.00  0.00     0.160 A 
HETATM   10  H   UNL     1       7.677  25.198  55.978  1.00  0.00     0.161 HD
ENDROOT
BRANCH   1  11
HETATM   11  C   UNL     1       8.134  28.136  56.842  1.00  0.00     0.257 C 
HETATM   12  N   UNL     1       8.417  29.447  57.146  1.00  0.00    -0.352 N 
HETATM   13  H   UNL     1       7.805  30.162  56.771  1.00  0.00     0.163 HD
HETATM   14  O   UNL     1       8.648  27.185  57.419  1.00  0.00    -0.267 OA
BRANCH  12  15
HETATM   15  C   UNL     1       9.372  29.812  58.164  1.00  0.00     0.161 C 
BRANCH  15  16
HETATM   16  C   UNL     1       8.754  30.629  59.270  1.00  0.00    -0.040 A 
HETATM   17  C   UNL     1       9.396  30.767  60.507  1.00  0.00     0.011 A 
HETATM   18  C   UNL     1       8.846  31.576  61.505  1.00  0.00     0.037 A 
HETATM   19  C   UNL     1       7.660  32.276  61.281  1.00  0.00     0.068 A 
HETATM   20  C   UNL     1       7.007  32.135  60.058  1.00  0.00     0.037 A 
HETATM   21  C   UNL     1       7.551  31.318  59.059  1.00  0.00     0.011 A 
BRANCH  19  22
HETATM   22  O   UNL     1       7.242  33.054  62.326  1.00  0.00    -0.356 OA
HETATM   23  C   UNL     1       7.835  32.788  63.591  1.00  0.00     0.210 C 
ENDBRANCH  19  22
ENDBRANCH  15  16
ENDBRANCH  12  15
ENDBRANCH   1  11
BRANCH   4  24
HETATM   24  C   UNL     1       5.027  26.942  51.863  1.00  0.00     0.409 C 
HETATM   25  F   UNL     1       6.142  27.580  51.442  1.00  0.00    -0.169 F 
HETATM   26  F   UNL     1       4.772  25.966  50.949  1.00  0.00    -0.169 F 
HETATM   27  F   UNL     1       3.990  27.801  51.786  1.00  0.00    -0.169 F 
ENDBRANCH   4  24
BRANCH   6  28
HETATM   28  C   UNL     1       7.198  23.202  54.398  1.00  0.00    -0.035 A 
HETATM   29  C   UNL     1       7.590  22.660  53.163  1.00  0.00     0.009 A 
HETATM   30  C   UNL     1       8.291  21.455  53.104  1.00  0.00     0.001 A 
HETATM   31  C   UNL     1       8.613  20.777  54.276  1.00  0.00     0.000 A 
HETATM   32  C   UNL     1       8.237  21.304  55.510  1.00  0.00     0.001 A 
HETATM   33  C   UNL     1       7.533  22.509  55.572  1.00  0.00     0.009 A 
ENDBRANCH   6  28
TORSDOF 6
ENDMDL
MODEL 2
REMARK VINA RESULT:      -9.8      4.889      9.144
REMARK  6 active torsions:
REMARK  status: ('A' for Active; 'I' for Inactive)
REMARK    1  A    between atoms: O_2  and  C_3 
REMARK    2  A    between atoms: C_6  and  C_7 
REMARK    3  A    between atoms: C_7  and  N_8 
REMARK       I    between atoms: N_8  and  C_9 
REMARK    4  A    between atoms: C_9  and  C_10 
REMARK    5  A    between atoms: C_13  and  C_14 
REMARK    6  A    between atoms: C_19  and  C_20 
ROOT
HETATM    1  C   UNL     1       5.489  26.814  51.589  1.00  0.00     0.096 A 
HETATM    2  C   UNL     1       6.134  26.153  52.618  1.00  0.00     0.138 A 
HETATM    3  N   UNL     1       6.338  27.094  53.604  1.00  0.00    -0.240 N 
HETATM    4  C   UNL     1       7.054  26.843  54.842  1.00  0.00     0.221 C 
HETATM    5  C   UNL     1       7.194  25.331  55.095  1.00  0.00     0.066 C 
HETATM    6  C   UNL     1       7.588  24.611  53.801  1.00  0.00     0.118 C 
HETATM    7  N   UNL     1       6.574  24.874  52.774  1.00  0.00    -0.365 N 
HETATM    8  N   UNL     1       6.017  28.340  53.224  1.00  0.00    -0.181 NA
HETATM    9  C   UNL     1       5.470  28.165  52.017  1.00  0.00     0.160 A 
HETATM   10  H   UNL     1       6.739  24.321  51.931  1.00  0.00     0.161 HD
ENDROOT
BRANCH   1  11
HETATM   11  C   UNL     1       4.993  26.310  50.324  1.00  0.00     0.257 C 
HETATM   12  N   UNL     1       5.351  27.055  49.225  1.00  0.00    -0.352 N 
HETATM   13  H   UNL     1       6.068  27.760  49.344  1.00  0.00     0.163 HD
HETATM   14  O   UNL     1       4.324  25.286  50.254  1.00  0.00    -0.267 OA
BRANCH  12  15
HETATM   15  C   UNL     1       4.940  26.700  47.888  1.00  0.00     0.161 C 
BRANCH  15  16
HETATM   16  C   UNL     1       3.631  27.338  47.497  1.00  0.00    -0.040 A 
HETATM   17  C   UNL     1       2.459  26.578  47.404  1.00  0.00     0.011 A 
HETATM   18  C   UNL     1       1.239  27.189  47.102  1.00  0.00     0.037 A 
HETATM   19  C   UNL     1       1.162  28.568  46.908  1.00  0.00     0.068 A 
HETATM   20  C   UNL     1       2.325  29.332  46.985  1.00  0.00     0.037 A 
HETATM   21  C   UNL     1       3.550  28.722  47.280  1.00  0.00     0.011 A 
BRANCH  19  22
HETATM   22  O   UNL     1      -0.093  29.046  46.645  1.00  0.00    -0.356 OA
HETATM   23  C   UNL     1      -0.952  28.194  45.899  1.00  0.00     0.210 C 
ENDBRANCH  19  22
ENDBRANCH  15  16
ENDBRANCH  12  15
ENDBRANCH   1  11
BRANCH   4  24
HETATM   24  C   UNL     1       6.377  27.496  56.028  1.00  0.00     0.409 C 
HETATM   25  F   UNL     1       5.030  27.391  55.976  1.00  0.00    -0.169 F 
HETATM   26  F   UNL     1       6.770  26.872  57.173  1.00  0.00    -0.169 F 
HETATM   27  F   UNL     1       6.697  28.796  56.187  1.00  0.00    -0.169 F 
ENDBRANCH   4  24
BRANCH   6  28
HETATM   28  C   UNL     1       7.727  23.116  54.000  1.00  0.00    -0.035 A 
HETATM   29  C   UNL     1       7.613  22.532  55.273  1.00  0.00     0.009 A 
HETATM   30  C   UNL     1       7.756  21.155  55.442  1.00  0.00     0.001 A 
HETATM   31  C   UNL     1       8.012  20.340  54.342  1.00  0.00     0.000 A 
HETATM   32  C   UNL     1       8.123  20.902  53.072  1.00  0.00     0.001 A 
HETATM   33  C   UNL     1       7.982  22.281  52.901  1.00  0.00     0.009 A 
ENDBRANCH   6  28
TORSDOF 6
ENDMDL
MODEL 3
REMARK VINA RESULT:      -9.7      1.406      2.088
REMARK  6 active torsions:
REMARK  status: ('A' for Active; 'I' for Inactive)
REMARK    1  A    between atoms: O_2  and  C_3 
REMARK    2  A    between atoms: C_6  and  C_7 
REMARK    3  A    between atoms: C_7  and  N_8 
REMARK       I    between atoms: N_8  and  C_9 
REMARK    4  A    between atoms: C_9  and  C_10 
REMARK    5  A    between atoms: C_13  and  C_14 
REMARK    6  A    between atoms: C_19  and  C_20 
ROOT
HETATM    1  C   UNL     1       6.452  28.930  56.911  1.00  0.00     0.096 A 
HETATM    2  C   UNL     1       6.154  27.948  55.985  1.00  0.00     0.138 A 
HETATM    3  N   UNL     1       5.134  28.455  55.211  1.00  0.00    -0.240 N 
HETATM    4  C   UNL     1       4.460  27.719  54.155  1.00  0.00     0.221 C 
HETATM    5  C   UNL     1       5.283  26.485  53.741  1.00  0.00     0.066 C 
HETATM    6  C   UNL     1       5.817  25.764  54.983  1.00  0.00     0.118 C 
HETATM    7  N   UNL     1       6.636  26.694  55.767  1.00  0.00    -0.365 N 
HETATM    8  N   UNL     1       4.648  29.620  55.668  1.00  0.00    -0.181 NA
HETATM    9  C   UNL     1       5.470  29.923  56.677  1.00  0.00     0.160 A 
HETATM   10  H   UNL     1       7.104  26.222  56.543  1.00  0.00     0.161 HD
ENDROOT
BRANCH   1  11
HETATM   11  C   UNL     1       7.469  28.959  57.944  1.00  0.00     0.257 C 
HETATM   12  N   UNL     1       7.505  30.115  58.688  1.00  0.00    -0.352 N 
HETATM   13  H   UNL     1       6.727  30.757  58.602  1.00  0.00     0.163 HD
HETATM   14  O   UNL     1       8.220  28.009  58.138  1.00  0.00    -0.267 OA
BRANCH  12  15
HETATM   15  C   UNL     1       8.457  30.314  59.754  1.00  0.00     0.161 C 
BRANCH  15  16
HETATM   16  C   UNL     1       7.997  31.344  60.755  1.00  0.00    -0.040 A 
HETATM   17  C   UNL     1       6.903  32.174  60.482  1.00  0.00     0.011 A 
HETATM   18  C   UNL     1       6.445  33.082  61.440  1.00  0.00     0.037 A 
HETATM   19  C   UNL     1       7.056  33.165  62.692  1.00  0.00     0.068 A 
HETATM   20  C   UNL     1       8.155  32.354  62.968  1.00  0.00     0.037 A 
HETATM   21  C   UNL     1       8.620  31.447  62.007  1.00  0.00     0.011 A 
BRANCH  19  22
HETATM   22  O   UNL     1       6.498  34.074  63.549  1.00  0.00    -0.356 OA
HETATM   23  C   UNL     1       6.015  33.564  64.785  1.00  0.00     0.210 C 
ENDBRANCH  19  22
ENDBRANCH  15  16
ENDBRANCH  12  15
ENDBRANCH   1  11
BRANCH   4  24
HETATM   24  C   UNL     1       4.199  28.585  52.941  1.00  0.00     0.409 C 
HETATM   25  F   UNL     1       4.067  27.860  51.807  1.00  0.00    -0.169 F 
HETATM   26  F   UNL     1       3.026  29.257  53.108  1.00  0.00    -0.169 F 
HETATM   27  F   UNL     1       5.140  29.529  52.735  1.00  0.00    -0.169 F 
ENDBRANCH   4  24
BRANCH   6  28
HETATM   28  C   UNL     1       6.643  24.545  54.624  1.00  0.00    -0.035 A 
HETATM   29  C   UNL     1       6.822  24.150  53.287  1.00  0.00     0.009 A 
HETATM   30  C   UNL     1       7.574  23.018  52.973  1.00  0.00     0.001 A 
HETATM   31  C   UNL     1       8.161  22.267  53.988  1.00  0.00     0.000 A 
HETATM   32  C   UNL     1       7.999  22.648  55.318  1.00  0.00     0.001 A 
HETATM   33  C   UNL     1       7.244  23.780  55.635  1.00  0.00     0.009 A 
ENDBRANCH   6  28
TORSDOF 6
ENDMDL
MODEL 4
REMARK VINA RESULT:      -9.6      4.240      9.436
REMARK  6 active torsions:
REMARK  status: ('A' for Active; 'I' for Inactive)
REMARK    1  A    between atoms: O_2  and  C_3 
REMARK    2  A    between atoms: C_6  and  C_7 
REMARK    3  A    between atoms: C_7  and  N_8 
REMARK       I    between atoms: N_8  and  C_9 
REMARK    4  A    between atoms: C_9  and  C_10 
REMARK    5  A    between atoms: C_13  and  C_14 
REMARK    6  A    between atoms: C_19  and  C_20 
ROOT
HETATM    1  C   UNL     1       6.248  26.247  53.156  1.00  0.00     0.096 A 
HETATM    2  C   UNL     1       6.836  26.341  54.405  1.00  0.00     0.138 A 
HETATM    3  N   UNL     1       6.901  25.054  54.891  1.00  0.00    -0.240 N 
HETATM    4  C   UNL     1       7.385  24.699  56.213  1.00  0.00     0.221 C 
HETATM    5  C   UNL     1       8.182  25.862  56.832  1.00  0.00     0.066 C 
HETATM    6  C   UNL     1       7.456  27.189  56.592  1.00  0.00     0.118 C 
HETATM    7  N   UNL     1       7.280  27.390  55.150  1.00  0.00    -0.365 N 
HETATM    8  N   UNL     1       6.257  24.162  54.122  1.00  0.00    -0.181 NA
HETATM    9  C   UNL     1       5.893  24.880  53.054  1.00  0.00     0.160 A 
HETATM   10  H   UNL     1       6.901  28.317  54.942  1.00  0.00     0.161 HD
ENDROOT
BRANCH   1  11
HETATM   11  C   UNL     1       5.973  27.279  52.177  1.00  0.00     0.257 C 
HETATM   12  N   UNL     1       5.729  26.817  50.904  1.00  0.00    -0.352 N 
HETATM   13  H   UNL     1       5.569  25.825  50.783  1.00  0.00     0.163 HD
HETATM   14  O   UNL     1       5.945  28.467  52.479  1.00  0.00    -0.267 OA
BRANCH  12  15
HETATM   15  C   UNL     1       5.442  27.708  49.805  1.00  0.00     0.161 C 
BRANCH  15  16
HETATM   16  C   UNL     1       4.062  27.497  49.236  1.00  0.00    -0.040 A 
HETATM   17  C   UNL     1       3.029  28.406  49.500  1.00  0.00     0.011 A 
HETATM   18  C   UNL     1       1.770  28.236  48.919  1.00  0.00     0.037 A 
HETATM   19  C   UNL     1       1.523  27.172  48.051  1.00  0.00     0.068 A 
HETATM   20  C   UNL     1       2.540  26.255  47.793  1.00  0.00     0.037 A 
HETATM   21  C   UNL     1       3.801  26.418  48.380  1.00  0.00     0.011 A 
BRANCH  19  22
HETATM   22  O   UNL     1       0.260  27.133  47.528  1.00  0.00    -0.356 OA
HETATM   23  C   UNL     1       0.111  27.607  46.195  1.00  0.00     0.210 C 
ENDBRANCH  19  22
ENDBRANCH  15  16
ENDBRANCH  12  15
ENDBRANCH   1  11
BRANCH   4  24
HETATM   24  C   UNL     1       8.244  23.453  56.184  1.00  0.00     0.409 C 
HETATM   25  F   UNL     1       9.186  23.497  55.216  1.00  0.00    -0.169 F 
HETATM   26  F   UNL     1       8.910  23.335  57.366  1.00  0.00    -0.169 F 
HETATM   27  F   UNL     1       7.539  22.312  56.041  1.00  0.00    -0.169 F 
ENDBRANCH   4  24
BRANCH   6  28
HETATM   28  C   UNL     1       8.211  28.366  57.176  1.00  0.00    -0.035 A 
HETATM   29  C   UNL     1       9.470  28.745  56.684  1.00  0.00     0.009 A 
HETATM   30  C   UNL     1      10.160  29.823  57.240  1.00  0.00     0.001 A 
HETATM   31  C   UNL     1       9.598  30.540  58.293  1.00  0.00     0.000 A 
HETATM   32  C   UNL     1       8.347  30.182  58.790  1.00  0.00     0.001 A 
HETATM   33  C   UNL     1       7.657  29.102  58.236  1.00  0.00     0.009 A 
ENDBRANCH   6  28
TORSDOF 6
ENDMDL
MODEL 5
REMARK VINA RESULT:      -9.5      3.123      9.298
REMARK  6 active torsions:
REMARK  status: ('A' for Active; 'I' for Inactive)
REMARK    1  A    between atoms: O_2  and  C_3 
REMARK    2  A    between atoms: C_6  and  C_7 
REMARK    3  A    between atoms: C_7  and  N_8 
REMARK       I    between atoms: N_8  and  C_9 
REMARK    4  A    between atoms: C_9  and  C_10 
REMARK    5  A    between atoms: C_13  and  C_14 
REMARK    6  A    between atoms: C_19  and  C_20 
ROOT
HETATM    1  C   UNL     1       6.912  28.979  56.959  1.00  0.00     0.096 A 
HETATM    2  C   UNL     1       6.632  30.111  57.702  1.00  0.00     0.138 A 
HETATM    3  N   UNL     1       5.733  30.840  56.957  1.00  0.00    -0.240 N 
HETATM    4  C   UNL     1       5.224  32.148  57.334  1.00  0.00     0.221 C 
HETATM    5  C   UNL     1       5.487  32.426  58.825  1.00  0.00     0.066 C 
HETATM    6  C   UNL     1       6.910  31.999  59.201  1.00  0.00     0.118 C 
HETATM    7  N   UNL     1       7.082  30.574  58.901  1.00  0.00    -0.365 N 
HETATM    8  N   UNL     1       5.535  30.344  55.726  1.00  0.00    -0.181 NA
HETATM    9  C   UNL     1       6.222  29.198  55.741  1.00  0.00     0.160 A 
HETATM   10  H   UNL     1       7.979  30.222  59.242  1.00  0.00     0.161 HD
ENDROOT
BRANCH   1  11
HETATM   11  C   UNL     1       7.758  27.844  57.272  1.00  0.00     0.257 C 
HETATM   12  N   UNL     1       7.145  26.618  57.154  1.00  0.00    -0.352 N 
HETATM   13  H   UNL     1       6.248  26.580  56.687  1.00  0.00     0.163 HD
HETATM   14  O   UNL     1       8.931  27.982  57.598  1.00  0.00    -0.267 OA
BRANCH  12  15
HETATM   15  C   UNL     1       7.838  25.383  57.433  1.00  0.00     0.161 C 
BRANCH  15  16
HETATM   16  C   UNL     1       7.790  24.419  56.275  1.00  0.00    -0.040 A 
HETATM   17  C   UNL     1       7.011  24.692  55.143  1.00  0.00     0.011 A 
HETATM   18  C   UNL     1       7.021  23.824  54.049  1.00  0.00     0.037 A 
HETATM   19  C   UNL     1       7.821  22.681  54.053  1.00  0.00     0.068 A 
HETATM   20  C   UNL     1       8.590  22.393  55.179  1.00  0.00     0.037 A 
HETATM   21  C   UNL     1       8.576  23.258  56.281  1.00  0.00     0.011 A 
BRANCH  19  22
HETATM   22  O   UNL     1       7.762  21.929  52.912  1.00  0.00    -0.356 OA
HETATM   23  C   UNL     1       8.172  20.572  53.026  1.00  0.00     0.210 C 
ENDBRANCH  19  22
ENDBRANCH  15  16
ENDBRANCH  12  15
ENDBRANCH   1  11
BRANCH   4  24
HETATM   24  C   UNL     1       3.744  32.283  57.045  1.00  0.00     0.409 C 
HETATM   25  F   UNL     1       3.157  33.242  57.796  1.00  0.00    -0.169 F 
HETATM   26  F   UNL     1       3.568  32.649  55.745  1.00  0.00    -0.169 F 
HETATM   27  F   UNL     1       3.054  31.136  57.204  1.00  0.00    -0.169 F 
ENDBRANCH   4  24
BRANCH   6  28
HETATM   28  C   UNL     1       7.211  32.245  60.666  1.00  0.00    -0.035 A 
HETATM   29  C   UNL     1       6.339  32.990  61.478  1.00  0.00     0.009 A 
HETATM   30  C   UNL     1       6.636  33.220  62.821  1.00  0.00     0.001 A 
HETATM   31  C   UNL     1       7.806  32.705  63.374  1.00  0.00     0.000 A 
HETATM   32  C   UNL     1       8.679  31.959  62.584  1.00  0.00     0.001 A 
HETATM   33  C   UNL     1       8.384  31.730  61.239  1.00  0.00     0.009 A 
ENDBRANCH   6  28
TORSDOF 6
ENDMDL
MODEL 6
REMARK VINA RESULT:      -8.9      4.186      9.706
REMARK  6 active torsions:
REMARK  status: ('A' for Active; 'I' for Inactive)
REMARK    1  A    between atoms: O_2  and  C_3 
REMARK    2  A    between atoms: C_6  and  C_7 
REMARK    3  A    between atoms: C_7  and  N_8 
REMARK       I    between atoms: N_8  and  C_9 
REMARK    4  A    between atoms: C_9  and  C_10 
REMARK    5  A    between atoms: C_13  and  C_14 
REMARK    6  A    between atoms: C_19  and  C_20 
ROOT
HETATM    1  C   UNL     1       7.246  28.658  56.483  1.00  0.00     0.096 A 
HETATM    2  C   UNL     1       6.792  29.787  57.140  1.00  0.00     0.138 A 
HETATM    3  N   UNL     1       7.646  29.975  58.204  1.00  0.00    -0.240 N 
HETATM    4  C   UNL     1       7.491  31.013  59.208  1.00  0.00     0.221 C 
HETATM    5  C   UNL     1       6.522  32.104  58.717  1.00  0.00     0.066 C 
HETATM    6  C   UNL     1       5.297  31.466  58.054  1.00  0.00     0.118 C 
HETATM    7  N   UNL     1       5.737  30.624  56.936  1.00  0.00    -0.365 N 
HETATM    8  N   UNL     1       8.514  28.966  58.373  1.00  0.00    -0.181 NA
HETATM    9  C   UNL     1       8.295  28.186  57.310  1.00  0.00     0.160 A 
HETATM   10  H   UNL     1       4.946  30.270  56.396  1.00  0.00     0.161 HD
ENDROOT
BRANCH   1  11
HETATM   11  C   UNL     1       6.757  28.024  55.274  1.00  0.00     0.257 C 
HETATM   12  N   UNL     1       7.133  26.710  55.118  1.00  0.00    -0.352 N 
HETATM   13  H   UNL     1       7.539  26.237  55.916  1.00  0.00     0.163 HD
HETATM   14  O   UNL     1       6.049  28.621  54.472  1.00  0.00    -0.267 OA
BRANCH  12  15
HETATM   15  C   UNL     1       6.740  25.928  53.971  1.00  0.00     0.161 C 
BRANCH  15  16
HETATM   16  C   UNL     1       7.188  24.492  54.068  1.00  0.00    -0.040 A 
HETATM   17  C   UNL     1       7.232  23.835  55.304  1.00  0.00     0.011 A 
HETATM   18  C   UNL     1       7.589  22.486  55.378  1.00  0.00     0.037 A 
HETATM   19  C   UNL     1       7.889  21.765  54.222  1.00  0.00     0.068 A 
HETATM   20  C   UNL     1       7.862  22.413  52.988  1.00  0.00     0.037 A 
HETATM   21  C   UNL     1       7.511  23.767  52.913  1.00  0.00     0.011 A 
BRANCH  19  22
HETATM   22  O   UNL     1       8.198  20.447  54.426  1.00  0.00    -0.356 OA
HETATM   23  C   UNL     1       8.406  20.047  55.774  1.00  0.00     0.210 C 
ENDBRANCH  19  22
ENDBRANCH  15  16
ENDBRANCH  12  15
ENDBRANCH   1  11
BRANCH   4  24
HETATM   24  C   UNL     1       8.817  31.642  59.579  1.00  0.00     0.409 C 
HETATM   25  F   UNL     1       9.554  30.851  60.392  1.00  0.00    -0.169 F 
HETATM   26  F   UNL     1       9.558  31.834  58.452  1.00  0.00    -0.169 F 
HETATM   27  F   UNL     1       8.700  32.855  60.156  1.00  0.00    -0.169 F 
ENDBRANCH   4  24
BRANCH   6  28
HETATM   28  C   UNL     1       4.317  32.504  57.546  1.00  0.00    -0.035 A 
HETATM   29  C   UNL     1       3.599  32.311  56.354  1.00  0.00     0.009 A 
HETATM   30  C   UNL     1       2.709  33.281  55.892  1.00  0.00     0.001 A 
HETATM   31  C   UNL     1       2.522  34.457  56.615  1.00  0.00     0.000 A 
HETATM   32  C   UNL     1       3.223  34.662  57.802  1.00  0.00     0.001 A 
HETATM   33  C   UNL     1       4.115  33.693  58.265  1.00  0.00     0.009 A 
ENDBRANCH   6  28
TORSDOF 6
ENDMDL
MODEL 7
REMARK VINA RESULT:      -8.7      4.440     10.227
REMARK  6 active torsions:
REMARK  status: ('A' for Active; 'I' for Inactive)
REMARK    1  A    between atoms: O_2  and  C_3 
REMARK    2  A    between atoms: C_6  and  C_7 
REMARK    3  A    between atoms: C_7  and  N_8 
REMARK       I    between atoms: N_8  and  C_9 
REMARK    4  A    between atoms: C_9  and  C_10 
REMARK    5  A    between atoms: C_13  and  C_14 
REMARK    6  A    between atoms: C_19  and  C_20 
ROOT
HETATM    1  C   UNL     1       7.366  29.732  57.398  1.00  0.00     0.096 A 
HETATM    2  C   UNL     1       7.025  30.724  58.299  1.00  0.00     0.138 A 
HETATM    3  N   UNL     1       7.855  30.551  59.384  1.00  0.00    -0.240 N 
HETATM    4  C   UNL     1       7.788  31.337  60.604  1.00  0.00     0.221 C 
HETATM    5  C   UNL     1       6.971  32.623  60.378  1.00  0.00     0.066 C 
HETATM    6  C   UNL     1       5.705  32.313  59.573  1.00  0.00     0.118 C 
HETATM    7  N   UNL     1       6.084  31.707  58.292  1.00  0.00    -0.365 N 
HETATM    8  N   UNL     1       8.592  29.432  59.317  1.00  0.00    -0.181 NA
HETATM    9  C   UNL     1       8.321  28.955  58.098  1.00  0.00     0.160 A 
HETATM   10  H   UNL     1       5.276  31.590  57.677  1.00  0.00     0.161 HD
ENDROOT
BRANCH   1  11
HETATM   11  C   UNL     1       6.850  29.463  56.070  1.00  0.00     0.257 C 
HETATM   12  N   UNL     1       7.484  28.442  55.400  1.00  0.00    -0.352 N 
HETATM   13  H   UNL     1       8.105  27.843  55.929  1.00  0.00     0.163 HD
HETATM   14  O   UNL     1       5.910  30.094  55.601  1.00  0.00    -0.267 OA
BRANCH  12  15
HETATM   15  C   UNL     1       7.102  28.044  54.066  1.00  0.00     0.161 C 
BRANCH  15  16
HETATM   16  C   UNL     1       7.162  26.551  53.869  1.00  0.00    -0.040 A 
HETATM   17  C   UNL     1       7.750  25.999  52.724  1.00  0.00     0.011 A 
HETATM   18  C   UNL     1       7.857  24.614  52.578  1.00  0.00     0.037 A 
HETATM   19  C   UNL     1       7.399  23.755  53.578  1.00  0.00     0.068 A 
HETATM   20  C   UNL     1       6.800  24.294  54.716  1.00  0.00     0.037 A 
HETATM   21  C   UNL     1       6.685  25.682  54.861  1.00  0.00     0.011 A 
BRANCH  19  22
HETATM   22  O   UNL     1       7.585  22.423  53.327  1.00  0.00    -0.356 OA
HETATM   23  C   UNL     1       8.851  21.882  53.686  1.00  0.00     0.210 C 
ENDBRANCH  19  22
ENDBRANCH  15  16
ENDBRANCH  12  15
ENDBRANCH   1  11
BRANCH   4  24
HETATM   24  C   UNL     1       9.164  31.694  61.123  1.00  0.00     0.409 C 
HETATM   25  F   UNL     1       9.937  32.276  60.178  1.00  0.00    -0.169 F 
HETATM   26  F   UNL     1       9.046  32.597  62.136  1.00  0.00    -0.169 F 
HETATM   27  F   UNL     1       9.838  30.646  61.638  1.00  0.00    -0.169 F 
ENDBRANCH   4  24
BRANCH   6  28
HETATM   28  C   UNL     1       4.873  33.553  59.318  1.00  0.00    -0.035 A 
HETATM   29  C   UNL     1       4.589  33.987  58.012  1.00  0.00     0.009 A 
HETATM   30  C   UNL     1       3.832  35.139  57.792  1.00  0.00     0.001 A 
HETATM   31  C   UNL     1       3.346  35.871  58.872  1.00  0.00     0.000 A 
HETATM   32  C   UNL     1       3.614  35.451  60.173  1.00  0.00     0.001 A 
HETATM   33  C   UNL     1       4.373  34.300  60.396  1.00  0.00     0.009 A 
ENDBRANCH   6  28
TORSDOF 6
ENDMDL
MODEL 8
REMARK VINA RESULT:      -8.7      1.502      1.967
REMARK  6 active torsions:
REMARK  status: ('A' for Active; 'I' for Inactive)
REMARK    1  A    between atoms: O_2  and  C_3 
REMARK    2  A    between atoms: C_6  and  C_7 
REMARK    3  A    between atoms: C_7  and  N_8 
REMARK       I    between atoms: N_8  and  C_9 
REMARK    4  A    between atoms: C_9  and  C_10 
REMARK    5  A    between atoms: C_13  and  C_14 
REMARK    6  A    between atoms: C_19  and  C_20 
ROOT
HETATM    1  C   UNL     1       6.238  28.566  55.310  1.00  0.00     0.096 A 
HETATM    2  C   UNL     1       6.204  27.389  54.585  1.00  0.00     0.138 A 
HETATM    3  N   UNL     1       5.319  27.605  53.552  1.00  0.00    -0.240 N 
HETATM    4  C   UNL     1       4.925  26.597  52.583  1.00  0.00     0.221 C 
HETATM    5  C   UNL     1       5.906  25.410  52.603  1.00  0.00     0.066 C 
HETATM    6  C   UNL     1       6.240  25.023  54.047  1.00  0.00     0.118 C 
HETATM    7  N   UNL     1       6.815  26.182  54.738  1.00  0.00    -0.365 N 
HETATM    8  N   UNL     1       4.664  28.773  53.648  1.00  0.00    -0.181 NA
HETATM    9  C   UNL     1       5.247  29.369  54.693  1.00  0.00     0.160 A 
HETATM   10  H   UNL     1       7.157  25.935  55.669  1.00  0.00     0.161 HD
ENDROOT
BRANCH   1  11
HETATM   11  C   UNL     1       7.027  28.922  56.472  1.00  0.00     0.257 C 
HETATM   12  N   UNL     1       6.695  30.126  57.050  1.00  0.00    -0.352 N 
HETATM   13  H   UNL     1       5.831  30.567  56.760  1.00  0.00     0.163 HD
HETATM   14  O   UNL     1       7.907  28.188  56.905  1.00  0.00    -0.267 OA
BRANCH  12  15
HETATM   15  C   UNL     1       7.381  30.637  58.212  1.00  0.00     0.161 C 
BRANCH  15  16
HETATM   16  C   UNL     1       6.550  31.629  58.985  1.00  0.00    -0.040 A 
HETATM   17  C   UNL     1       6.894  31.992  60.293  1.00  0.00     0.011 A 
HETATM   18  C   UNL     1       6.153  32.957  60.979  1.00  0.00     0.037 A 
HETATM   19  C   UNL     1       5.072  33.593  60.368  1.00  0.00     0.068 A 
HETATM   20  C   UNL     1       4.712  33.229  59.071  1.00  0.00     0.037 A 
HETATM   21  C   UNL     1       5.448  32.255  58.384  1.00  0.00     0.011 A 
BRANCH  19  22
HETATM   22  O   UNL     1       4.447  34.537  61.135  1.00  0.00    -0.356 OA
HETATM   23  C   UNL     1       4.702  34.488  62.534  1.00  0.00     0.210 C 
ENDBRANCH  19  22
ENDBRANCH  15  16
ENDBRANCH  12  15
ENDBRANCH   1  11
BRANCH   4  24
HETATM   24  C   UNL     1       4.841  27.163  51.182  1.00  0.00     0.409 C 
HETATM   25  F   UNL     1       5.897  27.952  50.879  1.00  0.00    -0.169 F 
HETATM   26  F   UNL     1       4.851  26.142  50.281  1.00  0.00    -0.169 F 
HETATM   27  F   UNL     1       3.709  27.856  50.944  1.00  0.00    -0.169 F 
ENDBRANCH   4  24
BRANCH   6  28
HETATM   28  C   UNL     1       7.212  23.862  54.117  1.00  0.00    -0.035 A 
HETATM   29  C   UNL     1       8.004  23.638  55.256  1.00  0.00     0.009 A 
HETATM   30  C   UNL     1       8.904  22.573  55.300  1.00  0.00     0.001 A 
HETATM   31  C   UNL     1       9.023  21.715  54.210  1.00  0.00     0.000 A 
HETATM   32  C   UNL     1       8.241  21.920  53.075  1.00  0.00     0.001 A 
HETATM   33  C   UNL     1       7.341  22.986  53.028  1.00  0.00     0.009 A 
ENDBRANCH   6  28
TORSDOF 6
ENDMDL
MODEL 9
REMARK VINA RESULT:      -8.6      2.586      4.106
REMARK  6 active torsions:
REMARK  status: ('A' for Active; 'I' for Inactive)
REMARK    1  A    between atoms: O_2  and  C_3 
REMARK    2  A    between atoms: C_6  and  C_7 
REMARK    3  A    between atoms: C_7  and  N_8 
REMARK       I    between atoms: N_8  and  C_9 
REMARK    4  A    between atoms: C_9  and  C_10 
REMARK    5  A    between atoms: C_13  and  C_14 
REMARK    6  A    between atoms: C_19  and  C_20 
ROOT
HETATM    1  C   UNL     1       3.849  29.503  52.797  1.00  0.00     0.096 A 
HETATM    2  C   UNL     1       4.367  28.305  52.342  1.00  0.00     0.138 A 
HETATM    3  N   UNL     1       4.057  28.243  51.002  1.00  0.00    -0.240 N 
HETATM    4  C   UNL     1       4.351  27.110  50.142  1.00  0.00     0.221 C 
HETATM    5  C   UNL     1       5.394  26.185  50.798  1.00  0.00     0.066 C 
HETATM    6  C   UNL     1       5.063  25.981  52.280  1.00  0.00     0.118 C 
HETATM    7  N   UNL     1       5.031  27.285  52.952  1.00  0.00    -0.365 N 
HETATM    8  N   UNL     1       3.244  29.231  50.598  1.00  0.00    -0.181 NA
HETATM    9  C   UNL     1       3.147  30.013  51.677  1.00  0.00     0.160 A 
HETATM   10  H   UNL     1       4.927  27.185  53.963  1.00  0.00     0.161 HD
ENDROOT
BRANCH   1  11
HETATM   11  C   UNL     1       3.916  30.107  54.114  1.00  0.00     0.257 C 
HETATM   12  N   UNL     1       3.741  29.232  55.160  1.00  0.00    -0.352 N 
HETATM   13  H   UNL     1       3.773  28.241  54.959  1.00  0.00     0.163 HD
HETATM   14  O   UNL     1       4.133  31.304  54.265  1.00  0.00    -0.267 OA
BRANCH  12  15
HETATM   15  C   UNL     1       3.772  29.664  56.537  1.00  0.00     0.161 C 
BRANCH  15  16
HETATM   16  C   UNL     1       5.166  29.667  57.110  1.00  0.00    -0.040 A 
HETATM   17  C   UNL     1       5.693  30.815  57.716  1.00  0.00     0.011 A 
HETATM   18  C   UNL     1       6.962  30.790  58.299  1.00  0.00     0.037 A 
HETATM   19  C   UNL     1       7.720  29.618  58.307  1.00  0.00     0.068 A 
HETATM   20  C   UNL     1       7.211  28.474  57.695  1.00  0.00     0.037 A 
HETATM   21  C   UNL     1       5.941  28.498  57.103  1.00  0.00     0.011 A 
BRANCH  19  22
HETATM   22  O   UNL     1       8.933  29.717  58.932  1.00  0.00    -0.356 OA
HETATM   23  C   UNL     1       9.006  30.613  60.035  1.00  0.00     0.210 C 
ENDBRANCH  19  22
ENDBRANCH  15  16
ENDBRANCH  12  15
ENDBRANCH   1  11
BRANCH   4  24
HETATM   24  C   UNL     1       4.846  27.547  48.780  1.00  0.00     0.409 C 
HETATM   25  F   UNL     1       5.912  28.376  48.860  1.00  0.00    -0.169 F 
HETATM   26  F   UNL     1       5.257  26.457  48.076  1.00  0.00    -0.169 F 
HETATM   27  F   UNL     1       3.900  28.141  48.025  1.00  0.00    -0.169 F 
ENDBRANCH   4  24
BRANCH   6  28
HETATM   28  C   UNL     1       6.070  25.083  52.970  1.00  0.00    -0.035 A 
HETATM   29  C   UNL     1       5.999  24.830  54.350  1.00  0.00     0.009 A 
HETATM   30  C   UNL     1       6.940  24.011  54.975  1.00  0.00     0.001 A 
HETATM   31  C   UNL     1       7.964  23.432  54.230  1.00  0.00     0.000 A 
HETATM   32  C   UNL     1       8.045  23.668  52.859  1.00  0.00     0.001 A 
HETATM   33  C   UNL     1       7.105  24.488  52.233  1.00  0.00     0.009 A 
ENDBRANCH   6  28
TORSDOF 6
ENDMDL
MODEL 10
REMARK VINA RESULT:      -8.6      3.388      7.395
REMARK  6 active torsions:
REMARK  status: ('A' for Active; 'I' for Inactive)
REMARK    1  A    between atoms: O_2  and  C_3 
REMARK    2  A    between atoms: C_6  and  C_7 
REMARK    3  A    between atoms: C_7  and  N_8 
REMARK       I    between atoms: N_8  and  C_9 
REMARK    4  A    between atoms: C_9  and  C_10 
REMARK    5  A    between atoms: C_13  and  C_14 
REMARK    6  A    between atoms: C_19  and  C_20 
ROOT
HETATM    1  C   UNL     1       6.297  28.692  56.917  1.00  0.00     0.096 A 
HETATM    2  C   UNL     1       5.551  28.860  55.764  1.00  0.00     0.138 A 
HETATM    3  N   UNL     1       4.805  30.001  55.959  1.00  0.00    -0.240 N 
HETATM    4  C   UNL     1       3.820  30.508  55.019  1.00  0.00     0.221 C 
HETATM    5  C   UNL     1       4.006  29.862  53.634  1.00  0.00     0.066 C 
HETATM    6  C   UNL     1       4.249  28.356  53.780  1.00  0.00     0.118 C 
HETATM    7  N   UNL     1       5.433  28.137  54.617  1.00  0.00    -0.365 N 
HETATM    8  N   UNL     1       4.895  30.490  57.205  1.00  0.00    -0.181 NA
HETATM    9  C   UNL     1       5.826  29.717  57.774  1.00  0.00     0.160 A 
HETATM   10  H   UNL     1       5.697  27.150  54.646  1.00  0.00     0.161 HD
ENDROOT
BRANCH   1  11
HETATM   11  C   UNL     1       7.286  27.685  57.249  1.00  0.00     0.257 C 
HETATM   12  N   UNL     1       6.945  26.402  56.890  1.00  0.00    -0.352 N 
HETATM   13  H   UNL     1       6.155  26.277  56.270  1.00  0.00     0.163 HD
HETATM   14  O   UNL     1       8.346  27.974  57.790  1.00  0.00    -0.267 OA
BRANCH  12  15
HETATM   15  C   UNL     1       7.810  25.276  57.150  1.00  0.00     0.161 C 
BRANCH  15  16
HETATM   16  C   UNL     1       7.920  24.347  55.968  1.00  0.00    -0.040 A 
HETATM   17  C   UNL     1       8.591  23.123  56.074  1.00  0.00     0.011 A 
HETATM   18  C   UNL     1       8.635  22.241  54.992  1.00  0.00     0.037 A 
HETATM   19  C   UNL     1       7.995  22.553  53.792  1.00  0.00     0.068 A 
HETATM   20  C   UNL     1       7.335  23.775  53.671  1.00  0.00     0.037 A 
HETATM   21  C   UNL     1       7.296  24.664  54.752  1.00  0.00     0.011 A 
BRANCH  19  22
HETATM   22  O   UNL     1       8.089  21.595  52.820  1.00  0.00    -0.356 OA
HETATM   23  C   UNL     1       8.554  20.317  53.232  1.00  0.00     0.210 C 
ENDBRANCH  19  22
ENDBRANCH  15  16
ENDBRANCH  12  15
ENDBRANCH   1  11
BRANCH   4  24
HETATM   24  C   UNL     1       3.887  32.015  54.889  1.00  0.00     0.409 C 
HETATM   25  F   UNL     1       5.150  32.487  54.992  1.00  0.00    -0.169 F 
HETATM   26  F   UNL     1       3.437  32.383  53.658  1.00  0.00    -0.169 F 
HETATM   27  F   UNL     1       3.113  32.670  55.778  1.00  0.00    -0.169 F 
ENDBRANCH   4  24
BRANCH   6  28
HETATM   28  C   UNL     1       4.447  27.678  52.439  1.00  0.00    -0.035 A 
HETATM   29  C   UNL     1       4.999  26.389  52.346  1.00  0.00     0.009 A 
HETATM   30  C   UNL     1       5.188  25.782  51.104  1.00  0.00     0.001 A 
HETATM   31  C   UNL     1       4.824  26.451  49.939  1.00  0.00     0.000 A 
HETATM   32  C   UNL     1       4.270  27.727  50.014  1.00  0.00     0.001 A 
HETATM   33  C   UNL     1       4.082  28.337  51.255  1.00  0.00     0.009 A 
ENDBRANCH   6  28
TORSDOF 6
ENDMDL
