MODEL 1
REMARK VINA RESULT:      -9.9      0.000      0.000
REMARK  6 active torsions:
REMARK  status: ('A' for Active; 'I' for Inactive)
REMARK    1  A    between atoms: C_2  and  C_3 
REMARK    2  A    between atoms: C_7  and  C_8 
REMARK       I    between atoms: C_8  and  N_9 
REMARK    3  A    between atoms: N_9  and  C_10 
REMARK    4  A    between atoms: C_13  and  C_14 
REMARK       I    between atoms: C_14  and  N_15 
REMARK    5  A    between atoms: N_15  and  C_16 
REMARK    6  A    between atoms: C_16  and  C_17 
ROOT
HETATM    1  C   UNL     1       7.379  28.914  57.832  1.00  0.00     0.035 A 
HETATM    2  C   UNL     1       7.009  29.510  56.617  1.00  0.00     0.030 A 
HETATM    3  C   UNL     1       6.990  28.768  55.430  1.00  0.00     0.019 A 
HETATM    4  C   UNL     1       7.364  27.422  55.448  1.00  0.00     0.032 A 
HETATM    5  C   UNL     1       7.784  26.835  56.643  1.00  0.00     0.019 A 
HETATM    6  C   UNL     1       7.782  27.575  57.830  1.00  0.00     0.030 A 
ENDROOT
BRANCH   1   7
HETATM    7  N   UNL     1       7.334  29.712  58.993  1.00  0.00    -0.322 N 
HETATM    8  C   UNL     1       8.372  30.443  59.540  1.00  0.00     0.274 C 
HETATM    9  O   UNL     1       9.526  30.453  59.127  1.00  0.00    -0.266 OA
HETATM   10  H   UNL     1       6.483  29.665  59.536  1.00  0.00     0.169 HD
BRANCH   8  11
HETATM   11  C   UNL     1       8.020  31.191  60.723  1.00  0.00     0.120 A 
HETATM   12  N   UNL     1       6.723  31.554  60.967  1.00  0.00    -0.273 N 
HETATM   13  N   UNL     1       6.551  32.257  62.096  1.00  0.00    -0.179 NA
HETATM   14  H   UNL     1       5.915  31.352  60.383  1.00  0.00     0.189 HD
HETATM   15  C   UNL     1       7.775  32.309  62.633  1.00  0.00     0.056 A 
HETATM   16  C   UNL     1       8.732  31.669  61.808  1.00  0.00     0.065 A 
BRANCH  15  17
HETATM   17  C   UNL     1       7.992  32.981  63.946  1.00  0.00     0.056 C 
HETATM   18  C   UNL     1       6.685  33.342  64.638  1.00  0.00     0.011 C 
ENDBRANCH  15  17
ENDBRANCH   8  11
ENDBRANCH   1   7
BRANCH   4  19
HETATM   19  C   UNL     1       7.322  26.570  54.232  1.00  0.00     0.251 C 
HETATM   20  N   UNL     1       7.401  25.214  54.448  1.00  0.00    -0.353 N 
HETATM   21  H   UNL     1       7.481  24.845  55.385  1.00  0.00     0.163 HD
HETATM   22  O   UNL     1       7.283  27.086  53.122  1.00  0.00    -0.268 OA
BRANCH  20  23
HETATM   23  C   UNL     1       7.529  24.287  53.345  1.00  0.00     0.161 C 
BRANCH  23  24
HETATM   24  C   UNL     1       7.713  22.868  53.826  1.00  0.00    -0.041 A 
HETATM   25  C   UNL     1       8.034  21.849  52.918  1.00  0.00     0.009 A 
HETATM   26  C   UNL     1       8.243  20.541  53.363  1.00  0.00     0.001 A 
HETATM   27  C   UNL     1       8.134  20.238  54.719  1.00  0.00     0.000 A 
HETATM   28  C   UNL     1       7.831  21.244  55.633  1.00  0.00     0.001 A 
HETATM   29  C   UNL     1       7.630  22.552  55.192  1.00  0.00     0.009 A 
ENDBRANCH  23  24
ENDBRANCH  20  23
ENDBRANCH   4  19
TORSDOF 6
ENDMDL
MODEL 2
REMARK VINA RESULT:      -9.6      0.886      1.305
REMARK  6 active torsions:
REMARK  status: ('A' for Active; 'I' for Inactive)
REMARK    1  A    between atoms: C_2  and  C_3 
REMARK    2  A    between atoms: C_7  and  C_8 
REMARK       I    between atoms: C_8  and  N_9 
REMARK    3  A    between atoms: N_9  and  C_10 
REMARK    4  A    between atoms: C_13  and  C_14 
REMARK       I    between atoms: C_14  and  N_15 
REMARK    5  A    between atoms: N_15  and  C_16 
REMARK    6  A    between atoms: C_16  and  C_17 
ROOT
HETATM    1  C   UNL     1       7.318  29.452  58.087  1.00  0.00     0.035 A 
HETATM    2  C   UNL     1       6.201  29.524  57.242  1.00  0.00     0.030 A 
HETATM    3  C   UNL     1       6.177  28.835  56.023  1.00  0.00     0.019 A 
HETATM    4  C   UNL     1       7.286  28.081  55.632  1.00  0.00     0.032 A 
HETATM    5  C   UNL     1       8.422  28.046  56.443  1.00  0.00     0.019 A 
HETATM    6  C   UNL     1       8.433  28.721  57.668  1.00  0.00     0.030 A 
ENDROOT
BRANCH   1   7
HETATM    7  N   UNL     1       7.253  30.138  59.318  1.00  0.00    -0.322 N 
HETATM    8  C   UNL     1       7.786  31.381  59.604  1.00  0.00     0.274 C 
HETATM    9  O   UNL     1       8.464  32.055  58.837  1.00  0.00    -0.266 OA
HETATM   10  H   UNL     1       6.866  29.625  60.096  1.00  0.00     0.169 HD
BRANCH   8  11
HETATM   11  C   UNL     1       7.537  31.844  60.948  1.00  0.00     0.120 A 
HETATM   12  N   UNL     1       6.312  31.675  61.535  1.00  0.00    -0.273 N 
HETATM   13  N   UNL     1       6.225  32.168  62.779  1.00  0.00    -0.179 NA
HETATM   14  H   UNL     1       5.495  31.234  61.121  1.00  0.00     0.189 HD
HETATM   15  C   UNL     1       7.455  32.629  63.030  1.00  0.00     0.056 A 
HETATM   16  C   UNL     1       8.310  32.463  61.913  1.00  0.00     0.065 A 
BRANCH  15  17
HETATM   17  C   UNL     1       7.779  33.225  64.358  1.00  0.00     0.056 C 
HETATM   18  C   UNL     1       6.533  33.630  65.133  1.00  0.00     0.011 C 
ENDBRANCH  15  17
ENDBRANCH   8  11
ENDBRANCH   1   7
BRANCH   4  19
HETATM   19  C   UNL     1       7.305  27.291  54.374  1.00  0.00     0.251 C 
HETATM   20  N   UNL     1       7.367  25.926  54.524  1.00  0.00    -0.353 N 
HETATM   21  H   UNL     1       7.397  25.510  55.445  1.00  0.00     0.163 HD
HETATM   22  O   UNL     1       7.326  27.863  53.291  1.00  0.00    -0.268 OA
BRANCH  20  23
HETATM   23  C   UNL     1       7.550  25.055  53.385  1.00  0.00     0.161 C 
BRANCH  23  24
HETATM   24  C   UNL     1       7.704  23.613  53.802  1.00  0.00    -0.041 A 
HETATM   25  C   UNL     1       7.574  23.249  55.150  1.00  0.00     0.009 A 
HETATM   26  C   UNL     1       7.678  21.911  55.538  1.00  0.00     0.001 A 
HETATM   27  C   UNL     1       7.910  20.922  54.583  1.00  0.00     0.000 A 
HETATM   28  C   UNL     1       8.026  21.268  53.239  1.00  0.00     0.001 A 
HETATM   29  C   UNL     1       7.914  22.603  52.849  1.00  0.00     0.009 A 
ENDBRANCH  23  24
ENDBRANCH  20  23
ENDBRANCH   4  19
TORSDOF 6
ENDMDL
MODEL 3
REMARK VINA RESULT:      -9.5      5.021     12.870
REMARK  6 active torsions:
REMARK  status: ('A' for Active; 'I' for Inactive)
REMARK    1  A    between atoms: C_2  and  C_3 
REMARK    2  A    between atoms: C_7  and  C_8 
REMARK       I    between atoms: C_8  and  N_9 
REMARK    3  A    between atoms: N_9  and  C_10 
REMARK    4  A    between atoms: C_13  and  C_14 
REMARK       I    between atoms: C_14  and  N_15 
REMARK    5  A    between atoms: N_15  and  C_16 
REMARK    6  A    between atoms: C_16  and  C_17 
ROOT
HETATM    1  C   UNL     1       7.018  32.063  62.668  1.00  0.00     0.035 A 
HETATM    2  C   UNL     1       7.904  32.700  63.550  1.00  0.00     0.030 A 
HETATM    3  C   UNL     1       7.430  33.356  64.693  1.00  0.00     0.019 A 
HETATM    4  C   UNL     1       6.057  33.394  64.952  1.00  0.00     0.032 A 
HETATM    5  C   UNL     1       5.166  32.807  64.051  1.00  0.00     0.019 A 
HETATM    6  C   UNL     1       5.645  32.137  62.921  1.00  0.00     0.030 A 
ENDROOT
BRANCH   1   7
HETATM    7  N   UNL     1       7.571  31.388  61.560  1.00  0.00    -0.322 N 
HETATM    8  C   UNL     1       7.417  31.715  60.226  1.00  0.00     0.274 C 
HETATM    9  O   UNL     1       6.709  32.619  59.796  1.00  0.00    -0.266 OA
HETATM   10  H   UNL     1       8.045  30.518  61.757  1.00  0.00     0.169 HD
BRANCH   8  11
HETATM   11  C   UNL     1       8.127  30.854  59.311  1.00  0.00     0.120 A 
HETATM   12  N   UNL     1       7.666  29.597  59.026  1.00  0.00    -0.273 N 
HETATM   13  N   UNL     1       8.437  28.909  58.171  1.00  0.00    -0.179 NA
HETATM   14  H   UNL     1       6.829  29.157  59.399  1.00  0.00     0.189 HD
HETATM   15  C   UNL     1       9.408  29.770  57.848  1.00  0.00     0.056 A 
HETATM   16  C   UNL     1       9.269  30.995  58.545  1.00  0.00     0.065 A 
BRANCH  15  17
HETATM   17  C   UNL     1      10.459  29.383  56.864  1.00  0.00     0.056 C 
HETATM   18  C   UNL     1       9.971  29.478  55.425  1.00  0.00     0.011 C 
ENDBRANCH  15  17
ENDBRANCH   8  11
ENDBRANCH   1   7
BRANCH   4  19
HETATM   19  C   UNL     1       5.496  34.033  66.169  1.00  0.00     0.251 C 
HETATM   20  N   UNL     1       6.397  34.704  66.963  1.00  0.00    -0.353 N 
HETATM   21  H   UNL     1       7.375  34.746  66.711  1.00  0.00     0.163 HD
HETATM   22  O   UNL     1       4.312  33.894  66.445  1.00  0.00    -0.268 OA
BRANCH  20  23
HETATM   23  C   UNL     1       6.010  35.233  68.252  1.00  0.00     0.161 C 
BRANCH  23  24
HETATM   24  C   UNL     1       6.764  34.568  69.378  1.00  0.00    -0.041 A 
HETATM   25  C   UNL     1       8.005  35.072  69.793  1.00  0.00     0.009 A 
HETATM   26  C   UNL     1       8.689  34.484  70.860  1.00  0.00     0.001 A 
HETATM   27  C   UNL     1       8.140  33.389  71.524  1.00  0.00     0.000 A 
HETATM   28  C   UNL     1       6.901  32.888  71.132  1.00  0.00     0.001 A 
HETATM   29  C   UNL     1       6.212  33.479  70.073  1.00  0.00     0.009 A 
ENDBRANCH  23  24
ENDBRANCH  20  23
ENDBRANCH   4  19
TORSDOF 6
ENDMDL
MODEL 4
REMARK VINA RESULT:      -9.4      1.489      2.125
REMARK  6 active torsions:
REMARK  status: ('A' for Active; 'I' for Inactive)
REMARK    1  A    between atoms: C_2  and  C_3 
REMARK    2  A    between atoms: C_7  and  C_8 
REMARK       I    between atoms: C_8  and  N_9 
REMARK    3  A    between atoms: N_9  and  C_10 
REMARK    4  A    between atoms: C_13  and  C_14 
REMARK       I    between atoms: C_14  and  N_15 
REMARK    5  A    between atoms: N_15  and  C_16 
REMARK    6  A    between atoms: C_16  and  C_17 
ROOT
HETATM    1  C   UNL     1       7.604  30.191  58.397  1.00  0.00     0.035 A 
HETATM    2  C   UNL     1       6.515  30.296  57.520  1.00  0.00     0.030 A 
HETATM    3  C   UNL     1       6.530  29.651  56.277  1.00  0.00     0.019 A 
HETATM    4  C   UNL     1       7.651  28.909  55.894  1.00  0.00     0.032 A 
HETATM    5  C   UNL     1       8.759  28.842  56.741  1.00  0.00     0.019 A 
HETATM    6  C   UNL     1       8.732  29.472  57.989  1.00  0.00     0.030 A 
ENDROOT
BRANCH   1   7
HETATM    7  N   UNL     1       7.500  30.832  59.649  1.00  0.00    -0.322 N 
HETATM    8  C   UNL     1       8.147  31.987  60.046  1.00  0.00     0.274 C 
HETATM    9  O   UNL     1       8.974  32.601  59.381  1.00  0.00    -0.266 OA
HETATM   10  H   UNL     1       6.978  30.343  60.361  1.00  0.00     0.169 HD
BRANCH   8  11
HETATM   11  C   UNL     1       7.823  32.427  61.382  1.00  0.00     0.120 A 
HETATM   12  N   UNL     1       8.493  31.932  62.468  1.00  0.00    -0.273 N 
HETATM   13  N   UNL     1       8.073  32.422  63.644  1.00  0.00    -0.179 NA
HETATM   14  H   UNL     1       9.242  31.245  62.459  1.00  0.00     0.189 HD
HETATM   15  C   UNL     1       7.130  33.308  63.306  1.00  0.00     0.056 A 
HETATM   16  C   UNL     1       6.926  33.340  61.905  1.00  0.00     0.065 A 
BRANCH  15  17
HETATM   17  C   UNL     1       6.443  34.113  64.357  1.00  0.00     0.056 C 
HETATM   18  C   UNL     1       6.955  33.801  65.756  1.00  0.00     0.011 C 
ENDBRANCH  15  17
ENDBRANCH   8  11
ENDBRANCH   1   7
BRANCH   4  19
HETATM   19  C   UNL     1       7.710  28.165  54.610  1.00  0.00     0.251 C 
HETATM   20  N   UNL     1       6.751  27.195  54.435  1.00  0.00    -0.353 N 
HETATM   21  H   UNL     1       6.060  27.019  55.151  1.00  0.00     0.163 HD
HETATM   22  O   UNL     1       8.611  28.389  53.812  1.00  0.00    -0.268 OA
BRANCH  20  23
HETATM   23  C   UNL     1       6.794  26.296  53.303  1.00  0.00     0.161 C 
BRANCH  23  24
HETATM   24  C   UNL     1       7.183  24.897  53.715  1.00  0.00    -0.041 A 
HETATM   25  C   UNL     1       7.079  24.499  55.056  1.00  0.00     0.009 A 
HETATM   26  C   UNL     1       7.401  23.195  55.437  1.00  0.00     0.001 A 
HETATM   27  C   UNL     1       7.827  22.272  54.483  1.00  0.00     0.000 A 
HETATM   28  C   UNL     1       7.919  22.649  53.145  1.00  0.00     0.001 A 
HETATM   29  C   UNL     1       7.590  23.949  52.762  1.00  0.00     0.009 A 
ENDBRANCH  23  24
ENDBRANCH  20  23
ENDBRANCH   4  19
TORSDOF 6
ENDMDL
MODEL 5
REMARK VINA RESULT:      -9.1      2.045     10.553
REMARK  6 active torsions:
REMARK  status: ('A' for Active; 'I' for Inactive)
REMARK    1  A    between atoms: C_2  and  C_3 
REMARK    2  A    between atoms: C_7  and  C_8 
REMARK       I    between atoms: C_8  and  N_9 
REMARK    3  A    between atoms: N_9  and  C_10 
REMARK    4  A    between atoms: C_13  and  C_14 
REMARK       I    between atoms: C_14  and  N_15 
REMARK    5  A    between atoms: N_15  and  C_16 
REMARK    6  A    between atoms: C_16  and  C_17 
ROOT
HETATM    1  C   UNL     1       7.188  27.879  56.773  1.00  0.00     0.035 A 
HETATM    2  C   UNL     1       5.951  28.472  56.482  1.00  0.00     0.030 A 
HETATM    3  C   UNL     1       5.592  29.700  57.053  1.00  0.00     0.019 A 
HETATM    4  C   UNL     1       6.466  30.334  57.938  1.00  0.00     0.032 A 
HETATM    5  C   UNL     1       7.677  29.724  58.272  1.00  0.00     0.019 A 
HETATM    6  C   UNL     1       8.039  28.508  57.685  1.00  0.00     0.030 A 
ENDROOT
BRANCH   1   7
HETATM    7  N   UNL     1       7.498  26.663  56.128  1.00  0.00    -0.322 N 
HETATM    8  C   UNL     1       7.092  25.396  56.505  1.00  0.00     0.274 C 
HETATM    9  O   UNL     1       6.444  25.130  57.511  1.00  0.00    -0.266 OA
HETATM   10  H   UNL     1       8.167  26.714  55.374  1.00  0.00     0.169 HD
BRANCH   8  11
HETATM   11  C   UNL     1       7.542  24.338  55.633  1.00  0.00     0.120 A 
HETATM   12  N   UNL     1       8.715  23.675  55.879  1.00  0.00    -0.273 N 
HETATM   13  N   UNL     1       9.010  22.728  54.977  1.00  0.00    -0.179 NA
HETATM   14  H   UNL     1       9.357  23.842  56.649  1.00  0.00     0.189 HD
HETATM   15  C   UNL     1       7.965  22.739  54.142  1.00  0.00     0.056 A 
HETATM   16  C   UNL     1       7.026  23.737  54.500  1.00  0.00     0.065 A 
BRANCH  15  17
HETATM   17  C   UNL     1       7.898  21.775  53.007  1.00  0.00     0.056 C 
HETATM   18  C   UNL     1       8.574  20.450  53.329  1.00  0.00     0.011 C 
ENDBRANCH  15  17
ENDBRANCH   8  11
ENDBRANCH   1   7
BRANCH   4  19
HETATM   19  C   UNL     1       6.164  31.658  58.540  1.00  0.00     0.251 C 
HETATM   20  N   UNL     1       6.029  31.676  59.909  1.00  0.00    -0.353 N 
HETATM   21  H   UNL     1       6.133  30.828  60.448  1.00  0.00     0.163 HD
HETATM   22  O   UNL     1       5.993  32.634  57.822  1.00  0.00    -0.268 OA
BRANCH  20  23
HETATM   23  C   UNL     1       5.580  32.865  60.600  1.00  0.00     0.161 C 
BRANCH  23  24
HETATM   24  C   UNL     1       6.310  33.059  61.908  1.00  0.00    -0.041 A 
HETATM   25  C   UNL     1       5.845  33.993  62.845  1.00  0.00     0.009 A 
HETATM   26  C   UNL     1       6.494  34.151  64.072  1.00  0.00     0.001 A 
HETATM   27  C   UNL     1       7.611  33.375  64.377  1.00  0.00     0.000 A 
HETATM   28  C   UNL     1       8.073  32.433  63.462  1.00  0.00     0.001 A 
HETATM   29  C   UNL     1       7.422  32.269  62.239  1.00  0.00     0.009 A 
ENDBRANCH  23  24
ENDBRANCH  20  23
ENDBRANCH   4  19
TORSDOF 6
ENDMDL
MODEL 6
REMARK VINA RESULT:      -8.3      2.167      3.451
REMARK  6 active torsions:
REMARK  status: ('A' for Active; 'I' for Inactive)
REMARK    1  A    between atoms: C_2  and  C_3 
REMARK    2  A    between atoms: C_7  and  C_8 
REMARK       I    between atoms: C_8  and  N_9 
REMARK    3  A    between atoms: N_9  and  C_10 
REMARK    4  A    between atoms: C_13  and  C_14 
REMARK       I    between atoms: C_14  and  N_15 
REMARK    5  A    between atoms: N_15  and  C_16 
REMARK    6  A    between atoms: C_16  and  C_17 
ROOT
HETATM    1  C   UNL     1       7.231  31.077  59.592  1.00  0.00     0.035 A 
HETATM    2  C   UNL     1       6.348  31.056  58.502  1.00  0.00     0.030 A 
HETATM    3  C   UNL     1       6.733  30.498  57.277  1.00  0.00     0.019 A 
HETATM    4  C   UNL     1       8.019  29.970  57.129  1.00  0.00     0.032 A 
HETATM    5  C   UNL     1       8.920  30.034  58.194  1.00  0.00     0.019 A 
HETATM    6  C   UNL     1       8.524  30.576  59.420  1.00  0.00     0.030 A 
ENDROOT
BRANCH   1   7
HETATM    7  N   UNL     1       6.759  31.618  60.806  1.00  0.00    -0.322 N 
HETATM    8  C   UNL     1       7.327  31.471  62.057  1.00  0.00     0.274 C 
HETATM    9  O   UNL     1       8.308  30.781  62.313  1.00  0.00    -0.266 OA
HETATM   10  H   UNL     1       5.859  32.075  60.772  1.00  0.00     0.169 HD
BRANCH   8  11
HETATM   11  C   UNL     1       6.635  32.166  63.115  1.00  0.00     0.120 A 
HETATM   12  N   UNL     1       5.298  31.964  63.333  1.00  0.00    -0.273 N 
HETATM   13  N   UNL     1       4.789  32.688  64.341  1.00  0.00    -0.179 NA
HETATM   14  H   UNL     1       4.683  31.345  62.810  1.00  0.00     0.189 HD
HETATM   15  C   UNL     1       5.845  33.346  64.831  1.00  0.00     0.056 A 
HETATM   16  C   UNL     1       7.021  33.065  64.091  1.00  0.00     0.065 A 
BRANCH  15  17
HETATM   17  C   UNL     1       5.692  34.239  66.015  1.00  0.00     0.056 C 
HETATM   18  C   UNL     1       4.241  34.622  66.270  1.00  0.00     0.011 C 
ENDBRANCH  15  17
ENDBRANCH   8  11
ENDBRANCH   1   7
BRANCH   4  19
HETATM   19  C   UNL     1       8.472  29.323  55.871  1.00  0.00     0.251 C 
HETATM   20  N   UNL     1       7.484  28.760  55.098  1.00  0.00    -0.353 N 
HETATM   21  H   UNL     1       6.517  28.798  55.389  1.00  0.00     0.163 HD
HETATM   22  O   UNL     1       9.666  29.263  55.608  1.00  0.00    -0.268 OA
BRANCH  20  23
HETATM   23  C   UNL     1       7.807  27.966  53.933  1.00  0.00     0.161 C 
BRANCH  23  24
HETATM   24  C   UNL     1       7.517  26.501  54.158  1.00  0.00    -0.041 A 
HETATM   25  C   UNL     1       6.925  26.073  55.355  1.00  0.00     0.009 A 
HETATM   26  C   UNL     1       6.620  24.724  55.553  1.00  0.00     0.001 A 
HETATM   27  C   UNL     1       6.900  23.790  54.557  1.00  0.00     0.000 A 
HETATM   28  C   UNL     1       7.474  24.204  53.357  1.00  0.00     0.001 A 
HETATM   29  C   UNL     1       7.772  25.552  53.155  1.00  0.00     0.009 A 
ENDBRANCH  23  24
ENDBRANCH  20  23
ENDBRANCH   4  19
TORSDOF 6
ENDMDL
MODEL 7
REMARK VINA RESULT:      -8.0      2.487      2.669
REMARK  6 active torsions:
REMARK  status: ('A' for Active; 'I' for Inactive)
REMARK    1  A    between atoms: C_2  and  C_3 
REMARK    2  A    between atoms: C_7  and  C_8 
REMARK       I    between atoms: C_8  and  N_9 
REMARK    3  A    between atoms: N_9  and  C_10 
REMARK    4  A    between atoms: C_13  and  C_14 
REMARK       I    between atoms: C_14  and  N_15 
REMARK    5  A    between atoms: N_15  and  C_16 
REMARK    6  A    between atoms: C_16  and  C_17 
ROOT
HETATM    1  C   UNL     1       5.153  29.646  57.463  1.00  0.00     0.035 A 
HETATM    2  C   UNL     1       4.127  29.641  56.506  1.00  0.00     0.030 A 
HETATM    3  C   UNL     1       4.152  28.741  55.433  1.00  0.00     0.019 A 
HETATM    4  C   UNL     1       5.219  27.850  55.300  1.00  0.00     0.032 A 
HETATM    5  C   UNL     1       6.270  27.885  56.219  1.00  0.00     0.019 A 
HETATM    6  C   UNL     1       6.232  28.772  57.300  1.00  0.00     0.030 A 
ENDROOT
BRANCH   1   7
HETATM    7  N   UNL     1       5.040  30.551  58.538  1.00  0.00    -0.322 N 
HETATM    8  C   UNL     1       5.445  31.872  58.558  1.00  0.00     0.274 C 
HETATM    9  O   UNL     1       6.035  32.447  57.649  1.00  0.00    -0.266 OA
HETATM   10  H   UNL     1       4.722  30.166  59.416  1.00  0.00     0.169 HD
BRANCH   8  11
HETATM   11  C   UNL     1       5.174  32.565  59.795  1.00  0.00     0.120 A 
HETATM   12  N   UNL     1       5.436  31.976  61.003  1.00  0.00    -0.273 N 
HETATM   13  N   UNL     1       5.119  32.733  62.064  1.00  0.00    -0.179 NA
HETATM   14  H   UNL     1       5.824  31.049  61.156  1.00  0.00     0.189 HD
HETATM   15  C   UNL     1       4.683  33.877  61.526  1.00  0.00     0.056 A 
HETATM   16  C   UNL     1       4.684  33.819  60.110  1.00  0.00     0.065 A 
BRANCH  15  17
HETATM   17  C   UNL     1       4.273  35.012  62.401  1.00  0.00     0.056 C 
HETATM   18  C   UNL     1       5.400  36.009  62.627  1.00  0.00     0.011 C 
ENDBRANCH  15  17
ENDBRANCH   8  11
ENDBRANCH   1   7
BRANCH   4  19
HETATM   19  C   UNL     1       5.281  26.842  54.211  1.00  0.00     0.251 C 
HETATM   20  N   UNL     1       5.659  25.575  54.588  1.00  0.00    -0.353 N 
HETATM   21  H   UNL     1       5.877  25.368  55.553  1.00  0.00     0.163 HD
HETATM   22  O   UNL     1       5.061  27.175  53.053  1.00  0.00    -0.268 OA
BRANCH  20  23
HETATM   23  C   UNL     1       5.911  24.544  53.605  1.00  0.00     0.161 C 
BRANCH  23  24
HETATM   24  C   UNL     1       7.067  23.660  54.004  1.00  0.00    -0.041 A 
HETATM   25  C   UNL     1       7.609  22.748  53.088  1.00  0.00     0.009 A 
HETATM   26  C   UNL     1       8.704  21.954  53.439  1.00  0.00     0.001 A 
HETATM   27  C   UNL     1       9.269  22.065  54.708  1.00  0.00     0.000 A 
HETATM   28  C   UNL     1       8.750  22.978  55.623  1.00  0.00     0.001 A 
HETATM   29  C   UNL     1       7.662  23.778  55.271  1.00  0.00     0.009 A 
ENDBRANCH  23  24
ENDBRANCH  20  23
ENDBRANCH   4  19
TORSDOF 6
ENDMDL
MODEL 8
REMARK VINA RESULT:      -7.9      2.191      2.604
REMARK  6 active torsions:
REMARK  status: ('A' for Active; 'I' for Inactive)
REMARK    1  A    between atoms: C_2  and  C_3 
REMARK    2  A    between atoms: C_7  and  C_8 
REMARK       I    between atoms: C_8  and  N_9 
REMARK    3  A    between atoms: N_9  and  C_10 
REMARK    4  A    between atoms: C_13  and  C_14 
REMARK       I    between atoms: C_14  and  N_15 
REMARK    5  A    between atoms: N_15  and  C_16 
REMARK    6  A    between atoms: C_16  and  C_17 
ROOT
HETATM    1  C   UNL     1       5.119  29.989  57.479  1.00  0.00     0.035 A 
HETATM    2  C   UNL     1       4.348  30.279  56.344  1.00  0.00     0.030 A 
HETATM    3  C   UNL     1       4.299  29.389  55.264  1.00  0.00     0.019 A 
HETATM    4  C   UNL     1       5.041  28.206  55.306  1.00  0.00     0.032 A 
HETATM    5  C   UNL     1       5.851  27.936  56.411  1.00  0.00     0.019 A 
HETATM    6  C   UNL     1       5.882  28.819  57.495  1.00  0.00     0.030 A 
ENDROOT
BRANCH   1   7
HETATM    7  N   UNL     1       5.086  30.913  58.545  1.00  0.00    -0.322 N 
HETATM    8  C   UNL     1       6.077  31.810  58.897  1.00  0.00     0.274 C 
HETATM    9  O   UNL     1       7.179  31.894  58.366  1.00  0.00    -0.266 OA
HETATM   10  H   UNL     1       4.301  30.841  59.175  1.00  0.00     0.169 HD
BRANCH   8  11
HETATM   11  C   UNL     1       5.750  32.654  60.021  1.00  0.00     0.120 A 
HETATM   12  N   UNL     1       4.851  33.679  59.894  1.00  0.00    -0.273 N 
HETATM   13  N   UNL     1       4.659  34.385  61.018  1.00  0.00    -0.179 NA
HETATM   14  H   UNL     1       4.348  33.945  59.052  1.00  0.00     0.189 HD
HETATM   15  C   UNL     1       5.421  33.763  61.924  1.00  0.00     0.056 A 
HETATM   16  C   UNL     1       6.134  32.682  61.349  1.00  0.00     0.065 A 
BRANCH  15  17
HETATM   17  C   UNL     1       5.441  34.231  63.339  1.00  0.00     0.056 C 
HETATM   18  C   UNL     1       6.736  33.870  64.053  1.00  0.00     0.011 C 
ENDBRANCH  15  17
ENDBRANCH   8  11
ENDBRANCH   1   7
BRANCH   4  19
HETATM   19  C   UNL     1       4.996  27.201  54.214  1.00  0.00     0.251 C 
HETATM   20  N   UNL     1       5.294  25.908  54.577  1.00  0.00    -0.353 N 
HETATM   21  H   UNL     1       5.526  25.682  55.534  1.00  0.00     0.163 HD
HETATM   22  O   UNL     1       4.766  27.553  53.064  1.00  0.00    -0.268 OA
BRANCH  20  23
HETATM   23  C   UNL     1       5.440  24.867  53.584  1.00  0.00     0.161 C 
BRANCH  23  24
HETATM   24  C   UNL     1       6.647  24.002  53.854  1.00  0.00    -0.041 A 
HETATM   25  C   UNL     1       7.155  23.882  55.156  1.00  0.00     0.009 A 
HETATM   26  C   UNL     1       8.247  23.053  55.418  1.00  0.00     0.001 A 
HETATM   27  C   UNL     1       8.844  22.333  54.385  1.00  0.00     0.000 A 
HETATM   28  C   UNL     1       8.340  22.430  53.090  1.00  0.00     0.001 A 
HETATM   29  C   UNL     1       7.243  23.252  52.827  1.00  0.00     0.009 A 
ENDBRANCH  23  24
ENDBRANCH  20  23
ENDBRANCH   4  19
TORSDOF 6
ENDMDL
MODEL 9
REMARK VINA RESULT:      -7.8      6.496     10.477
REMARK  6 active torsions:
REMARK  status: ('A' for Active; 'I' for Inactive)
REMARK    1  A    between atoms: C_2  and  C_3 
REMARK    2  A    between atoms: C_7  and  C_8 
REMARK       I    between atoms: C_8  and  N_9 
REMARK    3  A    between atoms: N_9  and  C_10 
REMARK    4  A    between atoms: C_13  and  C_14 
REMARK       I    between atoms: C_14  and  N_15 
REMARK    5  A    between atoms: N_15  and  C_16 
REMARK    6  A    between atoms: C_16  and  C_17 
ROOT
HETATM    1  C   UNL     1       4.297  27.361  50.763  1.00  0.00     0.035 A 
HETATM    2  C   UNL     1       4.312  28.006  52.009  1.00  0.00     0.030 A 
HETATM    3  C   UNL     1       5.048  27.484  53.079  1.00  0.00     0.019 A 
HETATM    4  C   UNL     1       5.763  26.295  52.914  1.00  0.00     0.032 A 
HETATM    5  C   UNL     1       5.711  25.620  51.693  1.00  0.00     0.019 A 
HETATM    6  C   UNL     1       4.990  26.155  50.622  1.00  0.00     0.030 A 
ENDROOT
BRANCH   1   7
HETATM    7  N   UNL     1       3.568  27.968  49.720  1.00  0.00    -0.322 N 
HETATM    8  C   UNL     1       2.954  27.332  48.657  1.00  0.00     0.274 C 
HETATM    9  O   UNL     1       3.009  26.130  48.422  1.00  0.00    -0.266 OA
HETATM   10  H   UNL     1       3.581  28.977  49.693  1.00  0.00     0.169 HD
BRANCH   8  11
HETATM   11  C   UNL     1       2.252  28.214  47.756  1.00  0.00     0.120 A 
HETATM   12  N   UNL     1       2.895  29.261  47.152  1.00  0.00    -0.273 N 
HETATM   13  N   UNL     1       2.112  30.001  46.353  1.00  0.00    -0.179 NA
HETATM   14  H   UNL     1       3.872  29.520  47.263  1.00  0.00     0.189 HD
HETATM   15  C   UNL     1       0.928  29.381  46.398  1.00  0.00     0.056 A 
HETATM   16  C   UNL     1       0.958  28.266  47.272  1.00  0.00     0.065 A 
BRANCH  15  17
HETATM   17  C   UNL     1      -0.217  29.886  45.587  1.00  0.00     0.056 C 
HETATM   18  C   UNL     1      -1.075  28.760  45.029  1.00  0.00     0.011 C 
ENDBRANCH  15  17
ENDBRANCH   8  11
ENDBRANCH   1   7
BRANCH   4  19
HETATM   19  C   UNL     1       6.599  25.714  53.996  1.00  0.00     0.251 C 
HETATM   20  N   UNL     1       6.457  24.363  54.203  1.00  0.00    -0.353 N 
HETATM   21  H   UNL     1       5.816  23.820  53.640  1.00  0.00     0.163 HD
HETATM   22  O   UNL     1       7.310  26.441  54.679  1.00  0.00    -0.268 OA
BRANCH  20  23
HETATM   23  C   UNL     1       7.092  23.706  55.324  1.00  0.00     0.161 C 
BRANCH  23  24
HETATM   24  C   UNL     1       7.704  22.385  54.924  1.00  0.00    -0.041 A 
HETATM   25  C   UNL     1       7.955  21.401  55.891  1.00  0.00     0.009 A 
HETATM   26  C   UNL     1       8.486  20.162  55.522  1.00  0.00     0.001 A 
HETATM   27  C   UNL     1       8.770  19.894  54.184  1.00  0.00     0.000 A 
HETATM   28  C   UNL     1       8.512  20.857  53.212  1.00  0.00     0.001 A 
HETATM   29  C   UNL     1       7.973  22.091  53.578  1.00  0.00     0.009 A 
ENDBRANCH  23  24
ENDBRANCH  20  23
ENDBRANCH   4  19
TORSDOF 6
ENDMDL
MODEL 10
REMARK VINA RESULT:      -7.3      2.613     10.680
REMARK  6 active torsions:
REMARK  status: ('A' for Active; 'I' for Inactive)
REMARK    1  A    between atoms: C_2  and  C_3 
REMARK    2  A    between atoms: C_7  and  C_8 
REMARK       I    between atoms: C_8  and  N_9 
REMARK    3  A    between atoms: N_9  and  C_10 
REMARK    4  A    between atoms: C_13  and  C_14 
REMARK       I    between atoms: C_14  and  N_15 
REMARK    5  A    between atoms: N_15  and  C_16 
REMARK    6  A    between atoms: C_16  and  C_17 
ROOT
HETATM    1  C   UNL     1       6.037  28.323  56.002  1.00  0.00     0.035 A 
HETATM    2  C   UNL     1       6.837  28.867  57.018  1.00  0.00     0.030 A 
HETATM    3  C   UNL     1       6.571  30.140  57.536  1.00  0.00     0.019 A 
HETATM    4  C   UNL     1       5.509  30.890  57.024  1.00  0.00     0.032 A 
HETATM    5  C   UNL     1       4.741  30.376  55.977  1.00  0.00     0.019 A 
HETATM    6  C   UNL     1       4.998  29.096  55.475  1.00  0.00     0.030 A 
ENDROOT
BRANCH   1   7
HETATM    7  N   UNL     1       6.339  27.019  55.559  1.00  0.00    -0.322 N 
HETATM    8  C   UNL     1       7.206  26.667  54.542  1.00  0.00     0.274 C 
HETATM    9  O   UNL     1       7.804  27.454  53.816  1.00  0.00    -0.266 OA
HETATM   10  H   UNL     1       5.789  26.272  55.958  1.00  0.00     0.169 HD
BRANCH   8  11
HETATM   11  C   UNL     1       7.337  25.245  54.330  1.00  0.00     0.120 A 
HETATM   12  N   UNL     1       7.026  24.354  55.322  1.00  0.00    -0.273 N 
HETATM   13  N   UNL     1       7.210  23.070  54.984  1.00  0.00    -0.179 NA
HETATM   14  H   UNL     1       6.691  24.577  56.256  1.00  0.00     0.189 HD
HETATM   15  C   UNL     1       7.606  23.124  53.709  1.00  0.00     0.056 A 
HETATM   16  C   UNL     1       7.715  24.462  53.256  1.00  0.00     0.065 A 
BRANCH  15  17
HETATM   17  C   UNL     1       7.872  21.869  52.949  1.00  0.00     0.056 C 
HETATM   18  C   UNL     1       8.686  20.865  53.752  1.00  0.00     0.011 C 
ENDBRANCH  15  17
ENDBRANCH   8  11
ENDBRANCH   1   7
BRANCH   4  19
HETATM   19  C   UNL     1       5.148  32.226  57.561  1.00  0.00     0.251 C 
HETATM   20  N   UNL     1       4.460  32.227  58.752  1.00  0.00    -0.353 N 
HETATM   21  H   UNL     1       4.226  31.358  59.212  1.00  0.00     0.163 HD
HETATM   22  O   UNL     1       5.411  33.237  56.921  1.00  0.00    -0.268 OA
BRANCH  20  23
HETATM   23  C   UNL     1       3.913  33.449  59.300  1.00  0.00     0.161 C 
BRANCH  23  24
HETATM   24  C   UNL     1       4.696  33.922  60.500  1.00  0.00    -0.041 A 
HETATM   25  C   UNL     1       4.400  35.156  61.096  1.00  0.00     0.009 A 
HETATM   26  C   UNL     1       5.095  35.582  62.230  1.00  0.00     0.001 A 
HETATM   27  C   UNL     1       6.092  34.780  62.782  1.00  0.00     0.000 A 
HETATM   28  C   UNL     1       6.386  33.545  62.209  1.00  0.00     0.001 A 
HETATM   29  C   UNL     1       5.687  33.114  61.081  1.00  0.00     0.009 A 
ENDBRANCH  23  24
ENDBRANCH  20  23
ENDBRANCH   4  19
TORSDOF 6
ENDMDL
