MODEL 1
REMARK VINA RESULT:      -9.9      0.000      0.000
REMARK  3 active torsions:
REMARK  status: ('A' for Active; 'I' for Inactive)
REMARK    1  A    between atoms: C_8  and  C_9 
REMARK    2  A    between atoms: C_9  and  N_10 
REMARK    3  A    between atoms: C_14  and  C_15 
ROOT
HETATM    1  N   UNL     1       7.169  27.940  56.806  1.00  0.00    -0.066 N 
HETATM    2  H   UNL     1       6.962  28.268  57.758  1.00  0.00     0.280 HD
HETATM    3  C   UNL     1       5.858  27.570  56.147  1.00  0.00     0.236 C 
HETATM    4  C   UNL     1       5.224  26.381  56.852  1.00  0.00     0.037 C 
HETATM    5  C   UNL     1       6.150  25.160  56.869  1.00  0.00     0.024 C 
HETATM    6  C   UNL     1       7.418  25.599  57.630  1.00  0.00     0.037 C 
HETATM    7  C   UNL     1       8.115  26.766  56.939  1.00  0.00     0.236 C 
ENDROOT
BRANCH   1   8
HETATM    8  C   UNL     1       7.794  29.118  56.080  1.00  0.00     0.293 C 
BRANCH   8   9
HETATM    9  C   UNL     1       8.839  29.795  56.866  1.00  0.00     0.061 A 
HETATM   10  N   UNL     1       8.601  30.616  57.959  1.00  0.00    -0.307 N 
HETATM   11  C   UNL     1       7.401  31.009  58.560  1.00  0.00     0.105 A 
HETATM   12  C   UNL     1       9.847  31.057  58.396  1.00  0.00     0.133 A 
HETATM   13  C   UNL     1       7.425  31.850  59.613  1.00  0.00    -0.046 A 
HETATM   14  C   UNL     1       6.200  32.331  60.328  1.00  0.00     0.049 C 
HETATM   15  C   UNL     1       8.723  32.319  60.094  1.00  0.00     0.012 A 
HETATM   16  C   UNL     1       9.875  31.938  59.511  1.00  0.00     0.051 A 
HETATM   17  N   UNL     1      10.817  30.557  57.665  1.00  0.00    -0.241 NA
HETATM   18  C   UNL     1      10.213  29.758  56.741  1.00  0.00     0.146 A 
ENDBRANCH   8   9
ENDBRANCH   1   8
BRANCH   5  19
HETATM   19  C   UNL     1       6.473  24.559  55.507  1.00  0.00    -0.024 A 
HETATM   20  C   UNL     1       7.482  23.594  55.130  1.00  0.00     0.018 A 
HETATM   21  C   UNL     1       7.312  23.335  53.772  1.00  0.00     0.138 A 
HETATM   22  C   UNL     1       8.529  22.888  55.757  1.00  0.00     0.017 A 
HETATM   23  N   UNL     1       7.984  22.464  53.000  1.00  0.00    -0.242 NA
HETATM   24  N   UNL     1       6.331  24.151  53.297  1.00  0.00    -0.350 N 
HETATM   25  C   UNL     1       8.960  21.809  53.657  1.00  0.00     0.119 A 
HETATM   26  C   UNL     1       9.272  21.980  54.996  1.00  0.00     0.020 A 
HETATM   27  H   UNL     1       6.061  24.188  52.324  1.00  0.00     0.166 HD
HETATM   28  C   UNL     1       5.827  24.902  54.323  1.00  0.00     0.098 A 
ENDBRANCH   5  19
TORSDOF 3
ENDMDL
MODEL 2
REMARK VINA RESULT:      -9.6      2.504      4.086
REMARK  3 active torsions:
REMARK  status: ('A' for Active; 'I' for Inactive)
REMARK    1  A    between atoms: C_8  and  C_9 
REMARK    2  A    between atoms: C_9  and  N_10 
REMARK    3  A    between atoms: C_14  and  C_15 
ROOT
HETATM    1  N   UNL     1       6.141  26.928  52.794  1.00  0.00    -0.066 N 
HETATM    2  H   UNL     1       5.889  27.080  51.809  1.00  0.00     0.280 HD
HETATM    3  C   UNL     1       7.584  26.477  52.842  1.00  0.00     0.236 C 
HETATM    4  C   UNL     1       7.741  25.120  52.174  1.00  0.00     0.037 C 
HETATM    5  C   UNL     1       6.851  24.052  52.821  1.00  0.00     0.024 C 
HETATM    6  C   UNL     1       5.400  24.550  52.652  1.00  0.00     0.037 C 
HETATM    7  C   UNL     1       5.180  25.892  53.340  1.00  0.00     0.236 C 
ENDROOT
BRANCH   1   8
HETATM    8  C   UNL     1       6.001  28.276  53.479  1.00  0.00     0.293 C 
BRANCH   8   9
HETATM    9  C   UNL     1       5.975  28.180  54.948  1.00  0.00     0.061 A 
HETATM   10  N   UNL     1       7.033  28.511  55.782  1.00  0.00    -0.307 N 
HETATM   11  C   UNL     1       8.318  28.976  55.485  1.00  0.00     0.105 A 
HETATM   12  C   UNL     1       6.599  28.265  57.082  1.00  0.00     0.133 A 
HETATM   13  C   UNL     1       9.193  29.206  56.483  1.00  0.00    -0.046 A 
HETATM   14  C   UNL     1      10.591  29.703  56.274  1.00  0.00     0.049 C 
HETATM   15  C   UNL     1       8.757  28.960  57.856  1.00  0.00     0.012 A 
HETATM   16  C   UNL     1       7.518  28.512  58.137  1.00  0.00     0.051 A 
HETATM   17  N   UNL     1       5.361  27.825  57.099  1.00  0.00    -0.241 NA
HETATM   18  C   UNL     1       4.957  27.797  55.797  1.00  0.00     0.146 A 
ENDBRANCH   8   9
ENDBRANCH   1   8
BRANCH   5  19
HETATM   19  C   UNL     1       7.180  23.710  54.269  1.00  0.00    -0.024 A 
HETATM   20  C   UNL     1       7.671  22.478  54.845  1.00  0.00     0.018 A 
HETATM   21  C   UNL     1       7.865  22.713  56.205  1.00  0.00     0.138 A 
HETATM   22  C   UNL     1       7.988  21.178  54.402  1.00  0.00     0.017 A 
HETATM   23  N   UNL     1       8.361  21.877  57.131  1.00  0.00    -0.242 NA
HETATM   24  N   UNL     1       7.434  23.973  56.490  1.00  0.00    -0.350 N 
HETATM   25  C   UNL     1       8.661  20.657  56.646  1.00  0.00     0.119 A 
HETATM   26  C   UNL     1       8.494  20.261  55.329  1.00  0.00     0.020 A 
HETATM   27  H   UNL     1       7.421  24.358  57.424  1.00  0.00     0.166 HD
HETATM   28  C   UNL     1       7.006  24.579  55.341  1.00  0.00     0.098 A 
ENDBRANCH   5  19
TORSDOF 3
ENDMDL
MODEL 3
REMARK VINA RESULT:      -9.3      1.440      2.128
REMARK  3 active torsions:
REMARK  status: ('A' for Active; 'I' for Inactive)
REMARK    1  A    between atoms: C_8  and  C_9 
REMARK    2  A    between atoms: C_9  and  N_10 
REMARK    3  A    between atoms: C_14  and  C_15 
ROOT
HETATM    1  N   UNL     1       7.177  27.541  57.118  1.00  0.00    -0.066 N 
HETATM    2  H   UNL     1       6.943  27.742  58.099  1.00  0.00     0.280 HD
HETATM    3  C   UNL     1       5.939  26.985  56.450  1.00  0.00     0.236 C 
HETATM    4  C   UNL     1       5.564  25.641  57.057  1.00  0.00     0.037 C 
HETATM    5  C   UNL     1       6.705  24.622  56.950  1.00  0.00     0.024 C 
HETATM    6  C   UNL     1       7.891  25.230  57.726  1.00  0.00     0.037 C 
HETATM    7  C   UNL     1       8.332  26.562  57.131  1.00  0.00     0.236 C 
ENDROOT
BRANCH   1   8
HETATM    8  C   UNL     1       7.544  28.874  56.490  1.00  0.00     0.293 C 
BRANCH   8   9
HETATM    9  C   UNL     1       6.852  30.017  57.110  1.00  0.00     0.061 A 
HETATM   10  N   UNL     1       7.191  30.579  58.332  1.00  0.00    -0.307 N 
HETATM   11  C   UNL     1       8.191  30.238  59.247  1.00  0.00     0.105 A 
HETATM   12  C   UNL     1       6.287  31.616  58.549  1.00  0.00     0.133 A 
HETATM   13  C   UNL     1       8.308  30.929  60.398  1.00  0.00    -0.046 A 
HETATM   14  C   UNL     1       9.342  30.645  61.444  1.00  0.00     0.049 C 
HETATM   15  C   UNL     1       7.374  32.025  60.645  1.00  0.00     0.012 A 
HETATM   16  C   UNL     1       6.412  32.351  59.760  1.00  0.00     0.051 A 
HETATM   17  N   UNL     1       5.440  31.733  57.551  1.00  0.00    -0.241 NA
HETATM   18  C   UNL     1       5.795  30.776  56.648  1.00  0.00     0.146 A 
ENDBRANCH   8   9
ENDBRANCH   1   8
BRANCH   5  19
HETATM   19  C   UNL     1       7.090  24.211  55.534  1.00  0.00    -0.024 A 
HETATM   20  C   UNL     1       7.464  22.916  55.010  1.00  0.00     0.018 A 
HETATM   21  C   UNL     1       7.658  23.072  53.639  1.00  0.00     0.138 A 
HETATM   22  C   UNL     1       7.663  21.613  55.508  1.00  0.00     0.017 A 
HETATM   23  N   UNL     1       7.961  22.131  52.729  1.00  0.00    -0.242 NA
HETATM   24  N   UNL     1       7.516  24.390  53.331  1.00  0.00    -0.350 N 
HETATM   25  C   UNL     1       8.123  20.905  53.261  1.00  0.00     0.119 A 
HETATM   26  C   UNL     1       7.996  20.597  54.606  1.00  0.00     0.020 A 
HETATM   27  H   UNL     1       7.664  24.764  52.403  1.00  0.00     0.166 HD
HETATM   28  C   UNL     1       7.189  25.090  54.460  1.00  0.00     0.098 A 
ENDBRANCH   5  19
TORSDOF 3
ENDMDL
MODEL 4
REMARK VINA RESULT:      -9.2      2.043      3.204
REMARK  3 active torsions:
REMARK  status: ('A' for Active; 'I' for Inactive)
REMARK    1  A    between atoms: C_8  and  C_9 
REMARK    2  A    between atoms: C_9  and  N_10 
REMARK    3  A    between atoms: C_14  and  C_15 
ROOT
HETATM    1  N   UNL     1       5.660  26.842  54.474  1.00  0.00    -0.066 N 
HETATM    2  H   UNL     1       5.265  27.434  53.731  1.00  0.00     0.280 HD
HETATM    3  C   UNL     1       7.164  26.995  54.441  1.00  0.00     0.236 C 
HETATM    4  C   UNL     1       7.729  26.439  53.143  1.00  0.00     0.037 C 
HETATM    5  C   UNL     1       7.361  24.965  52.939  1.00  0.00     0.024 C 
HETATM    6  C   UNL     1       5.820  24.914  52.899  1.00  0.00     0.037 C 
HETATM    7  C   UNL     1       5.204  25.425  54.197  1.00  0.00     0.236 C 
ENDROOT
BRANCH   1   8
HETATM    8  C   UNL     1       5.116  27.388  55.782  1.00  0.00     0.293 C 
BRANCH   8   9
HETATM    9  C   UNL     1       6.173  27.773  56.733  1.00  0.00     0.061 A 
HETATM   10  N   UNL     1       6.329  29.041  57.272  1.00  0.00    -0.307 N 
HETATM   11  C   UNL     1       5.597  30.215  57.070  1.00  0.00     0.105 A 
HETATM   12  C   UNL     1       7.444  28.977  58.104  1.00  0.00     0.133 A 
HETATM   13  C   UNL     1       5.965  31.349  57.698  1.00  0.00    -0.046 A 
HETATM   14  C   UNL     1       5.251  32.657  57.551  1.00  0.00     0.049 C 
HETATM   15  C   UNL     1       7.129  31.304  58.581  1.00  0.00     0.012 A 
HETATM   16  C   UNL     1       7.830  30.171  58.773  1.00  0.00     0.051 A 
HETATM   17  N   UNL     1       7.964  27.771  58.120  1.00  0.00    -0.241 NA
HETATM   18  C   UNL     1       7.174  27.015  57.305  1.00  0.00     0.146 A 
ENDBRANCH   8   9
ENDBRANCH   1   8
BRANCH   5  19
HETATM   19  C   UNL     1       7.945  23.993  53.956  1.00  0.00    -0.024 A 
HETATM   20  C   UNL     1       8.137  22.562  53.873  1.00  0.00     0.018 A 
HETATM   21  C   UNL     1       8.769  22.166  55.051  1.00  0.00     0.138 A 
HETATM   22  C   UNL     1       7.866  21.530  52.953  1.00  0.00     0.017 A 
HETATM   23  N   UNL     1       9.195  20.940  55.395  1.00  0.00    -0.242 NA
HETATM   24  N   UNL     1       8.880  23.252  55.865  1.00  0.00    -0.350 N 
HETATM   25  C   UNL     1       8.922  20.000  54.470  1.00  0.00     0.119 A 
HETATM   26  C   UNL     1       8.273  20.230  53.269  1.00  0.00     0.020 A 
HETATM   27  H   UNL     1       9.257  23.208  56.802  1.00  0.00     0.166 HD
HETATM   28  C   UNL     1       8.378  24.354  55.229  1.00  0.00     0.098 A 
ENDBRANCH   5  19
TORSDOF 3
ENDMDL
MODEL 5
REMARK VINA RESULT:      -9.2      1.793      2.726
REMARK  3 active torsions:
REMARK  status: ('A' for Active; 'I' for Inactive)
REMARK    1  A    between atoms: C_8  and  C_9 
REMARK    2  A    between atoms: C_9  and  N_10 
REMARK    3  A    between atoms: C_14  and  C_15 
ROOT
HETATM    1  N   UNL     1       6.884  27.517  55.781  1.00  0.00    -0.066 N 
HETATM    2  H   UNL     1       6.255  28.192  55.328  1.00  0.00     0.280 HD
HETATM    3  C   UNL     1       7.805  26.954  54.721  1.00  0.00     0.236 C 
HETATM    4  C   UNL     1       7.016  26.146  53.704  1.00  0.00     0.037 C 
HETATM    5  C   UNL     1       6.232  25.002  54.359  1.00  0.00     0.024 C 
HETATM    6  C   UNL     1       5.263  25.669  55.357  1.00  0.00     0.037 C 
HETATM    7  C   UNL     1       6.009  26.462  56.424  1.00  0.00     0.236 C 
ENDROOT
BRANCH   1   8
HETATM    8  C   UNL     1       7.691  28.308  56.796  1.00  0.00     0.293 C 
BRANCH   8   9
HETATM    9  C   UNL     1       7.033  29.558  57.212  1.00  0.00     0.061 A 
HETATM   10  N   UNL     1       7.355  30.281  58.350  1.00  0.00    -0.307 N 
HETATM   11  C   UNL     1       8.307  30.040  59.346  1.00  0.00     0.105 A 
HETATM   12  C   UNL     1       6.493  31.375  58.376  1.00  0.00     0.133 A 
HETATM   13  C   UNL     1       8.417  30.889  60.386  1.00  0.00    -0.046 A 
HETATM   14  C   UNL     1       9.402  30.722  61.503  1.00  0.00     0.049 C 
HETATM   15  C   UNL     1       7.527  32.047  60.431  1.00  0.00     0.012 A 
HETATM   16  C   UNL     1       6.612  32.276  59.470  1.00  0.00     0.051 A 
HETATM   17  N   UNL     1       5.688  31.376  57.339  1.00  0.00    -0.241 NA
HETATM   18  C   UNL     1       6.028  30.282  56.601  1.00  0.00     0.146 A 
ENDBRANCH   8   9
ENDBRANCH   1   8
BRANCH   5  19
HETATM   19  C   UNL     1       7.076  23.915  55.012  1.00  0.00    -0.024 A 
HETATM   20  C   UNL     1       7.611  22.692  54.455  1.00  0.00     0.018 A 
HETATM   21  C   UNL     1       8.365  22.083  55.457  1.00  0.00     0.138 A 
HETATM   22  C   UNL     1       7.569  22.005  53.225  1.00  0.00     0.017 A 
HETATM   23  N   UNL     1       9.093  20.957  55.383  1.00  0.00    -0.242 NA
HETATM   24  N   UNL     1       8.236  22.815  56.598  1.00  0.00    -0.350 N 
HETATM   25  C   UNL     1       9.026  20.355  54.180  1.00  0.00     0.119 A 
HETATM   26  C   UNL     1       8.295  20.817  53.098  1.00  0.00     0.020 A 
HETATM   27  H   UNL     1       8.647  22.546  57.481  1.00  0.00     0.166 HD
HETATM   28  C   UNL     1       7.454  23.910  56.351  1.00  0.00     0.098 A 
ENDBRANCH   5  19
TORSDOF 3
ENDMDL
MODEL 6
REMARK VINA RESULT:      -8.9      1.725      8.477
REMARK  3 active torsions:
REMARK  status: ('A' for Active; 'I' for Inactive)
REMARK    1  A    between atoms: C_8  and  C_9 
REMARK    2  A    between atoms: C_9  and  N_10 
REMARK    3  A    between atoms: C_14  and  C_15 
ROOT
HETATM    1  N   UNL     1       7.131  27.431  56.856  1.00  0.00    -0.066 N 
HETATM    2  H   UNL     1       7.051  27.302  55.839  1.00  0.00     0.280 HD
HETATM    3  C   UNL     1       5.973  28.293  57.308  1.00  0.00     0.236 C 
HETATM    4  C   UNL     1       6.085  29.689  56.717  1.00  0.00     0.037 C 
HETATM    5  C   UNL     1       7.406  30.370  57.092  1.00  0.00     0.024 C 
HETATM    6  C   UNL     1       8.523  29.474  56.521  1.00  0.00     0.037 C 
HETATM    7  C   UNL     1       8.479  28.070  57.114  1.00  0.00     0.236 C 
ENDROOT
BRANCH   1   8
HETATM    8  C   UNL     1       7.011  26.046  57.467  1.00  0.00     0.293 C 
BRANCH   8   9
HETATM    9  C   UNL     1       7.715  25.009  56.696  1.00  0.00     0.061 A 
HETATM   10  N   UNL     1       7.375  24.608  55.413  1.00  0.00    -0.307 N 
HETATM   11  C   UNL     1       6.345  25.032  54.567  1.00  0.00     0.105 A 
HETATM   12  C   UNL     1       8.278  23.607  55.062  1.00  0.00     0.133 A 
HETATM   13  C   UNL     1       6.199  24.464  53.354  1.00  0.00    -0.046 A 
HETATM   14  C   UNL     1       5.131  24.844  52.375  1.00  0.00     0.049 C 
HETATM   15  C   UNL     1       7.139  23.416  52.964  1.00  0.00     0.012 A 
HETATM   16  C   UNL     1       8.130  23.011  53.781  1.00  0.00     0.051 A 
HETATM   17  N   UNL     1       9.143  23.382  56.026  1.00  0.00    -0.241 NA
HETATM   18  C   UNL     1       8.826  24.257  57.022  1.00  0.00     0.146 A 
ENDBRANCH   8   9
ENDBRANCH   1   8
BRANCH   5  19
HETATM   19  C   UNL     1       7.599  30.660  58.576  1.00  0.00    -0.024 A 
HETATM   20  C   UNL     1       6.875  31.555  59.451  1.00  0.00     0.018 A 
HETATM   21  C   UNL     1       7.410  31.398  60.728  1.00  0.00     0.138 A 
HETATM   22  C   UNL     1       5.822  32.486  59.344  1.00  0.00     0.017 A 
HETATM   23  N   UNL     1       7.018  31.983  61.872  1.00  0.00    -0.242 NA
HETATM   24  N   UNL     1       8.464  30.540  60.650  1.00  0.00    -0.350 N 
HETATM   25  C   UNL     1       6.000  32.849  61.710  1.00  0.00     0.119 A 
HETATM   26  C   UNL     1       5.386  33.137  60.502  1.00  0.00     0.020 A 
HETATM   27  H   UNL     1       9.052  30.308  61.440  1.00  0.00     0.166 HD
HETATM   28  C   UNL     1       8.600  30.099  59.363  1.00  0.00     0.098 A 
ENDBRANCH   5  19
TORSDOF 3
ENDMDL
MODEL 7
REMARK VINA RESULT:      -8.8      4.586      7.584
REMARK  3 active torsions:
REMARK  status: ('A' for Active; 'I' for Inactive)
REMARK    1  A    between atoms: C_8  and  C_9 
REMARK    2  A    between atoms: C_9  and  N_10 
REMARK    3  A    between atoms: C_14  and  C_15 
ROOT
HETATM    1  N   UNL     1       6.072  26.906  52.897  1.00  0.00    -0.066 N 
HETATM    2  H   UNL     1       5.701  27.703  53.431  1.00  0.00     0.280 HD
HETATM    3  C   UNL     1       5.153  25.727  53.122  1.00  0.00     0.236 C 
HETATM    4  C   UNL     1       5.195  25.288  54.577  1.00  0.00     0.037 C 
HETATM    5  C   UNL     1       6.613  24.923  55.029  1.00  0.00     0.024 C 
HETATM    6  C   UNL     1       7.458  26.201  54.848  1.00  0.00     0.037 C 
HETATM    7  C   UNL     1       7.481  26.660  53.394  1.00  0.00     0.236 C 
ENDROOT
BRANCH   1   8
HETATM    8  C   UNL     1       6.029  27.320  51.437  1.00  0.00     0.293 C 
BRANCH   8   9
HETATM    9  C   UNL     1       4.783  28.012  51.067  1.00  0.00     0.061 A 
HETATM   10  N   UNL     1       3.916  27.600  50.066  1.00  0.00    -0.307 N 
HETATM   11  C   UNL     1       3.985  26.512  49.189  1.00  0.00     0.105 A 
HETATM   12  C   UNL     1       2.881  28.531  50.036  1.00  0.00     0.133 A 
HETATM   13  C   UNL     1       3.018  26.334  48.268  1.00  0.00    -0.046 A 
HETATM   14  C   UNL     1       2.997  25.203  47.285  1.00  0.00     0.049 C 
HETATM   15  C   UNL     1       1.919  27.295  48.224  1.00  0.00     0.012 A 
HETATM   16  C   UNL     1       1.856  28.341  49.070  1.00  0.00     0.051 A 
HETATM   17  N   UNL     1       3.047  29.462  50.948  1.00  0.00    -0.241 NA
HETATM   18  C   UNL     1       4.195  29.138  51.607  1.00  0.00     0.146 A 
ENDBRANCH   8   9
ENDBRANCH   1   8
BRANCH   5  19
HETATM   19  C   UNL     1       7.235  23.716  54.338  1.00  0.00    -0.024 A 
HETATM   20  C   UNL     1       7.739  22.481  54.897  1.00  0.00     0.018 A 
HETATM   21  C   UNL     1       8.142  21.684  53.827  1.00  0.00     0.138 A 
HETATM   22  C   UNL     1       7.910  21.913  56.175  1.00  0.00     0.017 A 
HETATM   23  N   UNL     1       8.623  20.430  53.858  1.00  0.00    -0.242 NA
HETATM   24  N   UNL     1       7.997  22.400  52.678  1.00  0.00    -0.350 N 
HETATM   25  C   UNL     1       8.748  19.936  55.104  1.00  0.00     0.119 A 
HETATM   26  C   UNL     1       8.423  20.616  56.266  1.00  0.00     0.020 A 
HETATM   27  H   UNL     1       8.274  22.056  51.769  1.00  0.00     0.166 HD
HETATM   28  C   UNL     1       7.467  23.627  52.969  1.00  0.00     0.098 A 
ENDBRANCH   5  19
TORSDOF 3
ENDMDL
MODEL 8
REMARK VINA RESULT:      -8.6      4.742      8.448
REMARK  3 active torsions:
REMARK  status: ('A' for Active; 'I' for Inactive)
REMARK    1  A    between atoms: C_8  and  C_9 
REMARK    2  A    between atoms: C_9  and  N_10 
REMARK    3  A    between atoms: C_14  and  C_15 
ROOT
HETATM    1  N   UNL     1       5.375  26.681  52.867  1.00  0.00    -0.066 N 
HETATM    2  H   UNL     1       6.231  26.986  53.349  1.00  0.00     0.280 HD
HETATM    3  C   UNL     1       5.656  26.673  51.381  1.00  0.00     0.236 C 
HETATM    4  C   UNL     1       5.917  28.084  50.880  1.00  0.00     0.037 C 
HETATM    5  C   UNL     1       4.744  29.027  51.173  1.00  0.00     0.024 C 
HETATM    6  C   UNL     1       4.584  29.042  52.707  1.00  0.00     0.037 C 
HETATM    7  C   UNL     1       4.280  27.652  53.256  1.00  0.00     0.236 C 
ENDROOT
BRANCH   1   8
HETATM    8  C   UNL     1       5.102  25.266  53.347  1.00  0.00     0.293 C 
BRANCH   8   9
HETATM    9  C   UNL     1       5.910  24.885  54.518  1.00  0.00     0.061 A 
HETATM   10  N   UNL     1       6.791  23.815  54.558  1.00  0.00    -0.307 N 
HETATM   11  C   UNL     1       7.121  22.869  53.583  1.00  0.00     0.105 A 
HETATM   12  C   UNL     1       7.332  23.801  55.841  1.00  0.00     0.133 A 
HETATM   13  C   UNL     1       8.001  21.890  53.873  1.00  0.00    -0.046 A 
HETATM   14  C   UNL     1       8.422  20.829  52.903  1.00  0.00     0.049 C 
HETATM   15  C   UNL     1       8.586  21.860  55.211  1.00  0.00     0.012 A 
HETATM   16  C   UNL     1       8.265  22.774  56.147  1.00  0.00     0.051 A 
HETATM   17  N   UNL     1       6.858  24.785  56.573  1.00  0.00    -0.241 NA
HETATM   18  C   UNL     1       6.006  25.475  55.762  1.00  0.00     0.146 A 
ENDBRANCH   8   9
ENDBRANCH   1   8
BRANCH   5  19
HETATM   19  C   UNL     1       3.439  28.695  50.458  1.00  0.00    -0.024 A 
HETATM   20  C   UNL     1       3.209  27.968  49.229  1.00  0.00     0.018 A 
HETATM   21  C   UNL     1       1.829  27.892  49.052  1.00  0.00     0.138 A 
HETATM   22  C   UNL     1       3.985  27.350  48.229  1.00  0.00     0.017 A 
HETATM   23  N   UNL     1       1.148  27.265  48.080  1.00  0.00    -0.242 NA
HETATM   24  N   UNL     1       1.228  28.606  50.044  1.00  0.00    -0.350 N 
HETATM   25  C   UNL     1       1.942  26.679  47.163  1.00  0.00     0.119 A 
HETATM   26  C   UNL     1       3.327  26.695  47.183  1.00  0.00     0.020 A 
HETATM   27  H   UNL     1       0.229  28.746  50.102  1.00  0.00     0.166 HD
HETATM   28  C   UNL     1       2.181  29.106  50.889  1.00  0.00     0.098 A 
ENDBRANCH   5  19
TORSDOF 3
ENDMDL
MODEL 9
REMARK VINA RESULT:      -8.5      1.946      2.631
REMARK  3 active torsions:
REMARK  status: ('A' for Active; 'I' for Inactive)
REMARK    1  A    between atoms: C_8  and  C_9 
REMARK    2  A    between atoms: C_9  and  N_10 
REMARK    3  A    between atoms: C_14  and  C_15 
ROOT
HETATM    1  N   UNL     1       7.138  27.588  57.028  1.00  0.00    -0.066 N 
HETATM    2  H   UNL     1       6.879  27.804  57.999  1.00  0.00     0.280 HD
HETATM    3  C   UNL     1       5.902  27.080  56.319  1.00  0.00     0.236 C 
HETATM    4  C   UNL     1       5.450  25.757  56.918  1.00  0.00     0.037 C 
HETATM    5  C   UNL     1       6.550  24.691  56.856  1.00  0.00     0.024 C 
HETATM    6  C   UNL     1       7.733  25.252  57.671  1.00  0.00     0.037 C 
HETATM    7  C   UNL     1       8.250  26.562  57.085  1.00  0.00     0.236 C 
ENDROOT
BRANCH   1   8
HETATM    8  C   UNL     1       7.582  28.901  56.407  1.00  0.00     0.293 C 
BRANCH   8   9
HETATM    9  C   UNL     1       7.272  30.072  57.244  1.00  0.00     0.061 A 
HETATM   10  N   UNL     1       6.089  30.794  57.188  1.00  0.00    -0.307 N 
HETATM   11  C   UNL     1       4.960  30.635  56.378  1.00  0.00     0.105 A 
HETATM   12  C   UNL     1       6.210  31.817  58.126  1.00  0.00     0.133 A 
HETATM   13  C   UNL     1       3.929  31.494  56.493  1.00  0.00    -0.046 A 
HETATM   14  C   UNL     1       2.676  31.412  55.675  1.00  0.00     0.049 C 
HETATM   15  C   UNL     1       4.031  32.571  57.475  1.00  0.00     0.012 A 
HETATM   16  C   UNL     1       5.120  32.721  58.252  1.00  0.00     0.051 A 
HETATM   17  N   UNL     1       7.364  31.761  58.752  1.00  0.00    -0.241 NA
HETATM   18  C   UNL     1       8.012  30.676  58.240  1.00  0.00     0.146 A 
ENDBRANCH   8   9
ENDBRANCH   1   8
BRANCH   5  19
HETATM   19  C   UNL     1       6.967  24.255  55.456  1.00  0.00    -0.024 A 
HETATM   20  C   UNL     1       7.417  22.967  54.977  1.00  0.00     0.018 A 
HETATM   21  C   UNL     1       7.610  23.088  53.603  1.00  0.00     0.138 A 
HETATM   22  C   UNL     1       7.689  21.695  55.520  1.00  0.00     0.017 A 
HETATM   23  N   UNL     1       7.972  22.137  52.726  1.00  0.00    -0.242 NA
HETATM   24  N   UNL     1       7.394  24.385  53.250  1.00  0.00    -0.350 N 
HETATM   25  C   UNL     1       8.202  20.940  53.300  1.00  0.00     0.119 A 
HETATM   26  C   UNL     1       8.086  20.671  54.654  1.00  0.00     0.020 A 
HETATM   27  H   UNL     1       7.525  24.736  52.311  1.00  0.00     0.166 HD
HETATM   28  C   UNL     1       7.021  25.102  54.353  1.00  0.00     0.098 A 
ENDBRANCH   5  19
TORSDOF 3
ENDMDL
MODEL 10
REMARK VINA RESULT:      -8.3      1.942      8.489
REMARK  3 active torsions:
REMARK  status: ('A' for Active; 'I' for Inactive)
REMARK    1  A    between atoms: C_8  and  C_9 
REMARK    2  A    between atoms: C_9  and  N_10 
REMARK    3  A    between atoms: C_14  and  C_15 
ROOT
HETATM    1  N   UNL     1       7.150  27.210  55.807  1.00  0.00    -0.066 N 
HETATM    2  H   UNL     1       7.977  26.603  55.740  1.00  0.00     0.280 HD
HETATM    3  C   UNL     1       7.482  28.524  55.135  1.00  0.00     0.236 C 
HETATM    4  C   UNL     1       8.576  29.252  55.899  1.00  0.00     0.037 C 
HETATM    5  C   UNL     1       8.187  29.509  57.359  1.00  0.00     0.024 C 
HETATM    6  C   UNL     1       7.952  28.119  57.987  1.00  0.00     0.037 C 
HETATM    7  C   UNL     1       6.833  27.363  57.280  1.00  0.00     0.236 C 
ENDROOT
BRANCH   1   8
HETATM    8  C   UNL     1       6.046  26.505  55.039  1.00  0.00     0.293 C 
BRANCH   8   9
HETATM    9  C   UNL     1       6.551  25.639  53.960  1.00  0.00     0.061 A 
HETATM   10  N   UNL     1       7.052  24.359  54.142  1.00  0.00    -0.307 N 
HETATM   11  C   UNL     1       7.218  23.600  55.305  1.00  0.00     0.105 A 
HETATM   12  C   UNL     1       7.429  23.904  52.880  1.00  0.00     0.133 A 
HETATM   13  C   UNL     1       7.762  22.370  55.228  1.00  0.00    -0.046 A 
HETATM   14  C   UNL     1       7.982  21.477  56.411  1.00  0.00     0.049 C 
HETATM   15  C   UNL     1       8.158  21.869  53.914  1.00  0.00     0.012 A 
HETATM   16  C   UNL     1       7.997  22.603  52.797  1.00  0.00     0.051 A 
HETATM   17  N   UNL     1       7.182  24.801  51.953  1.00  0.00    -0.241 NA
HETATM   18  C   UNL     1       6.616  25.859  52.599  1.00  0.00     0.146 A 
ENDBRANCH   8   9
ENDBRANCH   1   8
BRANCH   5  19
HETATM   19  C   UNL     1       7.005  30.446  57.571  1.00  0.00    -0.024 A 
HETATM   20  C   UNL     1       6.694  31.316  58.683  1.00  0.00     0.018 A 
HETATM   21  C   UNL     1       5.530  32.006  58.349  1.00  0.00     0.138 A 
HETATM   22  C   UNL     1       7.244  31.627  59.943  1.00  0.00     0.017 A 
HETATM   23  N   UNL     1       4.898  32.960  59.051  1.00  0.00    -0.242 NA
HETATM   24  N   UNL     1       5.079  31.535  57.154  1.00  0.00    -0.350 N 
HETATM   25  C   UNL     1       5.477  33.225  60.237  1.00  0.00     0.119 A 
HETATM   26  C   UNL     1       6.615  32.603  60.724  1.00  0.00     0.020 A 
HETATM   27  H   UNL     1       4.217  31.842  56.725  1.00  0.00     0.166 HD
HETATM   28  C   UNL     1       5.945  30.588  56.680  1.00  0.00     0.098 A 
ENDBRANCH   5  19
TORSDOF 3
ENDMDL
