MODEL 1
REMARK VINA RESULT:      -9.0      0.000      0.000
REMARK  2 active torsions:
REMARK  status: ('A' for Active; 'I' for Inactive)
REMARK    1  A    between atoms: C_6  and  C_8 
REMARK    2  A    between atoms: C_6  and  O_7 
ROOT
HETATM    1  C   UNL     1      10.151  29.778  57.000  1.00  0.00     0.048 C 
HETATM    2  C   UNL     1       9.012  28.902  56.568  1.00  0.00    -0.059 A 
HETATM    3  C   UNL     1       8.398  28.028  57.471  1.00  0.00     0.037 A 
HETATM    4  C   UNL     1       7.350  27.259  57.008  1.00  0.00     0.046 A 
HETATM    5  C   UNL     1       6.883  27.312  55.688  1.00  0.00     0.023 A 
HETATM    6  C   UNL     1       5.697  26.370  55.553  1.00  0.00     0.199 A 
HETATM    7  C   UNL     1       5.609  25.756  56.996  1.00  0.00     0.266 A 
HETATM    8  O   UNL     1       4.805  24.948  57.436  1.00  0.00    -0.269 OA
HETATM    9  N   UNL     1       6.609  26.357  57.758  1.00  0.00    -0.323 N 
HETATM   10  C   UNL     1       7.465  28.195  54.782  1.00  0.00    -0.049 A 
HETATM   11  C   UNL     1       7.016  28.303  53.356  1.00  0.00     0.049 C 
HETATM   12  C   UNL     1       8.546  28.974  55.237  1.00  0.00     0.014 A 
HETATM   13  H   UNL     1       6.748  26.141  58.733  1.00  0.00     0.169 HD
ENDROOT
BRANCH   6  14
HETATM   14  C   UNL     1       6.018  25.338  54.503  1.00  0.00     0.018 A 
HETATM   15  C   UNL     1       7.060  24.338  54.498  1.00  0.00     0.002 A 
HETATM   16  C   UNL     1       6.925  23.592  53.324  1.00  0.00     0.043 A 
HETATM   17  C   UNL     1       8.104  23.982  55.382  1.00  0.00     0.014 A 
HETATM   18  C   UNL     1       7.765  22.521  52.995  1.00  0.00     0.030 A 
HETATM   19  N   UNL     1       5.856  24.109  52.634  1.00  0.00    -0.365 N 
HETATM   20  C   UNL     1       8.782  22.192  53.892  1.00  0.00     0.002 A 
HETATM   21  C   UNL     1       8.953  22.913  55.070  1.00  0.00     0.001 A 
HETATM   22  H   UNL     1       5.519  23.755  51.750  1.00  0.00     0.165 HD
HETATM   23  C   UNL     1       5.306  25.147  53.327  1.00  0.00     0.100 A 
ENDBRANCH   6  14
BRANCH   6  24
HETATM   24  O   UNL     1       4.525  27.126  55.250  1.00  0.00    -0.371 OA
HETATM   25  H   UNL     1       4.430  27.107  54.284  1.00  0.00     0.212 HD
ENDBRANCH   6  24
TORSDOF 2
ENDMDL
MODEL 2
REMARK VINA RESULT:      -9.0      2.051      5.879
REMARK  2 active torsions:
REMARK  status: ('A' for Active; 'I' for Inactive)
REMARK    1  A    between atoms: C_6  and  C_8 
REMARK    2  A    between atoms: C_6  and  O_7 
ROOT
HETATM    1  C   UNL     1       8.734  21.339  53.632  1.00  0.00     0.048 C 
HETATM    2  C   UNL     1       8.006  22.652  53.666  1.00  0.00    -0.059 A 
HETATM    3  C   UNL     1       7.785  23.379  52.492  1.00  0.00     0.037 A 
HETATM    4  C   UNL     1       7.101  24.573  52.595  1.00  0.00     0.046 A 
HETATM    5  C   UNL     1       6.627  25.083  53.812  1.00  0.00     0.023 A 
HETATM    6  C   UNL     1       5.886  26.382  53.539  1.00  0.00     0.199 A 
HETATM    7  C   UNL     1       6.062  26.532  51.985  1.00  0.00     0.266 A 
HETATM    8  O   UNL     1       5.633  27.405  51.247  1.00  0.00    -0.269 OA
HETATM    9  N   UNL     1       6.770  25.415  51.545  1.00  0.00    -0.323 N 
HETATM   10  C   UNL     1       6.815  24.360  54.987  1.00  0.00    -0.049 A 
HETATM   11  C   UNL     1       6.335  24.847  56.321  1.00  0.00     0.049 C 
HETATM   12  C   UNL     1       7.526  23.148  54.898  1.00  0.00     0.014 A 
HETATM   13  H   UNL     1       6.997  25.269  50.573  1.00  0.00     0.169 HD
ENDROOT
BRANCH   6  14
HETATM   14  C   UNL     1       6.558  27.491  54.306  1.00  0.00     0.018 A 
HETATM   15  C   UNL     1       6.059  28.258  55.423  1.00  0.00     0.002 A 
HETATM   16  C   UNL     1       7.067  29.144  55.813  1.00  0.00     0.043 A 
HETATM   17  C   UNL     1       4.849  28.283  56.153  1.00  0.00     0.014 A 
HETATM   18  C   UNL     1       6.932  30.037  56.883  1.00  0.00     0.030 A 
HETATM   19  N   UNL     1       8.135  28.939  54.974  1.00  0.00    -0.365 N 
HETATM   20  C   UNL     1       5.727  30.031  57.587  1.00  0.00     0.002 A 
HETATM   21  C   UNL     1       4.696  29.168  57.227  1.00  0.00     0.001 A 
HETATM   22  H   UNL     1       9.013  29.436  55.033  1.00  0.00     0.165 HD
HETATM   23  C   UNL     1       7.846  27.956  54.075  1.00  0.00     0.100 A 
ENDBRANCH   6  14
BRANCH   6  24
HETATM   24  O   UNL     1       4.510  26.223  53.882  1.00  0.00    -0.371 OA
HETATM   25  H   UNL     1       4.339  25.268  53.890  1.00  0.00     0.212 HD
ENDBRANCH   6  24
TORSDOF 2
ENDMDL
MODEL 3
REMARK VINA RESULT:      -8.7      9.851     13.295
REMARK  2 active torsions:
REMARK  status: ('A' for Active; 'I' for Inactive)
REMARK    1  A    between atoms: C_6  and  C_8 
REMARK    2  A    between atoms: C_6  and  O_7 
ROOT
HETATM    1  C   UNL     1       9.143  31.608  61.325  1.00  0.00     0.048 C 
HETATM    2  C   UNL     1       8.008  32.341  61.979  1.00  0.00    -0.059 A 
HETATM    3  C   UNL     1       6.876  32.709  61.246  1.00  0.00     0.037 A 
HETATM    4  C   UNL     1       5.866  33.371  61.913  1.00  0.00     0.046 A 
HETATM    5  C   UNL     1       5.928  33.691  63.276  1.00  0.00     0.023 A 
HETATM    6  C   UNL     1       4.629  34.371  63.676  1.00  0.00     0.199 A 
HETATM    7  C   UNL     1       3.856  34.416  62.310  1.00  0.00     0.266 A 
HETATM    8  O   UNL     1       2.738  34.848  62.077  1.00  0.00    -0.269 OA
HETATM    9  N   UNL     1       4.666  33.794  61.362  1.00  0.00    -0.323 N 
HETATM   10  C   UNL     1       7.037  33.309  64.028  1.00  0.00    -0.049 A 
HETATM   11  C   UNL     1       7.168  33.618  65.489  1.00  0.00     0.049 C 
HETATM   12  C   UNL     1       8.081  32.646  63.356  1.00  0.00     0.014 A 
HETATM   13  H   UNL     1       4.382  33.680  60.400  1.00  0.00     0.169 HD
ENDROOT
BRANCH   6  14
HETATM   14  C   UNL     1       4.947  35.745  64.206  1.00  0.00     0.018 A 
HETATM   15  C   UNL     1       5.524  36.876  63.518  1.00  0.00     0.002 A 
HETATM   16  C   UNL     1       5.586  37.937  64.425  1.00  0.00     0.043 A 
HETATM   17  C   UNL     1       5.994  37.109  62.205  1.00  0.00     0.014 A 
HETATM   18  C   UNL     1       6.081  39.204  64.091  1.00  0.00     0.030 A 
HETATM   19  N   UNL     1       5.077  37.483  65.617  1.00  0.00    -0.365 N 
HETATM   20  C   UNL     1       6.531  39.403  62.785  1.00  0.00     0.002 A 
HETATM   21  C   UNL     1       6.491  38.370  61.853  1.00  0.00     0.001 A 
HETATM   22  H   UNL     1       4.988  38.045  66.453  1.00  0.00     0.165 HD
HETATM   23  C   UNL     1       4.691  36.181  65.500  1.00  0.00     0.100 A 
ENDBRANCH   6  14
BRANCH   6  24
HETATM   24  O   UNL     1       3.940  33.556  64.623  1.00  0.00    -0.371 OA
HETATM   25  H   UNL     1       3.006  33.818  64.581  1.00  0.00     0.212 HD
ENDBRANCH   6  24
TORSDOF 2
ENDMDL
MODEL 4
REMARK VINA RESULT:      -8.7      2.338      5.324
REMARK  2 active torsions:
REMARK  status: ('A' for Active; 'I' for Inactive)
REMARK    1  A    between atoms: C_6  and  C_8 
REMARK    2  A    between atoms: C_6  and  O_7 
ROOT
HETATM    1  C   UNL     1       8.645  20.318  53.264  1.00  0.00     0.048 C 
HETATM    2  C   UNL     1       8.195  21.686  53.689  1.00  0.00    -0.059 A 
HETATM    3  C   UNL     1       7.705  21.909  54.980  1.00  0.00     0.037 A 
HETATM    4  C   UNL     1       7.318  23.193  55.307  1.00  0.00     0.046 A 
HETATM    5  C   UNL     1       7.391  24.268  54.410  1.00  0.00     0.023 A 
HETATM    6  C   UNL     1       6.930  25.528  55.124  1.00  0.00     0.199 A 
HETATM    7  C   UNL     1       6.549  24.973  56.543  1.00  0.00     0.266 A 
HETATM    8  O   UNL     1       6.138  25.583  57.518  1.00  0.00    -0.269 OA
HETATM    9  N   UNL     1       6.831  23.608  56.537  1.00  0.00    -0.323 N 
HETATM   10  C   UNL     1       7.901  24.069  53.129  1.00  0.00    -0.049 A 
HETATM   11  C   UNL     1       8.006  25.174  52.121  1.00  0.00     0.049 C 
HETATM   12  C   UNL     1       8.284  22.761  52.778  1.00  0.00     0.014 A 
HETATM   13  H   UNL     1       6.687  23.024  57.346  1.00  0.00     0.169 HD
ENDROOT
BRANCH   6  14
HETATM   14  C   UNL     1       5.742  26.093  54.387  1.00  0.00     0.018 A 
HETATM   15  C   UNL     1       5.236  27.445  54.378  1.00  0.00     0.002 A 
HETATM   16  C   UNL     1       4.139  27.480  53.512  1.00  0.00     0.043 A 
HETATM   17  C   UNL     1       5.605  28.652  55.014  1.00  0.00     0.014 A 
HETATM   18  C   UNL     1       3.407  28.644  53.248  1.00  0.00     0.030 A 
HETATM   19  N   UNL     1       3.973  26.211  53.014  1.00  0.00    -0.365 N 
HETATM   20  C   UNL     1       3.802  29.820  53.888  1.00  0.00     0.002 A 
HETATM   21  C   UNL     1       4.885  29.826  54.762  1.00  0.00     0.001 A 
HETATM   22  H   UNL     1       3.259  25.945  52.351  1.00  0.00     0.165 HD
HETATM   23  C   UNL     1       4.923  25.376  53.525  1.00  0.00     0.100 A 
ENDBRANCH   6  14
BRANCH   6  24
HETATM   24  O   UNL     1       8.018  26.447  55.213  1.00  0.00    -0.371 OA
HETATM   25  H   UNL     1       7.931  27.047  54.455  1.00  0.00     0.212 HD
ENDBRANCH   6  24
TORSDOF 2
ENDMDL
MODEL 5
REMARK VINA RESULT:      -8.4      2.230      3.580
REMARK  2 active torsions:
REMARK  status: ('A' for Active; 'I' for Inactive)
REMARK    1  A    between atoms: C_6  and  C_8 
REMARK    2  A    between atoms: C_6  and  O_7 
ROOT
HETATM    1  C   UNL     1       9.146  32.293  60.344  1.00  0.00     0.048 C 
HETATM    2  C   UNL     1       8.618  31.334  59.316  1.00  0.00    -0.059 A 
HETATM    3  C   UNL     1       7.242  31.146  59.152  1.00  0.00     0.037 A 
HETATM    4  C   UNL     1       6.827  30.257  58.182  1.00  0.00     0.046 A 
HETATM    5  C   UNL     1       7.714  29.540  57.367  1.00  0.00     0.023 A 
HETATM    6  C   UNL     1       6.907  28.701  56.391  1.00  0.00     0.199 A 
HETATM    7  C   UNL     1       5.434  29.033  56.822  1.00  0.00     0.266 A 
HETATM    8  O   UNL     1       4.387  28.632  56.338  1.00  0.00    -0.269 OA
HETATM    9  N   UNL     1       5.511  29.958  57.860  1.00  0.00    -0.323 N 
HETATM   10  C   UNL     1       9.088  29.734  57.499  1.00  0.00    -0.049 A 
HETATM   11  C   UNL     1      10.091  29.001  56.662  1.00  0.00     0.049 C 
HETATM   12  C   UNL     1       9.525  30.626  58.496  1.00  0.00     0.014 A 
HETATM   13  H   UNL     1       4.691  30.345  58.302  1.00  0.00     0.169 HD
ENDROOT
BRANCH   6  14
HETATM   14  C   UNL     1       7.257  27.249  56.598  1.00  0.00     0.018 A 
HETATM   15  C   UNL     1       7.478  26.216  55.614  1.00  0.00     0.002 A 
HETATM   16  C   UNL     1       7.815  25.045  56.298  1.00  0.00     0.043 A 
HETATM   17  C   UNL     1       7.435  26.159  54.203  1.00  0.00     0.014 A 
HETATM   18  C   UNL     1       8.112  23.838  55.653  1.00  0.00     0.030 A 
HETATM   19  N   UNL     1       7.797  25.338  57.640  1.00  0.00    -0.365 N 
HETATM   20  C   UNL     1       8.067  23.818  54.258  1.00  0.00     0.002 A 
HETATM   21  C   UNL     1       7.731  24.961  53.540  1.00  0.00     0.001 A 
HETATM   22  H   UNL     1       8.015  24.678  58.373  1.00  0.00     0.165 HD
HETATM   23  C   UNL     1       7.470  26.648  57.832  1.00  0.00     0.100 A 
ENDBRANCH   6  14
BRANCH   6  24
HETATM   24  O   UNL     1       7.161  29.148  55.060  1.00  0.00    -0.371 OA
HETATM   25  H   UNL     1       7.296  28.350  54.524  1.00  0.00     0.212 HD
ENDBRANCH   6  24
TORSDOF 2
ENDMDL
MODEL 6
REMARK VINA RESULT:      -8.4      8.567     11.798
REMARK  2 active torsions:
REMARK  status: ('A' for Active; 'I' for Inactive)
REMARK    1  A    between atoms: C_6  and  C_8 
REMARK    2  A    between atoms: C_6  and  O_7 
ROOT
HETATM    1  C   UNL     1      10.001  31.791  59.330  1.00  0.00     0.048 C 
HETATM    2  C   UNL     1       8.780  32.033  60.169  1.00  0.00    -0.059 A 
HETATM    3  C   UNL     1       7.501  31.975  59.604  1.00  0.00     0.037 A 
HETATM    4  C   UNL     1       6.422  32.198  60.436  1.00  0.00     0.046 A 
HETATM    5  C   UNL     1       6.551  32.480  61.803  1.00  0.00     0.023 A 
HETATM    6  C   UNL     1       5.163  32.618  62.404  1.00  0.00     0.199 A 
HETATM    7  C   UNL     1       4.245  32.412  61.146  1.00  0.00     0.266 A 
HETATM    8  O   UNL     1       3.026  32.405  61.081  1.00  0.00    -0.269 OA
HETATM    9  N   UNL     1       5.087  32.161  60.064  1.00  0.00    -0.323 N 
HETATM   10  C   UNL     1       7.816  32.515  62.387  1.00  0.00    -0.049 A 
HETATM   11  C   UNL     1       8.026  32.810  63.841  1.00  0.00     0.049 C 
HETATM   12  C   UNL     1       8.925  32.305  61.546  1.00  0.00     0.014 A 
HETATM   13  H   UNL     1       4.734  31.977  59.137  1.00  0.00     0.169 HD
ENDROOT
BRANCH   6  14
HETATM   14  C   UNL     1       5.029  33.997  62.997  1.00  0.00     0.018 A 
HETATM   15  C   UNL     1       4.817  34.380  64.373  1.00  0.00     0.002 A 
HETATM   16  C   UNL     1       4.801  35.777  64.426  1.00  0.00     0.043 A 
HETATM   17  C   UNL     1       4.644  33.678  65.587  1.00  0.00     0.014 A 
HETATM   18  C   UNL     1       4.631  36.497  65.615  1.00  0.00     0.030 A 
HETATM   19  N   UNL     1       4.989  36.235  63.145  1.00  0.00    -0.365 N 
HETATM   20  C   UNL     1       4.470  35.773  66.797  1.00  0.00     0.002 A 
HETATM   21  C   UNL     1       4.474  34.382  66.786  1.00  0.00     0.001 A 
HETATM   22  H   UNL     1       5.035  37.210  62.886  1.00  0.00     0.165 HD
HETATM   23  C   UNL     1       5.129  35.185  62.285  1.00  0.00     0.100 A 
ENDBRANCH   6  14
BRANCH   6  24
HETATM   24  O   UNL     1       4.955  31.579  63.360  1.00  0.00    -0.371 OA
HETATM   25  H   UNL     1       4.424  30.900  62.914  1.00  0.00     0.212 HD
ENDBRANCH   6  24
TORSDOF 2
ENDMDL
MODEL 7
REMARK VINA RESULT:      -8.0      1.816      2.564
REMARK  2 active torsions:
REMARK  status: ('A' for Active; 'I' for Inactive)
REMARK    1  A    between atoms: C_6  and  C_8 
REMARK    2  A    between atoms: C_6  and  O_7 
ROOT
HETATM    1  C   UNL     1       9.833  30.944  59.463  1.00  0.00     0.048 C 
HETATM    2  C   UNL     1       9.025  30.264  58.396  1.00  0.00    -0.059 A 
HETATM    3  C   UNL     1       7.688  29.921  58.620  1.00  0.00     0.037 A 
HETATM    4  C   UNL     1       7.002  29.307  57.592  1.00  0.00     0.046 A 
HETATM    5  C   UNL     1       7.581  29.013  56.350  1.00  0.00     0.023 A 
HETATM    6  C   UNL     1       6.524  28.387  55.457  1.00  0.00     0.199 A 
HETATM    7  C   UNL     1       5.280  28.340  56.414  1.00  0.00     0.266 A 
HETATM    8  O   UNL     1       4.149  27.943  56.180  1.00  0.00    -0.269 OA
HETATM    9  N   UNL     1       5.672  28.915  57.621  1.00  0.00    -0.323 N 
HETATM   10  C   UNL     1       8.904  29.372  56.100  1.00  0.00    -0.049 A 
HETATM   11  C   UNL     1       9.586  29.088  54.796  1.00  0.00     0.049 C 
HETATM   12  C   UNL     1       9.620  29.984  57.146  1.00  0.00     0.014 A 
HETATM   13  H   UNL     1       5.039  29.019  58.400  1.00  0.00     0.169 HD
ENDROOT
BRANCH   6  14
HETATM   14  C   UNL     1       6.990  27.013  55.047  1.00  0.00     0.018 A 
HETATM   15  C   UNL     1       7.600  25.981  55.853  1.00  0.00     0.002 A 
HETATM   16  C   UNL     1       7.815  24.874  55.028  1.00  0.00     0.043 A 
HETATM   17  C   UNL     1       7.983  25.872  57.209  1.00  0.00     0.014 A 
HETATM   18  C   UNL     1       8.382  23.677  55.484  1.00  0.00     0.030 A 
HETATM   19  N   UNL     1       7.367  25.206  53.774  1.00  0.00    -0.365 N 
HETATM   20  C   UNL     1       8.744  23.600  56.830  1.00  0.00     0.002 A 
HETATM   21  C   UNL     1       8.550  24.682  57.683  1.00  0.00     0.001 A 
HETATM   22  H   UNL     1       7.387  24.588  52.975  1.00  0.00     0.165 HD
HETATM   23  C   UNL     1       6.870  26.476  53.772  1.00  0.00     0.100 A 
ENDBRANCH   6  14
BRANCH   6  24
HETATM   24  O   UNL     1       6.277  29.245  54.343  1.00  0.00    -0.371 OA
HETATM   25  H   UNL     1       5.326  29.185  54.159  1.00  0.00     0.212 HD
ENDBRANCH   6  24
TORSDOF 2
ENDMDL
MODEL 8
REMARK VINA RESULT:      -8.0      2.786      5.152
REMARK  2 active torsions:
REMARK  status: ('A' for Active; 'I' for Inactive)
REMARK    1  A    between atoms: C_6  and  C_8 
REMARK    2  A    between atoms: C_6  and  O_7 
ROOT
HETATM    1  C   UNL     1       7.883  22.366  56.378  1.00  0.00     0.048 C 
HETATM    2  C   UNL     1       7.430  23.534  55.552  1.00  0.00    -0.059 A 
HETATM    3  C   UNL     1       6.426  24.392  56.015  1.00  0.00     0.037 A 
HETATM    4  C   UNL     1       6.065  25.452  55.208  1.00  0.00     0.046 A 
HETATM    5  C   UNL     1       6.651  25.701  53.960  1.00  0.00     0.023 A 
HETATM    6  C   UNL     1       6.045  26.968  53.382  1.00  0.00     0.199 A 
HETATM    7  C   UNL     1       4.999  27.358  54.488  1.00  0.00     0.266 A 
HETATM    8  O   UNL     1       4.250  28.321  54.527  1.00  0.00    -0.269 OA
HETATM    9  N   UNL     1       5.112  26.413  55.506  1.00  0.00    -0.323 N 
HETATM   10  C   UNL     1       7.671  24.872  53.495  1.00  0.00    -0.049 A 
HETATM   11  C   UNL     1       8.341  25.081  52.171  1.00  0.00     0.049 C 
HETATM   12  C   UNL     1       8.037  23.778  54.301  1.00  0.00     0.014 A 
HETATM   13  H   UNL     1       4.553  26.455  56.345  1.00  0.00     0.169 HD
ENDROOT
BRANCH   6  14
HETATM   14  C   UNL     1       5.395  26.635  52.064  1.00  0.00     0.018 A 
HETATM   15  C   UNL     1       5.269  27.450  50.878  1.00  0.00     0.002 A 
HETATM   16  C   UNL     1       4.622  26.684  49.905  1.00  0.00     0.043 A 
HETATM   17  C   UNL     1       5.651  28.765  50.528  1.00  0.00     0.014 A 
HETATM   18  C   UNL     1       4.345  27.156  48.616  1.00  0.00     0.030 A 
HETATM   19  N   UNL     1       4.355  25.458  50.463  1.00  0.00    -0.365 N 
HETATM   20  C   UNL     1       4.741  28.457  48.301  1.00  0.00     0.002 A 
HETATM   21  C   UNL     1       5.384  29.253  49.243  1.00  0.00     0.001 A 
HETATM   22  H   UNL     1       3.900  24.695  49.980  1.00  0.00     0.165 HD
HETATM   23  C   UNL     1       4.812  25.415  51.747  1.00  0.00     0.100 A 
ENDBRANCH   6  14
BRANCH   6  24
HETATM   24  O   UNL     1       7.057  27.967  53.265  1.00  0.00    -0.371 OA
HETATM   25  H   UNL     1       7.049  28.463  54.100  1.00  0.00     0.212 HD
ENDBRANCH   6  24
TORSDOF 2
ENDMDL
MODEL 9
REMARK VINA RESULT:      -8.0      2.318      5.492
REMARK  2 active torsions:
REMARK  status: ('A' for Active; 'I' for Inactive)
REMARK    1  A    between atoms: C_6  and  C_8 
REMARK    2  A    between atoms: C_6  and  O_7 
ROOT
HETATM    1  C   UNL     1       7.972  20.708  52.950  1.00  0.00     0.048 C 
HETATM    2  C   UNL     1       7.918  21.949  53.794  1.00  0.00    -0.059 A 
HETATM    3  C   UNL     1       8.209  21.898  55.161  1.00  0.00     0.037 A 
HETATM    4  C   UNL     1       8.150  23.078  55.875  1.00  0.00     0.046 A 
HETATM    5  C   UNL     1       7.812  24.309  55.296  1.00  0.00     0.023 A 
HETATM    6  C   UNL     1       7.895  25.387  56.363  1.00  0.00     0.199 A 
HETATM    7  C   UNL     1       8.291  24.553  57.634  1.00  0.00     0.266 A 
HETATM    8  O   UNL     1       8.508  24.944  58.770  1.00  0.00    -0.269 OA
HETATM    9  N   UNL     1       8.425  23.227  57.226  1.00  0.00    -0.323 N 
HETATM   10  C   UNL     1       7.545  24.383  53.930  1.00  0.00    -0.049 A 
HETATM   11  C   UNL     1       7.177  25.665  53.247  1.00  0.00     0.049 C 
HETATM   12  C   UNL     1       7.586  23.183  53.195  1.00  0.00     0.014 A 
HETATM   13  H   UNL     1       8.693  22.491  57.861  1.00  0.00     0.169 HD
ENDROOT
BRANCH   6  14
HETATM   14  C   UNL     1       6.543  26.039  56.497  1.00  0.00     0.018 A 
HETATM   15  C   UNL     1       6.162  27.408  56.241  1.00  0.00     0.002 A 
HETATM   16  C   UNL     1       4.788  27.515  56.472  1.00  0.00     0.043 A 
HETATM   17  C   UNL     1       6.848  28.571  55.824  1.00  0.00     0.014 A 
HETATM   18  C   UNL     1       4.074  28.708  56.305  1.00  0.00     0.030 A 
HETATM   19  N   UNL     1       4.342  26.275  56.858  1.00  0.00    -0.365 N 
HETATM   20  C   UNL     1       4.780  29.837  55.886  1.00  0.00     0.002 A 
HETATM   21  C   UNL     1       6.149  29.772  55.650  1.00  0.00     0.001 A 
HETATM   22  H   UNL     1       3.381  26.055  57.079  1.00  0.00     0.165 HD
HETATM   23  C   UNL     1       5.376  25.387  56.875  1.00  0.00     0.100 A 
ENDBRANCH   6  14
BRANCH   6  24
HETATM   24  O   UNL     1       8.927  26.312  56.022  1.00  0.00    -0.371 OA
HETATM   25  H   UNL     1       9.603  25.804  55.546  1.00  0.00     0.212 HD
ENDBRANCH   6  24
TORSDOF 2
ENDMDL
MODEL 10
REMARK VINA RESULT:      -7.9     10.002     12.324
REMARK  2 active torsions:
REMARK  status: ('A' for Active; 'I' for Inactive)
REMARK    1  A    between atoms: C_6  and  C_8 
REMARK    2  A    between atoms: C_6  and  O_7 
ROOT
HETATM    1  C   UNL     1       6.864  39.967  62.542  1.00  0.00     0.048 C 
HETATM    2  C   UNL     1       6.073  38.708  62.751  1.00  0.00    -0.059 A 
HETATM    3  C   UNL     1       5.850  38.207  64.038  1.00  0.00     0.037 A 
HETATM    4  C   UNL     1       5.106  37.051  64.157  1.00  0.00     0.046 A 
HETATM    5  C   UNL     1       4.575  36.363  63.057  1.00  0.00     0.023 A 
HETATM    6  C   UNL     1       3.781  35.172  63.566  1.00  0.00     0.199 A 
HETATM    7  C   UNL     1       3.992  35.284  65.118  1.00  0.00     0.266 A 
HETATM    8  O   UNL     1       3.542  34.575  66.005  1.00  0.00    -0.269 OA
HETATM    9  N   UNL     1       4.765  36.421  65.344  1.00  0.00    -0.323 N 
HETATM   10  C   UNL     1       4.765  36.862  61.770  1.00  0.00    -0.049 A 
HETATM   11  C   UNL     1       4.225  36.178  60.551  1.00  0.00     0.049 C 
HETATM   12  C   UNL     1       5.535  38.032  61.634  1.00  0.00     0.014 A 
HETATM   13  H   UNL     1       5.026  36.721  66.271  1.00  0.00     0.169 HD
ENDROOT
BRANCH   6  14
HETATM   14  C   UNL     1       4.377  33.913  62.991  1.00  0.00     0.018 A 
HETATM   15  C   UNL     1       5.705  33.374  63.161  1.00  0.00     0.002 A 
HETATM   16  C   UNL     1       5.765  32.166  62.461  1.00  0.00     0.043 A 
HETATM   17  C   UNL     1       6.867  33.788  63.852  1.00  0.00     0.014 A 
HETATM   18  C   UNL     1       6.909  31.359  62.420  1.00  0.00     0.030 A 
HETATM   19  N   UNL     1       4.536  31.971  61.881  1.00  0.00    -0.365 N 
HETATM   20  C   UNL     1       8.037  31.794  63.118  1.00  0.00     0.002 A 
HETATM   21  C   UNL     1       8.020  32.993  63.824  1.00  0.00     0.001 A 
HETATM   22  H   UNL     1       4.287  31.167  61.321  1.00  0.00     0.165 HD
HETATM   23  C   UNL     1       3.699  33.002  62.191  1.00  0.00     0.100 A 
ENDBRANCH   6  14
BRANCH   6  24
HETATM   24  O   UNL     1       2.405  35.341  63.227  1.00  0.00    -0.371 OA
HETATM   25  H   UNL     1       2.348  35.248  62.263  1.00  0.00     0.212 HD
ENDBRANCH   6  24
TORSDOF 2
ENDMDL
