MODEL 1
REMARK VINA RESULT:      -9.2      0.000      0.000
REMARK  9 active torsions:
REMARK  status: ('A' for Active; 'I' for Inactive)
REMARK    1  A    between atoms: C_2  and  N_3 
REMARK    2  A    between atoms: C_2  and  C_23 
REMARK       I    between atoms: N_3  and  C_4 
REMARK       I    between atoms: C_4  and  N_5 
REMARK    3  A    between atoms: N_5  and  C_6 
REMARK    4  A    between atoms: C_6  and  C_7 
REMARK    5  A    between atoms: C_7  and  N_8 
REMARK    6  A    between atoms: C_7  and  C_14 
REMARK    7  A    between atoms: C_16  and  O_17 
REMARK    8  A    between atoms: C_23  and  C_24 
REMARK    9  A    between atoms: C_27  and  O_28 
ROOT
HETATM    1  N   UNL     1       7.942  26.219  53.052  1.00  0.00    -0.339 N 
HETATM    2  C   UNL     1       7.379  27.189  53.822  1.00  0.00     0.316 C 
HETATM    3  N   UNL     1       8.303  27.890  54.536  1.00  0.00    -0.341 N 
HETATM    4  O   UNL     1       6.186  27.456  53.891  1.00  0.00    -0.248 OA
HETATM    5  H   UNL     1       8.894  25.977  53.294  1.00  0.00     0.164 HD
HETATM    6  H   UNL     1       9.278  27.786  54.281  1.00  0.00     0.164 HD
ENDROOT
BRANCH   3   7
HETATM    7  C   UNL     1       7.957  28.820  55.605  1.00  0.00     0.162 C 
BRANCH   7   8
HETATM    8  C   UNL     1       8.326  28.388  57.060  1.00  0.00     0.238 C 
BRANCH   8   9
HETATM    9  N   UNL     1       7.216  27.565  57.703  1.00  0.00    -0.061 N 
HETATM   10  H   UNL     1       7.143  27.900  58.685  1.00  0.00     0.280 HD
HETATM   11  C   UNL     1       7.408  26.061  57.720  1.00  0.00     0.236 C 
HETATM   12  C   UNL     1       6.280  25.513  56.869  1.00  0.00     0.029 C 
HETATM   13  C   UNL     1       5.146  26.472  57.151  1.00  0.00     0.029 C 
HETATM   14  C   UNL     1       5.834  27.822  57.115  1.00  0.00     0.236 C 
ENDBRANCH   8   9
BRANCH   8  15
HETATM   15  C   UNL     1       8.808  29.592  57.856  1.00  0.00    -0.023 A 
HETATM   16  C   UNL     1       8.102  29.964  59.019  1.00  0.00     0.046 A 
HETATM   17  C   UNL     1       8.510  31.054  59.788  1.00  0.00     0.068 A 
HETATM   18  C   UNL     1       9.624  31.791  59.387  1.00  0.00     0.037 A 
HETATM   19  C   UNL     1      10.343  31.430  58.248  1.00  0.00     0.003 A 
HETATM   20  C   UNL     1       9.945  30.330  57.490  1.00  0.00     0.009 A 
BRANCH  17  21
HETATM   21  O   UNL     1       7.904  31.501  60.928  1.00  0.00    -0.356 OA
HETATM   22  C   UNL     1       8.712  31.625  62.093  1.00  0.00     0.210 C 
ENDBRANCH  17  21
ENDBRANCH   8  15
ENDBRANCH   7   8
ENDBRANCH   3   7
BRANCH   1  23
HETATM   23  C   UNL     1       7.196  25.088  52.484  1.00  0.00     0.086 C 
HETATM   24  C   UNL     1       6.198  25.495  51.402  1.00  0.00     0.032 C 
BRANCH  23  25
HETATM   25  C   UNL     1       6.509  24.247  53.586  1.00  0.00     0.063 C 
BRANCH  25  26
HETATM   26  C   UNL     1       7.241  22.951  53.863  1.00  0.00    -0.056 A 
HETATM   27  C   UNL     1       7.732  22.164  52.810  1.00  0.00     0.010 A 
HETATM   28  C   UNL     1       8.378  20.954  53.069  1.00  0.00     0.037 A 
HETATM   29  C   UNL     1       8.531  20.527  54.384  1.00  0.00     0.065 A 
HETATM   30  C   UNL     1       8.055  21.292  55.440  1.00  0.00     0.037 A 
HETATM   31  C   UNL     1       7.414  22.505  55.182  1.00  0.00     0.010 A 
BRANCH  29  32
HETATM   32  O   UNL     1       9.150  19.350  54.685  1.00  0.00    -0.361 OA
HETATM   33  H   UNL     1      10.112  19.471  54.632  1.00  0.00     0.217 HD
ENDBRANCH  29  32
ENDBRANCH  25  26
ENDBRANCH  23  25
ENDBRANCH   1  23
TORSDOF 9
ENDMDL
MODEL 2
REMARK VINA RESULT:      -8.9      3.473      7.527
REMARK  9 active torsions:
REMARK  status: ('A' for Active; 'I' for Inactive)
REMARK    1  A    between atoms: C_2  and  N_3 
REMARK    2  A    between atoms: C_2  and  C_23 
REMARK       I    between atoms: N_3  and  C_4 
REMARK       I    between atoms: C_4  and  N_5 
REMARK    3  A    between atoms: N_5  and  C_6 
REMARK    4  A    between atoms: C_6  and  C_7 
REMARK    5  A    between atoms: C_7  and  N_8 
REMARK    6  A    between atoms: C_7  and  C_14 
REMARK    7  A    between atoms: C_16  and  O_17 
REMARK    8  A    between atoms: C_23  and  C_24 
REMARK    9  A    between atoms: C_27  and  O_28 
ROOT
HETATM    1  N   UNL     1       5.706  29.349  51.807  1.00  0.00    -0.339 N 
HETATM    2  C   UNL     1       6.104  28.138  52.285  1.00  0.00     0.316 C 
HETATM    3  N   UNL     1       6.850  28.246  53.421  1.00  0.00    -0.341 N 
HETATM    4  O   UNL     1       5.838  27.046  51.800  1.00  0.00    -0.248 OA
HETATM    5  H   UNL     1       6.206  30.144  52.181  1.00  0.00     0.164 HD
HETATM    6  H   UNL     1       6.854  29.138  53.902  1.00  0.00     0.164 HD
ENDROOT
BRANCH   3   7
HETATM    7  C   UNL     1       7.591  27.134  54.004  1.00  0.00     0.162 C 
BRANCH   7   8
HETATM    8  C   UNL     1       6.768  26.096  54.830  1.00  0.00     0.238 C 
BRANCH   8   9
HETATM    9  N   UNL     1       6.780  26.423  56.319  1.00  0.00    -0.061 N 
HETATM   10  H   UNL     1       6.843  25.509  56.813  1.00  0.00     0.280 HD
HETATM   11  C   UNL     1       5.582  27.181  56.858  1.00  0.00     0.236 C 
HETATM   12  C   UNL     1       6.141  28.505  57.339  1.00  0.00     0.029 C 
HETATM   13  C   UNL     1       7.514  28.129  57.847  1.00  0.00     0.029 C 
HETATM   14  C   UNL     1       8.019  27.183  56.776  1.00  0.00     0.236 C 
ENDBRANCH   8   9
BRANCH   8  15
HETATM   15  C   UNL     1       7.184  24.681  54.456  1.00  0.00    -0.023 A 
HETATM   16  C   UNL     1       7.219  23.695  55.465  1.00  0.00     0.046 A 
HETATM   17  C   UNL     1       7.585  22.381  55.171  1.00  0.00     0.068 A 
HETATM   18  C   UNL     1       7.936  22.049  53.862  1.00  0.00     0.037 A 
HETATM   19  C   UNL     1       7.893  23.007  52.850  1.00  0.00     0.003 A 
HETATM   20  C   UNL     1       7.510  24.316  53.141  1.00  0.00     0.009 A 
BRANCH  17  21
HETATM   21  O   UNL     1       7.653  21.350  56.064  1.00  0.00    -0.356 OA
HETATM   22  C   UNL     1       8.923  20.740  56.264  1.00  0.00     0.210 C 
ENDBRANCH  17  21
ENDBRANCH   8  15
ENDBRANCH   7   8
ENDBRANCH   3   7
BRANCH   1  23
HETATM   23  C   UNL     1       5.230  29.570  50.435  1.00  0.00     0.086 C 
HETATM   24  C   UNL     1       5.553  30.961  49.892  1.00  0.00     0.032 C 
BRANCH  23  25
HETATM   25  C   UNL     1       3.723  29.254  50.295  1.00  0.00     0.063 C 
BRANCH  25  26
HETATM   26  C   UNL     1       3.447  28.219  49.224  1.00  0.00    -0.056 A 
HETATM   27  C   UNL     1       4.498  27.510  48.624  1.00  0.00     0.010 A 
HETATM   28  C   UNL     1       4.242  26.580  47.614  1.00  0.00     0.037 A 
HETATM   29  C   UNL     1       2.932  26.361  47.202  1.00  0.00     0.065 A 
HETATM   30  C   UNL     1       1.877  27.051  47.785  1.00  0.00     0.037 A 
HETATM   31  C   UNL     1       2.133  27.977  48.798  1.00  0.00     0.010 A 
BRANCH  29  32
HETATM   32  O   UNL     1       2.633  25.468  46.216  1.00  0.00    -0.361 OA
HETATM   33  H   UNL     1       2.755  24.565  46.554  1.00  0.00     0.217 HD
ENDBRANCH  29  32
ENDBRANCH  25  26
ENDBRANCH  23  25
ENDBRANCH   1  23
TORSDOF 9
ENDMDL
MODEL 3
REMARK VINA RESULT:      -8.7      1.840      9.254
REMARK  9 active torsions:
REMARK  status: ('A' for Active; 'I' for Inactive)
REMARK    1  A    between atoms: C_2  and  N_3 
REMARK    2  A    between atoms: C_2  and  C_23 
REMARK       I    between atoms: N_3  and  C_4 
REMARK       I    between atoms: C_4  and  N_5 
REMARK    3  A    between atoms: N_5  and  C_6 
REMARK    4  A    between atoms: C_6  and  C_7 
REMARK    5  A    between atoms: C_7  and  N_8 
REMARK    6  A    between atoms: C_7  and  C_14 
REMARK    7  A    between atoms: C_16  and  O_17 
REMARK    8  A    between atoms: C_23  and  C_24 
REMARK    9  A    between atoms: C_27  and  O_28 
ROOT
HETATM    1  N   UNL     1       7.358  29.351  56.957  1.00  0.00    -0.339 N 
HETATM    2  C   UNL     1       7.681  28.029  56.977  1.00  0.00     0.316 C 
HETATM    3  N   UNL     1       7.501  27.430  55.767  1.00  0.00    -0.341 N 
HETATM    4  O   UNL     1       8.104  27.402  57.940  1.00  0.00    -0.248 OA
HETATM    5  H   UNL     1       6.806  29.646  56.163  1.00  0.00     0.164 HD
HETATM    6  H   UNL     1       7.368  28.026  54.958  1.00  0.00     0.164 HD
ENDROOT
BRANCH   3   7
HETATM    7  C   UNL     1       7.548  25.986  55.569  1.00  0.00     0.162 C 
BRANCH   7   8
HETATM    8  C   UNL     1       7.498  25.476  54.094  1.00  0.00     0.238 C 
BRANCH   8   9
HETATM    9  N   UNL     1       6.274  26.004  53.355  1.00  0.00    -0.061 N 
HETATM   10  H   UNL     1       6.128  26.975  53.698  1.00  0.00     0.280 HD
HETATM   11  C   UNL     1       4.983  25.228  53.539  1.00  0.00     0.236 C 
HETATM   12  C   UNL     1       4.645  24.700  52.159  1.00  0.00     0.029 C 
HETATM   13  C   UNL     1       5.138  25.798  51.245  1.00  0.00     0.029 C 
HETATM   14  C   UNL     1       6.478  26.162  51.853  1.00  0.00     0.236 C 
ENDBRANCH   8   9
BRANCH   8  15
HETATM   15  C   UNL     1       7.698  23.968  54.056  1.00  0.00    -0.023 A 
HETATM   16  C   UNL     1       7.626  23.242  55.265  1.00  0.00     0.046 A 
HETATM   17  C   UNL     1       7.793  21.857  55.280  1.00  0.00     0.068 A 
HETATM   18  C   UNL     1       8.051  21.189  54.084  1.00  0.00     0.037 A 
HETATM   19  C   UNL     1       8.112  21.887  52.878  1.00  0.00     0.003 A 
HETATM   20  C   UNL     1       7.927  23.269  52.860  1.00  0.00     0.009 A 
BRANCH  17  21
HETATM   21  O   UNL     1       7.742  21.058  56.387  1.00  0.00    -0.356 OA
HETATM   22  C   UNL     1       8.875  20.238  56.654  1.00  0.00     0.210 C 
ENDBRANCH  17  21
ENDBRANCH   8  15
ENDBRANCH   7   8
ENDBRANCH   3   7
BRANCH   1  23
HETATM   23  C   UNL     1       7.092  30.147  58.163  1.00  0.00     0.086 C 
HETATM   24  C   UNL     1       5.874  31.060  58.037  1.00  0.00     0.032 C 
BRANCH  23  25
HETATM   25  C   UNL     1       8.340  30.943  58.608  1.00  0.00     0.063 C 
BRANCH  25  26
HETATM   26  C   UNL     1       8.265  31.369  60.060  1.00  0.00    -0.056 A 
HETATM   27  C   UNL     1       8.809  30.566  61.073  1.00  0.00     0.010 A 
HETATM   28  C   UNL     1       8.709  30.948  62.413  1.00  0.00     0.037 A 
HETATM   29  C   UNL     1       8.062  32.134  62.740  1.00  0.00     0.065 A 
HETATM   30  C   UNL     1       7.518  32.944  61.752  1.00  0.00     0.037 A 
HETATM   31  C   UNL     1       7.623  32.566  60.412  1.00  0.00     0.010 A 
BRANCH  29  32
HETATM   32  O   UNL     1       7.934  32.545  64.034  1.00  0.00    -0.361 OA
HETATM   33  H   UNL     1       8.813  32.757  64.390  1.00  0.00     0.217 HD
ENDBRANCH  29  32
ENDBRANCH  25  26
ENDBRANCH  23  25
ENDBRANCH   1  23
TORSDOF 9
ENDMDL
MODEL 4
REMARK VINA RESULT:      -8.6      3.726      7.783
REMARK  9 active torsions:
REMARK  status: ('A' for Active; 'I' for Inactive)
REMARK    1  A    between atoms: C_2  and  N_3 
REMARK    2  A    between atoms: C_2  and  C_23 
REMARK       I    between atoms: N_3  and  C_4 
REMARK       I    between atoms: C_4  and  N_5 
REMARK    3  A    between atoms: N_5  and  C_6 
REMARK    4  A    between atoms: C_6  and  C_7 
REMARK    5  A    between atoms: C_7  and  N_8 
REMARK    6  A    between atoms: C_7  and  C_14 
REMARK    7  A    between atoms: C_16  and  O_17 
REMARK    8  A    between atoms: C_23  and  C_24 
REMARK    9  A    between atoms: C_27  and  O_28 
ROOT
HETATM    1  N   UNL     1       3.687  27.966  52.005  1.00  0.00    -0.339 N 
HETATM    2  C   UNL     1       4.565  26.934  52.131  1.00  0.00     0.316 C 
HETATM    3  N   UNL     1       4.237  26.090  53.149  1.00  0.00    -0.341 N 
HETATM    4  O   UNL     1       5.546  26.728  51.427  1.00  0.00    -0.248 OA
HETATM    5  H   UNL     1       3.086  28.118  52.804  1.00  0.00     0.164 HD
HETATM    6  H   UNL     1       3.310  26.173  53.553  1.00  0.00     0.164 HD
ENDROOT
BRANCH   3   7
HETATM    7  C   UNL     1       5.124  25.046  53.646  1.00  0.00     0.162 C 
BRANCH   7   8
HETATM    8  C   UNL     1       5.704  25.241  55.083  1.00  0.00     0.238 C 
BRANCH   8   9
HETATM    9  N   UNL     1       6.038  26.702  55.363  1.00  0.00    -0.061 N 
HETATM   10  H   UNL     1       5.503  27.257  54.665  1.00  0.00     0.280 HD
HETATM   11  C   UNL     1       7.500  27.093  55.275  1.00  0.00     0.236 C 
HETATM   12  C   UNL     1       7.874  27.530  56.677  1.00  0.00     0.029 C 
HETATM   13  C   UNL     1       6.601  28.168  57.184  1.00  0.00     0.029 C 
HETATM   14  C   UNL     1       5.532  27.205  56.710  1.00  0.00     0.236 C 
ENDBRANCH   8   9
BRANCH   8  15
HETATM   15  C   UNL     1       6.826  24.243  55.333  1.00  0.00    -0.023 A 
HETATM   16  C   UNL     1       7.386  23.561  54.232  1.00  0.00     0.046 A 
HETATM   17  C   UNL     1       8.423  22.644  54.408  1.00  0.00     0.068 A 
HETATM   18  C   UNL     1       8.896  22.391  55.696  1.00  0.00     0.037 A 
HETATM   19  C   UNL     1       8.364  23.066  56.794  1.00  0.00     0.003 A 
HETATM   20  C   UNL     1       7.340  23.996  56.615  1.00  0.00     0.009 A 
BRANCH  17  21
HETATM   21  O   UNL     1       9.037  21.931  53.419  1.00  0.00    -0.356 OA
HETATM   22  C   UNL     1       8.585  20.601  53.194  1.00  0.00     0.210 C 
ENDBRANCH  17  21
ENDBRANCH   8  15
ENDBRANCH   7   8
ENDBRANCH   3   7
BRANCH   1  23
HETATM   23  C   UNL     1       3.980  29.204  51.270  1.00  0.00     0.086 C 
HETATM   24  C   UNL     1       4.180  30.419  52.174  1.00  0.00     0.032 C 
BRANCH  23  25
HETATM   25  C   UNL     1       2.916  29.487  50.184  1.00  0.00     0.063 C 
BRANCH  25  26
HETATM   26  C   UNL     1       2.864  28.400  49.130  1.00  0.00    -0.056 A 
HETATM   27  C   UNL     1       4.036  27.954  48.501  1.00  0.00     0.010 A 
HETATM   28  C   UNL     1       3.979  26.974  47.508  1.00  0.00     0.037 A 
HETATM   29  C   UNL     1       2.748  26.442  47.140  1.00  0.00     0.065 A 
HETATM   30  C   UNL     1       1.577  26.869  47.753  1.00  0.00     0.037 A 
HETATM   31  C   UNL     1       1.634  27.844  48.750  1.00  0.00     0.010 A 
BRANCH  29  32
HETATM   32  O   UNL     1       2.642  25.488  46.172  1.00  0.00    -0.361 OA
HETATM   33  H   UNL     1       2.173  24.717  46.532  1.00  0.00     0.217 HD
ENDBRANCH  29  32
ENDBRANCH  25  26
ENDBRANCH  23  25
ENDBRANCH   1  23
TORSDOF 9
ENDMDL
MODEL 5
REMARK VINA RESULT:      -8.5      2.048      3.268
REMARK  9 active torsions:
REMARK  status: ('A' for Active; 'I' for Inactive)
REMARK    1  A    between atoms: C_2  and  N_3 
REMARK    2  A    between atoms: C_2  and  C_23 
REMARK       I    between atoms: N_3  and  C_4 
REMARK       I    between atoms: C_4  and  N_5 
REMARK    3  A    between atoms: N_5  and  C_6 
REMARK    4  A    between atoms: C_6  and  C_7 
REMARK    5  A    between atoms: C_7  and  N_8 
REMARK    6  A    between atoms: C_7  and  C_14 
REMARK    7  A    between atoms: C_16  and  O_17 
REMARK    8  A    between atoms: C_23  and  C_24 
REMARK    9  A    between atoms: C_27  and  O_28 
ROOT
HETATM    1  N   UNL     1       8.111  26.230  57.139  1.00  0.00    -0.339 N 
HETATM    2  C   UNL     1       8.012  27.517  56.709  1.00  0.00     0.316 C 
HETATM    3  N   UNL     1       8.341  28.418  57.676  1.00  0.00    -0.341 N 
HETATM    4  O   UNL     1       7.684  27.881  55.586  1.00  0.00    -0.248 OA
HETATM    5  H   UNL     1       8.157  26.115  58.143  1.00  0.00     0.164 HD
HETATM    6  H   UNL     1       8.814  28.073  58.504  1.00  0.00     0.164 HD
ENDROOT
BRANCH   3   7
HETATM    7  C   UNL     1       8.099  29.850  57.557  1.00  0.00     0.162 C 
BRANCH   7   8
HETATM    8  C   UNL     1       7.073  30.476  58.553  1.00  0.00     0.238 C 
BRANCH   8   9
HETATM    9  N   UNL     1       6.041  31.338  57.834  1.00  0.00    -0.061 N 
HETATM   10  H   UNL     1       6.478  32.275  57.722  1.00  0.00     0.280 HD
HETATM   11  C   UNL     1       4.701  31.509  58.523  1.00  0.00     0.236 C 
HETATM   12  C   UNL     1       3.695  30.867  57.589  1.00  0.00     0.029 C 
HETATM   13  C   UNL     1       4.266  31.163  56.221  1.00  0.00     0.029 C 
HETATM   14  C   UNL     1       5.744  30.888  56.408  1.00  0.00     0.236 C 
ENDBRANCH   8   9
BRANCH   8  15
HETATM   15  C   UNL     1       7.805  31.142  59.709  1.00  0.00    -0.023 A 
HETATM   16  C   UNL     1       7.049  31.786  60.711  1.00  0.00     0.046 A 
HETATM   17  C   UNL     1       7.673  32.402  61.796  1.00  0.00     0.068 A 
HETATM   18  C   UNL     1       9.066  32.391  61.876  1.00  0.00     0.037 A 
HETATM   19  C   UNL     1       9.829  31.748  60.903  1.00  0.00     0.003 A 
HETATM   20  C   UNL     1       9.204  31.116  59.828  1.00  0.00     0.009 A 
BRANCH  17  21
HETATM   21  O   UNL     1       7.043  33.051  62.819  1.00  0.00    -0.356 OA
HETATM   22  C   UNL     1       7.652  32.994  64.104  1.00  0.00     0.210 C 
ENDBRANCH  17  21
ENDBRANCH   8  15
ENDBRANCH   7   8
ENDBRANCH   3   7
BRANCH   1  23
HETATM   23  C   UNL     1       7.475  25.090  56.466  1.00  0.00     0.086 C 
HETATM   24  C   UNL     1       5.961  25.028  56.666  1.00  0.00     0.032 C 
BRANCH  23  25
HETATM   25  C   UNL     1       8.143  23.751  56.856  1.00  0.00     0.063 C 
BRANCH  25  26
HETATM   26  C   UNL     1       8.161  22.760  55.711  1.00  0.00    -0.056 A 
HETATM   27  C   UNL     1       8.281  23.198  54.384  1.00  0.00     0.010 A 
HETATM   28  C   UNL     1       8.265  22.282  53.330  1.00  0.00     0.037 A 
HETATM   29  C   UNL     1       8.125  20.926  53.603  1.00  0.00     0.065 A 
HETATM   30  C   UNL     1       8.007  20.472  54.910  1.00  0.00     0.037 A 
HETATM   31  C   UNL     1       8.029  21.386  55.964  1.00  0.00     0.010 A 
BRANCH  29  32
HETATM   32  O   UNL     1       8.098  19.996  52.606  1.00  0.00    -0.361 OA
HETATM   33  H   UNL     1       8.800  20.194  51.965  1.00  0.00     0.217 HD
ENDBRANCH  29  32
ENDBRANCH  25  26
ENDBRANCH  23  25
ENDBRANCH   1  23
TORSDOF 9
ENDMDL
MODEL 6
REMARK VINA RESULT:      -8.5      4.037      8.323
REMARK  9 active torsions:
REMARK  status: ('A' for Active; 'I' for Inactive)
REMARK    1  A    between atoms: C_2  and  N_3 
REMARK    2  A    between atoms: C_2  and  C_23 
REMARK       I    between atoms: N_3  and  C_4 
REMARK       I    between atoms: C_4  and  N_5 
REMARK    3  A    between atoms: N_5  and  C_6 
REMARK    4  A    between atoms: C_6  and  C_7 
REMARK    5  A    between atoms: C_7  and  N_8 
REMARK    6  A    between atoms: C_7  and  C_14 
REMARK    7  A    between atoms: C_16  and  O_17 
REMARK    8  A    between atoms: C_23  and  C_24 
REMARK    9  A    between atoms: C_27  and  O_28 
ROOT
HETATM    1  N   UNL     1       4.947  25.678  54.460  1.00  0.00    -0.339 N 
HETATM    2  C   UNL     1       4.994  26.903  53.867  1.00  0.00     0.316 C 
HETATM    3  N   UNL     1       3.867  27.181  53.154  1.00  0.00    -0.341 N 
HETATM    4  O   UNL     1       5.913  27.709  53.945  1.00  0.00    -0.248 OA
HETATM    5  H   UNL     1       4.237  25.054  54.101  1.00  0.00     0.164 HD
HETATM    6  H   UNL     1       3.056  26.591  53.300  1.00  0.00     0.164 HD
ENDROOT
BRANCH   3   7
HETATM    7  C   UNL     1       3.753  28.311  52.240  1.00  0.00     0.162 C 
BRANCH   7   8
HETATM    8  C   UNL     1       4.713  28.321  51.009  1.00  0.00     0.238 C 
BRANCH   8   9
HETATM    9  N   UNL     1       5.306  29.704  50.766  1.00  0.00    -0.061 N 
HETATM   10  H   UNL     1       6.174  29.749  51.337  1.00  0.00     0.280 HD
HETATM   11  C   UNL     1       4.431  30.890  51.127  1.00  0.00     0.236 C 
HETATM   12  C   UNL     1       4.178  31.603  49.813  1.00  0.00     0.029 C 
HETATM   13  C   UNL     1       5.469  31.388  49.057  1.00  0.00     0.029 C 
HETATM   14  C   UNL     1       5.782  29.932  49.337  1.00  0.00     0.236 C 
ENDBRANCH   8   9
BRANCH   8  15
HETATM   15  C   UNL     1       4.037  27.668  49.813  1.00  0.00    -0.023 A 
HETATM   16  C   UNL     1       2.773  28.144  49.404  1.00  0.00     0.046 A 
HETATM   17  C   UNL     1       2.117  27.585  48.307  1.00  0.00     0.068 A 
HETATM   18  C   UNL     1       2.717  26.530  47.619  1.00  0.00     0.037 A 
HETATM   19  C   UNL     1       3.972  26.056  48.000  1.00  0.00     0.003 A 
HETATM   20  C   UNL     1       4.636  26.627  49.085  1.00  0.00     0.009 A 
BRANCH  17  21
HETATM   21  O   UNL     1       0.897  27.965  47.825  1.00  0.00    -0.356 OA
HETATM   22  C   UNL     1       0.502  27.447  46.560  1.00  0.00     0.210 C 
ENDBRANCH  17  21
ENDBRANCH   8  15
ENDBRANCH   7   8
ENDBRANCH   3   7
BRANCH   1  23
HETATM   23  C   UNL     1       6.130  24.965  54.960  1.00  0.00     0.086 C 
HETATM   24  C   UNL     1       6.967  25.782  55.943  1.00  0.00     0.032 C 
BRANCH  23  25
HETATM   25  C   UNL     1       7.002  24.425  53.802  1.00  0.00     0.063 C 
BRANCH  25  26
HETATM   26  C   UNL     1       7.492  23.015  54.058  1.00  0.00    -0.056 A 
HETATM   27  C   UNL     1       7.468  22.471  55.351  1.00  0.00     0.010 A 
HETATM   28  C   UNL     1       7.950  21.181  55.587  1.00  0.00     0.037 A 
HETATM   29  C   UNL     1       8.460  20.437  54.529  1.00  0.00     0.065 A 
HETATM   30  C   UNL     1       8.491  20.957  53.242  1.00  0.00     0.037 A 
HETATM   31  C   UNL     1       8.004  22.243  53.004  1.00  0.00     0.010 A 
BRANCH  29  32
HETATM   32  O   UNL     1       8.948  19.176  54.712  1.00  0.00    -0.361 OA
HETATM   33  H   UNL     1       8.347  18.537  54.295  1.00  0.00     0.217 HD
ENDBRANCH  29  32
ENDBRANCH  25  26
ENDBRANCH  23  25
ENDBRANCH   1  23
TORSDOF 9
ENDMDL
MODEL 7
REMARK VINA RESULT:      -8.4      4.240      7.475
REMARK  9 active torsions:
REMARK  status: ('A' for Active; 'I' for Inactive)
REMARK    1  A    between atoms: C_2  and  N_3 
REMARK    2  A    between atoms: C_2  and  C_23 
REMARK       I    between atoms: N_3  and  C_4 
REMARK       I    between atoms: C_4  and  N_5 
REMARK    3  A    between atoms: N_5  and  C_6 
REMARK    4  A    between atoms: C_6  and  C_7 
REMARK    5  A    between atoms: C_7  and  N_8 
REMARK    6  A    between atoms: C_7  and  C_14 
REMARK    7  A    between atoms: C_16  and  O_17 
REMARK    8  A    between atoms: C_23  and  C_24 
REMARK    9  A    between atoms: C_27  and  O_28 
ROOT
HETATM    1  N   UNL     1       5.061  25.113  53.942  1.00  0.00    -0.339 N 
HETATM    2  C   UNL     1       5.335  25.966  52.916  1.00  0.00     0.316 C 
HETATM    3  N   UNL     1       4.732  25.593  51.753  1.00  0.00    -0.341 N 
HETATM    4  O   UNL     1       6.023  26.976  52.980  1.00  0.00    -0.248 OA
HETATM    5  H   UNL     1       4.685  24.216  53.665  1.00  0.00     0.164 HD
HETATM    6  H   UNL     1       4.003  24.890  51.801  1.00  0.00     0.164 HD
ENDROOT
BRANCH   3   7
HETATM    7  C   UNL     1       5.041  26.190  50.460  1.00  0.00     0.162 C 
BRANCH   7   8
HETATM    8  C   UNL     1       3.962  27.138  49.846  1.00  0.00     0.238 C 
BRANCH   8   9
HETATM    9  N   UNL     1       3.814  26.926  48.344  1.00  0.00    -0.061 N 
HETATM   10  H   UNL     1       4.753  27.108  47.935  1.00  0.00     0.280 HD
HETATM   11  C   UNL     1       2.800  27.802  47.632  1.00  0.00     0.236 C 
HETATM   12  C   UNL     1       1.756  26.840  47.101  1.00  0.00     0.029 C 
HETATM   13  C   UNL     1       2.569  25.612  46.760  1.00  0.00     0.029 C 
HETATM   14  C   UNL     1       3.502  25.488  47.948  1.00  0.00     0.236 C 
ENDBRANCH   8   9
BRANCH   8  15
HETATM   15  C   UNL     1       4.209  28.571  50.295  1.00  0.00    -0.023 A 
HETATM   16  C   UNL     1       5.302  29.275  49.747  1.00  0.00     0.046 A 
HETATM   17  C   UNL     1       5.563  30.594  50.119  1.00  0.00     0.068 A 
HETATM   18  C   UNL     1       4.739  31.213  51.058  1.00  0.00     0.037 A 
HETATM   19  C   UNL     1       3.646  30.537  51.599  1.00  0.00     0.003 A 
HETATM   20  C   UNL     1       3.374  29.226  51.214  1.00  0.00     0.009 A 
BRANCH  17  21
HETATM   21  O   UNL     1       6.588  31.368  49.654  1.00  0.00    -0.356 OA
HETATM   22  C   UNL     1       6.254  32.643  49.116  1.00  0.00     0.210 C 
ENDBRANCH  17  21
ENDBRANCH   8  15
ENDBRANCH   7   8
ENDBRANCH   3   7
BRANCH   1  23
HETATM   23  C   UNL     1       5.850  25.042  55.179  1.00  0.00     0.086 C 
HETATM   24  C   UNL     1       5.614  26.219  56.124  1.00  0.00     0.032 C 
BRANCH  23  25
HETATM   25  C   UNL     1       7.357  24.858  54.885  1.00  0.00     0.063 C 
BRANCH  25  26
HETATM   26  C   UNL     1       7.745  23.400  54.751  1.00  0.00    -0.056 A 
HETATM   27  C   UNL     1       7.984  22.613  55.888  1.00  0.00     0.010 A 
HETATM   28  C   UNL     1       8.372  21.278  55.759  1.00  0.00     0.037 A 
HETATM   29  C   UNL     1       8.525  20.729  54.490  1.00  0.00     0.065 A 
HETATM   30  C   UNL     1       8.291  21.490  53.353  1.00  0.00     0.037 A 
HETATM   31  C   UNL     1       7.898  22.823  53.481  1.00  0.00     0.010 A 
BRANCH  29  32
HETATM   32  O   UNL     1       8.909  19.432  54.315  1.00  0.00    -0.361 OA
HETATM   33  H   UNL     1       9.737  19.410  53.808  1.00  0.00     0.217 HD
ENDBRANCH  29  32
ENDBRANCH  25  26
ENDBRANCH  23  25
ENDBRANCH   1  23
TORSDOF 9
ENDMDL
MODEL 8
REMARK VINA RESULT:      -8.3      2.965      9.887
REMARK  9 active torsions:
REMARK  status: ('A' for Active; 'I' for Inactive)
REMARK    1  A    between atoms: C_2  and  N_3 
REMARK    2  A    between atoms: C_2  and  C_23 
REMARK       I    between atoms: N_3  and  C_4 
REMARK       I    between atoms: C_4  and  N_5 
REMARK    3  A    between atoms: N_5  and  C_6 
REMARK    4  A    between atoms: C_6  and  C_7 
REMARK    5  A    between atoms: C_7  and  N_8 
REMARK    6  A    between atoms: C_7  and  C_14 
REMARK    7  A    between atoms: C_16  and  O_17 
REMARK    8  A    between atoms: C_23  and  C_24 
REMARK    9  A    between atoms: C_27  and  O_28 
ROOT
HETATM    1  N   UNL     1       4.375  31.416  59.500  1.00  0.00    -0.339 N 
HETATM    2  C   UNL     1       5.024  31.027  58.369  1.00  0.00     0.316 C 
HETATM    3  N   UNL     1       4.783  29.724  58.051  1.00  0.00    -0.341 N 
HETATM    4  O   UNL     1       5.742  31.729  57.669  1.00  0.00    -0.248 OA
HETATM    5  H   UNL     1       4.028  30.662  60.078  1.00  0.00     0.164 HD
HETATM    6  H   UNL     1       4.019  29.254  58.524  1.00  0.00     0.164 HD
ENDROOT
BRANCH   3   7
HETATM    7  C   UNL     1       5.528  28.994  57.033  1.00  0.00     0.162 C 
BRANCH   7   8
HETATM    8  C   UNL     1       6.966  28.522  57.416  1.00  0.00     0.238 C 
BRANCH   8   9
HETATM    9  N   UNL     1       8.004  29.607  57.155  1.00  0.00    -0.061 N 
HETATM   10  H   UNL     1       7.469  30.460  56.896  1.00  0.00     0.280 HD
HETATM   11  C   UNL     1       9.021  29.326  56.065  1.00  0.00     0.236 C 
HETATM   12  C   UNL     1      10.357  29.284  56.778  1.00  0.00     0.029 C 
HETATM   13  C   UNL     1      10.189  30.309  57.876  1.00  0.00     0.029 C 
HETATM   14  C   UNL     1       8.794  30.019  58.392  1.00  0.00     0.236 C 
ENDBRANCH   8   9
BRANCH   8  15
HETATM   15  C   UNL     1       7.254  27.164  56.794  1.00  0.00    -0.023 A 
HETATM   16  C   UNL     1       6.739  26.882  55.510  1.00  0.00     0.046 A 
HETATM   17  C   UNL     1       6.983  25.655  54.893  1.00  0.00     0.068 A 
HETATM   18  C   UNL     1       7.734  24.691  55.567  1.00  0.00     0.037 A 
HETATM   19  C   UNL     1       8.263  24.957  56.829  1.00  0.00     0.003 A 
HETATM   20  C   UNL     1       8.033  26.190  57.438  1.00  0.00     0.009 A 
BRANCH  17  21
HETATM   21  O   UNL     1       6.537  25.277  53.659  1.00  0.00    -0.356 OA
HETATM   22  C   UNL     1       5.143  25.027  53.515  1.00  0.00     0.210 C 
ENDBRANCH  17  21
ENDBRANCH   8  15
ENDBRANCH   7   8
ENDBRANCH   3   7
BRANCH   1  23
HETATM   23  C   UNL     1       4.732  32.610  60.279  1.00  0.00     0.086 C 
HETATM   24  C   UNL     1       4.446  33.922  59.552  1.00  0.00     0.032 C 
BRANCH  23  25
HETATM   25  C   UNL     1       6.197  32.553  60.770  1.00  0.00     0.063 C 
BRANCH  25  26
HETATM   26  C   UNL     1       6.318  32.817  62.257  1.00  0.00    -0.056 A 
HETATM   27  C   UNL     1       5.175  33.022  63.044  1.00  0.00     0.010 A 
HETATM   28  C   UNL     1       5.293  33.296  64.409  1.00  0.00     0.037 A 
HETATM   29  C   UNL     1       6.556  33.370  64.986  1.00  0.00     0.065 A 
HETATM   30  C   UNL     1       7.699  33.168  64.224  1.00  0.00     0.037 A 
HETATM   31  C   UNL     1       7.582  32.887  62.862  1.00  0.00     0.010 A 
BRANCH  29  32
HETATM   32  O   UNL     1       6.721  33.641  66.312  1.00  0.00    -0.361 OA
HETATM   33  H   UNL     1       7.542  34.147  66.435  1.00  0.00     0.217 HD
ENDBRANCH  29  32
ENDBRANCH  25  26
ENDBRANCH  23  25
ENDBRANCH   1  23
TORSDOF 9
ENDMDL
MODEL 9
REMARK VINA RESULT:      -8.2      1.913      3.263
REMARK  9 active torsions:
REMARK  status: ('A' for Active; 'I' for Inactive)
REMARK    1  A    between atoms: C_2  and  N_3 
REMARK    2  A    between atoms: C_2  and  C_23 
REMARK       I    between atoms: N_3  and  C_4 
REMARK       I    between atoms: C_4  and  N_5 
REMARK    3  A    between atoms: N_5  and  C_6 
REMARK    4  A    between atoms: C_6  and  C_7 
REMARK    5  A    between atoms: C_7  and  N_8 
REMARK    6  A    between atoms: C_7  and  C_14 
REMARK    7  A    between atoms: C_16  and  O_17 
REMARK    8  A    between atoms: C_23  and  C_24 
REMARK    9  A    between atoms: C_27  and  O_28 
ROOT
HETATM    1  N   UNL     1       6.661  26.504  54.574  1.00  0.00    -0.339 N 
HETATM    2  C   UNL     1       6.734  26.787  55.903  1.00  0.00     0.316 C 
HETATM    3  N   UNL     1       6.304  28.047  56.193  1.00  0.00    -0.341 N 
HETATM    4  O   UNL     1       7.120  26.029  56.784  1.00  0.00    -0.248 OA
HETATM    5  H   UNL     1       6.553  27.307  53.969  1.00  0.00     0.164 HD
HETATM    6  H   UNL     1       5.792  28.549  55.477  1.00  0.00     0.164 HD
ENDROOT
BRANCH   3   7
HETATM    7  C   UNL     1       6.492  28.682  57.492  1.00  0.00     0.162 C 
BRANCH   7   8
HETATM    8  C   UNL     1       7.384  29.963  57.525  1.00  0.00     0.238 C 
BRANCH   8   9
HETATM    9  N   UNL     1       8.813  29.644  57.951  1.00  0.00    -0.061 N 
HETATM   10  H   UNL     1       8.735  28.932  58.706  1.00  0.00     0.280 HD
HETATM   11  C   UNL     1       9.643  30.805  58.466  1.00  0.00     0.236 C 
HETATM   12  C   UNL     1      10.779  30.944  57.473  1.00  0.00     0.029 C 
HETATM   13  C   UNL     1      11.041  29.516  57.054  1.00  0.00     0.029 C 
HETATM   14  C   UNL     1       9.643  28.960  56.872  1.00  0.00     0.236 C 
ENDBRANCH   8   9
BRANCH   8  15
HETATM   15  C   UNL     1       6.687  31.065  58.309  1.00  0.00    -0.023 A 
HETATM   16  C   UNL     1       7.034  31.259  59.663  1.00  0.00     0.046 A 
HETATM   17  C   UNL     1       6.431  32.263  60.422  1.00  0.00     0.068 A 
HETATM   18  C   UNL     1       5.460  33.071  59.831  1.00  0.00     0.037 A 
HETATM   19  C   UNL     1       5.115  32.904  58.490  1.00  0.00     0.003 A 
HETATM   20  C   UNL     1       5.731  31.912  57.728  1.00  0.00     0.009 A 
BRANCH  17  21
HETATM   21  O   UNL     1       6.689  32.539  61.734  1.00  0.00    -0.356 OA
HETATM   22  C   UNL     1       5.995  31.774  62.712  1.00  0.00     0.210 C 
ENDBRANCH  17  21
ENDBRANCH   8  15
ENDBRANCH   7   8
ENDBRANCH   3   7
BRANCH   1  23
HETATM   23  C   UNL     1       7.388  25.401  53.931  1.00  0.00     0.086 C 
HETATM   24  C   UNL     1       8.077  25.801  52.627  1.00  0.00     0.032 C 
BRANCH  23  25
HETATM   25  C   UNL     1       6.483  24.164  53.725  1.00  0.00     0.063 C 
BRANCH  25  26
HETATM   26  C   UNL     1       7.199  22.867  54.038  1.00  0.00    -0.056 A 
HETATM   27  C   UNL     1       7.413  22.467  55.366  1.00  0.00     0.010 A 
HETATM   28  C   UNL     1       8.101  21.286  55.650  1.00  0.00     0.037 A 
HETATM   29  C   UNL     1       8.581  20.505  54.604  1.00  0.00     0.065 A 
HETATM   30  C   UNL     1       8.379  20.882  53.283  1.00  0.00     0.037 A 
HETATM   31  C   UNL     1       7.685  22.060  52.999  1.00  0.00     0.010 A 
BRANCH  29  32
HETATM   32  O   UNL     1       9.265  19.348  54.833  1.00  0.00    -0.361 OA
HETATM   33  H   UNL     1      10.048  19.540  55.375  1.00  0.00     0.217 HD
ENDBRANCH  29  32
ENDBRANCH  25  26
ENDBRANCH  23  25
ENDBRANCH   1  23
TORSDOF 9
ENDMDL
MODEL 10
REMARK VINA RESULT:      -8.1      2.541      3.327
REMARK  9 active torsions:
REMARK  status: ('A' for Active; 'I' for Inactive)
REMARK    1  A    between atoms: C_2  and  N_3 
REMARK    2  A    between atoms: C_2  and  C_23 
REMARK       I    between atoms: N_3  and  C_4 
REMARK       I    between atoms: C_4  and  N_5 
REMARK    3  A    between atoms: N_5  and  C_6 
REMARK    4  A    between atoms: C_6  and  C_7 
REMARK    5  A    between atoms: C_7  and  N_8 
REMARK    6  A    between atoms: C_7  and  C_14 
REMARK    7  A    between atoms: C_16  and  O_17 
REMARK    8  A    between atoms: C_23  and  C_24 
REMARK    9  A    between atoms: C_27  and  O_28 
ROOT
HETATM    1  N   UNL     1       5.939  25.885  53.754  1.00  0.00    -0.339 N 
HETATM    2  C   UNL     1       5.606  26.391  54.972  1.00  0.00     0.316 C 
HETATM    3  N   UNL     1       4.720  27.423  54.884  1.00  0.00    -0.341 N 
HETATM    4  O   UNL     1       6.013  25.994  56.057  1.00  0.00    -0.248 OA
HETATM    5  H   UNL     1       5.708  26.475  52.965  1.00  0.00     0.164 HD
HETATM    6  H   UNL     1       4.247  27.567  53.999  1.00  0.00     0.164 HD
ENDROOT
BRANCH   3   7
HETATM    7  C   UNL     1       4.380  28.288  56.007  1.00  0.00     0.162 C 
BRANCH   7   8
HETATM    8  C   UNL     1       5.068  29.689  56.049  1.00  0.00     0.238 C 
BRANCH   8   9
HETATM    9  N   UNL     1       4.859  30.461  54.751  1.00  0.00    -0.061 N 
HETATM   10  H   UNL     1       5.730  30.331  54.197  1.00  0.00     0.280 HD
HETATM   11  C   UNL     1       4.586  31.947  54.881  1.00  0.00     0.236 C 
HETATM   12  C   UNL     1       3.188  32.137  54.329  1.00  0.00     0.029 C 
HETATM   13  C   UNL     1       3.115  31.106  53.226  1.00  0.00     0.029 C 
HETATM   14  C   UNL     1       3.760  29.891  53.862  1.00  0.00     0.236 C 
ENDBRANCH   8   9
BRANCH   8  15
HETATM   15  C   UNL     1       6.510  29.549  56.515  1.00  0.00    -0.023 A 
HETATM   16  C   UNL     1       6.806  29.756  57.879  1.00  0.00     0.046 A 
HETATM   17  C   UNL     1       8.111  29.629  58.357  1.00  0.00     0.068 A 
HETATM   18  C   UNL     1       9.134  29.310  57.465  1.00  0.00     0.037 A 
HETATM   19  C   UNL     1       8.858  29.088  56.116  1.00  0.00     0.003 A 
HETATM   20  C   UNL     1       7.552  29.197  55.642  1.00  0.00     0.009 A 
BRANCH  17  21
HETATM   21  O   UNL     1       8.510  29.806  59.651  1.00  0.00    -0.356 OA
HETATM   22  C   UNL     1       9.308  30.948  59.940  1.00  0.00     0.210 C 
ENDBRANCH  17  21
ENDBRANCH   8  15
ENDBRANCH   7   8
ENDBRANCH   3   7
BRANCH   1  23
HETATM   23  C   UNL     1       7.124  25.050  53.510  1.00  0.00     0.086 C 
HETATM   24  C   UNL     1       8.075  25.628  52.464  1.00  0.00     0.032 C 
BRANCH  23  25
HETATM   25  C   UNL     1       6.734  23.594  53.165  1.00  0.00     0.063 C 
BRANCH  25  26
HETATM   26  C   UNL     1       7.556  22.580  53.932  1.00  0.00    -0.056 A 
HETATM   27  C   UNL     1       7.996  21.399  53.315  1.00  0.00     0.010 A 
HETATM   28  C   UNL     1       8.727  20.451  54.035  1.00  0.00     0.037 A 
HETATM   29  C   UNL     1       9.015  20.683  55.376  1.00  0.00     0.065 A 
HETATM   30  C   UNL     1       8.590  21.847  56.004  1.00  0.00     0.037 A 
HETATM   31  C   UNL     1       7.865  22.796  55.283  1.00  0.00     0.010 A 
BRANCH  29  32
HETATM   32  O   UNL     1       9.720  19.785  56.121  1.00  0.00    -0.361 OA
HETATM   33  H   UNL     1       9.477  19.884  57.056  1.00  0.00     0.217 HD
ENDBRANCH  29  32
ENDBRANCH  25  26
ENDBRANCH  23  25
ENDBRANCH   1  23
TORSDOF 9
ENDMDL
