MODEL 1
REMARK VINA RESULT:      -9.3      0.000      0.000
REMARK  4 active torsions:
REMARK  status: ('A' for Active; 'I' for Inactive)
REMARK    1  A    between atoms: C_2  and  C_3 
REMARK       I    between atoms: C_3  and  N_4 
REMARK    2  A    between atoms: N_4  and  C_5 
REMARK    3  A    between atoms: C_12  and  C_13 
REMARK       I    between atoms: C_13  and  N_14 
REMARK    4  A    between atoms: C_19  and  C_20 
ROOT
HETATM    1  C   UNL     1       5.533  25.581  52.312  1.00  0.00     0.036 A 
HETATM    2  C   UNL     1       5.471  25.781  50.926  1.00  0.00     0.046 A 
HETATM    3  C   UNL     1       4.851  26.943  50.417  1.00  0.00     0.030 A 
HETATM    4  C   UNL     1       4.332  27.872  51.310  1.00  0.00     0.063 A 
HETATM    5  N   UNL     1       3.822  28.875  50.535  1.00  0.00    -0.277 N 
HETATM    6  H   UNL     1       3.370  29.726  50.852  1.00  0.00     0.189 HD
HETATM    7  N   UNL     1       3.940  28.673  49.213  1.00  0.00    -0.168 NA
HETATM    8  C   UNL     1       4.570  27.479  49.124  1.00  0.00     0.156 A 
HETATM    9  C   UNL     1       4.377  27.706  52.696  1.00  0.00     0.034 A 
HETATM   10  C   UNL     1       4.977  26.535  53.175  1.00  0.00     0.032 A 
ENDROOT
BRANCH   1  11
HETATM   11  N   UNL     1       6.112  24.444  52.910  1.00  0.00    -0.323 N 
HETATM   12  C   UNL     1       7.442  24.085  52.908  1.00  0.00     0.251 C 
HETATM   13  O   UNL     1       8.396  24.720  52.479  1.00  0.00    -0.268 OA
HETATM   14  H   UNL     1       5.484  23.826  53.405  1.00  0.00     0.169 HD
BRANCH  12  15
HETATM   15  C   UNL     1       7.680  22.782  53.600  1.00  0.00     0.007 C 
HETATM   16  C   UNL     1       7.726  21.602  52.679  1.00  0.00     0.054 C 
HETATM   17  C   UNL     1       7.809  22.678  54.936  1.00  0.00     0.023 C 
BRANCH  17  18
HETATM   18  C   UNL     1       7.696  23.754  55.933  1.00  0.00    -0.034 A 
HETATM   19  C   UNL     1       6.477  24.431  56.065  1.00  0.00     0.035 A 
HETATM   20  C   UNL     1       6.354  25.481  56.977  1.00  0.00     0.034 A 
HETATM   21 CL   UNL     1       4.850  26.301  57.134  1.00  0.00    -0.084 Cl
HETATM   22  C   UNL     1       7.440  25.874  57.757  1.00  0.00     0.024 A 
HETATM   23  C   UNL     1       8.660  25.218  57.619  1.00  0.00     0.003 A 
HETATM   24  C   UNL     1       8.790  24.169  56.704  1.00  0.00     0.011 A 
ENDBRANCH  17  18
ENDBRANCH  12  15
ENDBRANCH   1  11
BRANCH   8  25
HETATM   25  C   UNL     1       4.873  26.877  47.817  1.00  0.00     0.270 C 
HETATM   26  N   UNL     1       5.987  27.389  47.212  1.00  0.00    -0.365 N 
HETATM   27  H   UNL     1       6.497  28.128  47.681  1.00  0.00     0.159 HD
HETATM   28  H   UNL     1       6.259  27.053  46.302  1.00  0.00     0.159 HD
HETATM   29  O   UNL     1       4.204  26.001  47.278  1.00  0.00    -0.266 OA
ENDBRANCH   8  25
TORSDOF 4
ENDMDL
MODEL 2
REMARK VINA RESULT:      -9.2      2.579      3.921
REMARK  4 active torsions:
REMARK  status: ('A' for Active; 'I' for Inactive)
REMARK    1  A    between atoms: C_2  and  C_3 
REMARK       I    between atoms: C_3  and  N_4 
REMARK    2  A    between atoms: N_4  and  C_5 
REMARK    3  A    between atoms: C_12  and  C_13 
REMARK       I    between atoms: C_13  and  N_14 
REMARK    4  A    between atoms: C_19  and  C_20 
ROOT
HETATM    1  C   UNL     1       6.505  25.952  53.370  1.00  0.00     0.036 A 
HETATM    2  C   UNL     1       6.327  27.205  52.767  1.00  0.00     0.046 A 
HETATM    3  C   UNL     1       5.518  27.315  51.615  1.00  0.00     0.030 A 
HETATM    4  C   UNL     1       4.901  26.174  51.118  1.00  0.00     0.063 A 
HETATM    5  N   UNL     1       4.186  26.592  50.030  1.00  0.00    -0.277 N 
HETATM    6  H   UNL     1       3.603  26.025  49.425  1.00  0.00     0.189 HD
HETATM    7  N   UNL     1       4.301  27.902  49.758  1.00  0.00    -0.168 NA
HETATM    8  C   UNL     1       5.126  28.362  50.726  1.00  0.00     0.156 A 
HETATM    9  C   UNL     1       5.055  24.911  51.693  1.00  0.00     0.034 A 
HETATM   10  C   UNL     1       5.879  24.825  52.821  1.00  0.00     0.032 A 
ENDROOT
BRANCH   1  11
HETATM   11  N   UNL     1       7.310  25.743  54.508  1.00  0.00    -0.323 N 
HETATM   12  C   UNL     1       6.900  25.335  55.758  1.00  0.00     0.251 C 
HETATM   13  O   UNL     1       5.784  24.980  56.108  1.00  0.00    -0.268 OA
HETATM   14  H   UNL     1       8.302  25.899  54.392  1.00  0.00     0.169 HD
BRANCH  12  15
HETATM   15  C   UNL     1       8.030  25.273  56.734  1.00  0.00     0.007 C 
HETATM   16  C   UNL     1       8.363  26.589  57.367  1.00  0.00     0.054 C 
HETATM   17  C   UNL     1       8.708  24.139  56.994  1.00  0.00     0.023 C 
BRANCH  17  18
HETATM   18  C   UNL     1       8.519  22.820  56.371  1.00  0.00    -0.034 A 
HETATM   19  C   UNL     1       8.504  22.728  54.973  1.00  0.00     0.035 A 
HETATM   20  C   UNL     1       8.289  21.494  54.355  1.00  0.00     0.034 A 
HETATM   21 CL   UNL     1       8.280  21.392  52.637  1.00  0.00    -0.084 Cl
HETATM   22  C   UNL     1       8.079  20.346  55.116  1.00  0.00     0.024 A 
HETATM   23  C   UNL     1       8.075  20.433  56.506  1.00  0.00     0.003 A 
HETATM   24  C   UNL     1       8.284  21.666  57.129  1.00  0.00     0.011 A 
ENDBRANCH  17  18
ENDBRANCH  12  15
ENDBRANCH   1  11
BRANCH   8  25
HETATM   25  C   UNL     1       5.529  29.775  50.771  1.00  0.00     0.270 C 
HETATM   26  N   UNL     1       4.992  30.475  51.817  1.00  0.00    -0.365 N 
HETATM   27  H   UNL     1       4.369  29.993  52.454  1.00  0.00     0.159 HD
HETATM   28  H   UNL     1       5.194  31.457  51.916  1.00  0.00     0.159 HD
HETATM   29  O   UNL     1       6.266  30.320  49.956  1.00  0.00    -0.266 OA
ENDBRANCH   8  25
TORSDOF 4
ENDMDL
MODEL 3
REMARK VINA RESULT:      -8.8      5.058      7.525
REMARK  4 active torsions:
REMARK  status: ('A' for Active; 'I' for Inactive)
REMARK    1  A    between atoms: C_2  and  C_3 
REMARK       I    between atoms: C_3  and  N_4 
REMARK    2  A    between atoms: N_4  and  C_5 
REMARK    3  A    between atoms: C_12  and  C_13 
REMARK       I    between atoms: C_13  and  N_14 
REMARK    4  A    between atoms: C_19  and  C_20 
ROOT
HETATM    1  C   UNL     1       7.060  28.597  56.342  1.00  0.00     0.036 A 
HETATM    2  C   UNL     1       6.610  29.694  57.090  1.00  0.00     0.046 A 
HETATM    3  C   UNL     1       7.524  30.409  57.895  1.00  0.00     0.030 A 
HETATM    4  C   UNL     1       8.856  30.016  57.909  1.00  0.00     0.063 A 
HETATM    5  N   UNL     1       9.484  30.891  58.750  1.00  0.00    -0.277 N 
HETATM    6  H   UNL     1      10.468  30.909  58.993  1.00  0.00     0.189 HD
HETATM    7  N   UNL     1       8.675  31.808  59.306  1.00  0.00    -0.168 NA
HETATM    8  C   UNL     1       7.458  31.519  58.791  1.00  0.00     0.156 A 
HETATM    9  C   UNL     1       9.339  28.930  57.176  1.00  0.00     0.034 A 
HETATM   10  C   UNL     1       8.409  28.223  56.403  1.00  0.00     0.032 A 
ENDROOT
BRANCH   1  11
HETATM   11  N   UNL     1       6.219  27.812  55.528  1.00  0.00    -0.323 N 
HETATM   12  C   UNL     1       6.409  27.478  54.206  1.00  0.00     0.251 C 
HETATM   13  O   UNL     1       7.383  27.707  53.501  1.00  0.00    -0.268 OA
HETATM   14  H   UNL     1       5.386  27.442  55.967  1.00  0.00     0.169 HD
BRANCH  12  15
HETATM   15  C   UNL     1       5.278  26.672  53.654  1.00  0.00     0.007 C 
HETATM   16  C   UNL     1       4.050  27.474  53.350  1.00  0.00     0.054 C 
HETATM   17  C   UNL     1       5.349  25.339  53.478  1.00  0.00     0.023 C 
BRANCH  17  18
HETATM   18  C   UNL     1       6.470  24.449  53.821  1.00  0.00    -0.034 A 
HETATM   19  C   UNL     1       6.807  24.273  55.169  1.00  0.00     0.035 A 
HETATM   20  C   UNL     1       7.889  23.463  55.520  1.00  0.00     0.034 A 
HETATM   21 CL   UNL     1       8.289  23.249  57.180  1.00  0.00    -0.084 Cl
HETATM   22  C   UNL     1       8.651  22.832  54.539  1.00  0.00     0.024 A 
HETATM   23  C   UNL     1       8.332  23.017  53.196  1.00  0.00     0.003 A 
HETATM   24  C   UNL     1       7.254  23.830  52.839  1.00  0.00     0.011 A 
ENDBRANCH  17  18
ENDBRANCH  12  15
ENDBRANCH   1  11
BRANCH   8  25
HETATM   25  C   UNL     1       6.269  32.294  59.174  1.00  0.00     0.270 C 
HETATM   26  N   UNL     1       5.797  32.010  60.426  1.00  0.00    -0.365 N 
HETATM   27  H   UNL     1       6.273  31.302  60.974  1.00  0.00     0.159 HD
HETATM   28  H   UNL     1       4.971  32.476  60.766  1.00  0.00     0.159 HD
HETATM   29  O   UNL     1       5.712  33.121  58.460  1.00  0.00    -0.266 OA
ENDBRANCH   8  25
TORSDOF 4
ENDMDL
MODEL 4
REMARK VINA RESULT:      -8.8      1.630      1.999
REMARK  4 active torsions:
REMARK  status: ('A' for Active; 'I' for Inactive)
REMARK    1  A    between atoms: C_2  and  C_3 
REMARK       I    between atoms: C_3  and  N_4 
REMARK    2  A    between atoms: N_4  and  C_5 
REMARK    3  A    between atoms: C_12  and  C_13 
REMARK       I    between atoms: C_13  and  N_14 
REMARK    4  A    between atoms: C_19  and  C_20 
ROOT
HETATM    1  C   UNL     1       5.584  26.055  51.806  1.00  0.00     0.036 A 
HETATM    2  C   UNL     1       4.918  25.764  50.607  1.00  0.00     0.046 A 
HETATM    3  C   UNL     1       4.463  26.820  49.789  1.00  0.00     0.030 A 
HETATM    4  C   UNL     1       4.706  28.129  50.186  1.00  0.00     0.063 A 
HETATM    5  N   UNL     1       4.173  28.913  49.202  1.00  0.00    -0.277 N 
HETATM    6  H   UNL     1       4.174  29.926  49.156  1.00  0.00     0.189 HD
HETATM    7  N   UNL     1       3.582  28.232  48.207  1.00  0.00    -0.168 NA
HETATM    8  C   UNL     1       3.748  26.936  48.558  1.00  0.00     0.156 A 
HETATM    9  C   UNL     1       5.367  28.456  51.372  1.00  0.00     0.034 A 
HETATM   10  C   UNL     1       5.788  27.390  52.177  1.00  0.00     0.032 A 
ENDROOT
BRANCH   1  11
HETATM   11  N   UNL     1       6.054  25.068  52.695  1.00  0.00    -0.323 N 
HETATM   12  C   UNL     1       7.347  24.614  52.833  1.00  0.00     0.251 C 
HETATM   13  O   UNL     1       8.358  25.037  52.290  1.00  0.00    -0.268 OA
HETATM   14  H   UNL     1       5.367  24.652  53.310  1.00  0.00     0.169 HD
BRANCH  12  15
HETATM   15  C   UNL     1       7.461  23.520  53.844  1.00  0.00     0.007 C 
HETATM   16  C   UNL     1       7.776  22.178  53.257  1.00  0.00     0.054 C 
HETATM   17  C   UNL     1       7.265  23.719  55.161  1.00  0.00     0.023 C 
BRANCH  17  18
HETATM   18  C   UNL     1       6.872  24.970  55.828  1.00  0.00    -0.034 A 
HETATM   19  C   UNL     1       7.867  25.892  56.179  1.00  0.00     0.035 A 
HETATM   20  C   UNL     1       7.526  27.070  56.847  1.00  0.00     0.034 A 
HETATM   21 CL   UNL     1       8.755  28.197  57.267  1.00  0.00    -0.084 Cl
HETATM   22  C   UNL     1       6.200  27.338  57.180  1.00  0.00     0.024 A 
HETATM   23  C   UNL     1       5.207  26.418  56.850  1.00  0.00     0.003 A 
HETATM   24  C   UNL     1       5.544  25.235  56.187  1.00  0.00     0.011 A 
ENDBRANCH  17  18
ENDBRANCH  12  15
ENDBRANCH   1  11
BRANCH   8  25
HETATM   25  C   UNL     1       3.212  25.850  47.725  1.00  0.00     0.270 C 
HETATM   26  N   UNL     1       2.795  24.757  48.435  1.00  0.00    -0.365 N 
HETATM   27  H   UNL     1       2.895  24.767  49.443  1.00  0.00     0.159 HD
HETATM   28  H   UNL     1       2.435  23.953  47.946  1.00  0.00     0.159 HD
HETATM   29  O   UNL     1       3.140  25.877  46.501  1.00  0.00    -0.266 OA
ENDBRANCH   8  25
TORSDOF 4
ENDMDL
MODEL 5
REMARK VINA RESULT:      -8.7      4.898      6.765
REMARK  4 active torsions:
REMARK  status: ('A' for Active; 'I' for Inactive)
REMARK    1  A    between atoms: C_2  and  C_3 
REMARK       I    between atoms: C_3  and  N_4 
REMARK    2  A    between atoms: N_4  and  C_5 
REMARK    3  A    between atoms: C_12  and  C_13 
REMARK       I    between atoms: C_13  and  N_14 
REMARK    4  A    between atoms: C_19  and  C_20 
ROOT
HETATM    1  C   UNL     1       7.276  28.657  55.425  1.00  0.00     0.036 A 
HETATM    2  C   UNL     1       7.413  27.502  54.643  1.00  0.00     0.046 A 
HETATM    3  C   UNL     1       6.266  26.906  54.076  1.00  0.00     0.030 A 
HETATM    4  C   UNL     1       5.027  27.494  54.294  1.00  0.00     0.063 A 
HETATM    5  N   UNL     1       4.130  26.714  53.619  1.00  0.00    -0.277 N 
HETATM    6  H   UNL     1       3.128  26.851  53.550  1.00  0.00     0.189 HD
HETATM    7  N   UNL     1       4.671  25.654  52.998  1.00  0.00    -0.168 NA
HETATM    8  C   UNL     1       5.991  25.755  53.276  1.00  0.00     0.156 A 
HETATM    9  C   UNL     1       4.854  28.645  55.066  1.00  0.00     0.034 A 
HETATM   10  C   UNL     1       6.004  29.204  55.636  1.00  0.00     0.032 A 
ENDROOT
BRANCH   1  11
HETATM   11  N   UNL     1       8.360  29.309  56.048  1.00  0.00    -0.323 N 
HETATM   12  C   UNL     1       8.727  29.241  57.374  1.00  0.00     0.251 C 
HETATM   13  O   UNL     1       8.254  28.535  58.253  1.00  0.00    -0.268 OA
HETATM   14  H   UNL     1       8.942  29.882  55.452  1.00  0.00     0.169 HD
BRANCH  12  15
HETATM   15  C   UNL     1       9.902  30.110  57.684  1.00  0.00     0.007 C 
HETATM   16  C   UNL     1      11.161  29.708  56.980  1.00  0.00     0.054 C 
HETATM   17  C   UNL     1       9.839  31.143  58.545  1.00  0.00     0.023 C 
BRANCH  17  18
HETATM   18  C   UNL     1       8.682  31.570  59.348  1.00  0.00    -0.034 A 
HETATM   19  C   UNL     1       8.849  31.767  60.725  1.00  0.00     0.035 A 
HETATM   20  C   UNL     1       7.760  32.136  61.517  1.00  0.00     0.034 A 
HETATM   21 CL   UNL     1       7.979  32.382  63.206  1.00  0.00    -0.084 Cl
HETATM   22  C   UNL     1       6.496  32.302  60.953  1.00  0.00     0.024 A 
HETATM   23  C   UNL     1       6.319  32.089  59.588  1.00  0.00     0.003 A 
HETATM   24  C   UNL     1       7.405  31.715  58.792  1.00  0.00     0.011 A 
ENDBRANCH  17  18
ENDBRANCH  12  15
ENDBRANCH   1  11
BRANCH   8  25
HETATM   25  C   UNL     1       6.948  24.752  52.787  1.00  0.00     0.270 C 
HETATM   26  N   UNL     1       6.979  23.603  53.529  1.00  0.00    -0.365 N 
HETATM   27  H   UNL     1       6.375  23.533  54.339  1.00  0.00     0.159 HD
HETATM   28  H   UNL     1       7.622  22.868  53.283  1.00  0.00     0.159 HD
HETATM   29  O   UNL     1       7.680  24.898  51.815  1.00  0.00    -0.266 OA
ENDBRANCH   8  25
TORSDOF 4
ENDMDL
MODEL 6
REMARK VINA RESULT:      -8.6     11.168     14.008
REMARK  4 active torsions:
REMARK  status: ('A' for Active; 'I' for Inactive)
REMARK    1  A    between atoms: C_2  and  C_3 
REMARK       I    between atoms: C_3  and  N_4 
REMARK    2  A    between atoms: N_4  and  C_5 
REMARK    3  A    between atoms: C_12  and  C_13 
REMARK       I    between atoms: C_13  and  N_14 
REMARK    4  A    between atoms: C_19  and  C_20 
ROOT
HETATM    1  C   UNL     1       6.855  33.333  63.204  1.00  0.00     0.036 A 
HETATM    2  C   UNL     1       6.287  33.138  61.937  1.00  0.00     0.046 A 
HETATM    3  C   UNL     1       6.904  32.254  61.026  1.00  0.00     0.030 A 
HETATM    4  C   UNL     1       8.055  31.582  61.419  1.00  0.00     0.063 A 
HETATM    5  N   UNL     1       8.403  30.803  60.351  1.00  0.00    -0.277 N 
HETATM    6  H   UNL     1       9.191  30.168  60.286  1.00  0.00     0.189 HD
HETATM    7  N   UNL     1       7.594  30.924  59.286  1.00  0.00    -0.168 NA
HETATM    8  C   UNL     1       6.666  31.823  59.685  1.00  0.00     0.156 A 
HETATM    9  C   UNL     1       8.646  31.750  62.672  1.00  0.00     0.034 A 
HETATM   10  C   UNL     1       8.028  32.649  63.550  1.00  0.00     0.032 A 
ENDROOT
BRANCH   1  11
HETATM   11  N   UNL     1       6.322  34.210  64.170  1.00  0.00    -0.323 N 
HETATM   12  C   UNL     1       5.173  34.040  64.910  1.00  0.00     0.251 C 
HETATM   13  O   UNL     1       4.440  33.061  64.954  1.00  0.00    -0.268 OA
HETATM   14  H   UNL     1       6.847  35.055  64.349  1.00  0.00     0.169 HD
BRANCH  12  15
HETATM   15  C   UNL     1       4.892  35.206  65.801  1.00  0.00     0.007 C 
HETATM   16  C   UNL     1       4.823  34.859  67.257  1.00  0.00     0.054 C 
HETATM   17  C   UNL     1       4.688  36.451  65.332  1.00  0.00     0.023 C 
BRANCH  17  18
HETATM   18  C   UNL     1       4.650  36.882  63.926  1.00  0.00    -0.034 A 
HETATM   19  C   UNL     1       5.773  37.521  63.382  1.00  0.00     0.035 A 
HETATM   20  C   UNL     1       5.750  37.974  62.062  1.00  0.00     0.034 A 
HETATM   21 CL   UNL     1       7.138  38.750  61.404  1.00  0.00    -0.084 Cl
HETATM   22  C   UNL     1       4.614  37.807  61.273  1.00  0.00     0.024 A 
HETATM   23  C   UNL     1       3.488  37.189  61.812  1.00  0.00     0.003 A 
HETATM   24  C   UNL     1       3.503  36.739  63.135  1.00  0.00     0.011 A 
ENDBRANCH  17  18
ENDBRANCH  12  15
ENDBRANCH   1  11
BRANCH   8  25
HETATM   25  C   UNL     1       5.590  32.256  58.781  1.00  0.00     0.270 C 
HETATM   26  N   UNL     1       4.386  31.652  59.018  1.00  0.00    -0.365 N 
HETATM   27  H   UNL     1       4.325  30.966  59.761  1.00  0.00     0.159 HD
HETATM   28  H   UNL     1       3.595  31.870  58.433  1.00  0.00     0.159 HD
HETATM   29  O   UNL     1       5.723  33.072  57.875  1.00  0.00    -0.266 OA
ENDBRANCH   8  25
TORSDOF 4
ENDMDL
MODEL 7
REMARK VINA RESULT:      -8.5      3.457      7.790
REMARK  4 active torsions:
REMARK  status: ('A' for Active; 'I' for Inactive)
REMARK    1  A    between atoms: C_2  and  C_3 
REMARK       I    between atoms: C_3  and  N_4 
REMARK    2  A    between atoms: N_4  and  C_5 
REMARK    3  A    between atoms: C_12  and  C_13 
REMARK       I    between atoms: C_13  and  N_14 
REMARK    4  A    between atoms: C_19  and  C_20 
ROOT
HETATM    1  C   UNL     1       6.519  25.243  53.761  1.00  0.00     0.036 A 
HETATM    2  C   UNL     1       6.971  24.552  54.893  1.00  0.00     0.046 A 
HETATM    3  C   UNL     1       7.845  23.454  54.736  1.00  0.00     0.030 A 
HETATM    4  C   UNL     1       8.250  23.098  53.456  1.00  0.00     0.063 A 
HETATM    5  N   UNL     1       9.087  22.031  53.623  1.00  0.00    -0.277 N 
HETATM    6  H   UNL     1       9.578  21.516  52.900  1.00  0.00     0.189 HD
HETATM    7  N   UNL     1       9.248  21.643  54.899  1.00  0.00    -0.168 NA
HETATM    8  C   UNL     1       8.480  22.510  55.599  1.00  0.00     0.156 A 
HETATM    9  C   UNL     1       7.820  23.764  52.306  1.00  0.00     0.034 A 
HETATM   10  C   UNL     1       6.937  24.835  52.487  1.00  0.00     0.032 A 
ENDROOT
BRANCH   1  11
HETATM   11  N   UNL     1       5.631  26.336  53.819  1.00  0.00    -0.323 N 
HETATM   12  C   UNL     1       5.953  27.671  53.932  1.00  0.00     0.251 C 
HETATM   13  O   UNL     1       7.063  28.184  53.907  1.00  0.00    -0.268 OA
HETATM   14  H   UNL     1       4.645  26.119  53.760  1.00  0.00     0.169 HD
BRANCH  12  15
HETATM   15  C   UNL     1       4.743  28.543  54.018  1.00  0.00     0.007 C 
HETATM   16  C   UNL     1       4.170  28.658  55.397  1.00  0.00     0.054 C 
HETATM   17  C   UNL     1       4.200  29.144  52.943  1.00  0.00     0.023 C 
BRANCH  17  18
HETATM   18  C   UNL     1       4.630  29.031  51.540  1.00  0.00    -0.034 A 
HETATM   19  C   UNL     1       4.301  27.874  50.822  1.00  0.00     0.035 A 
HETATM   20  C   UNL     1       4.730  27.725  49.501  1.00  0.00     0.034 A 
HETATM   21 CL   UNL     1       4.313  26.302  48.627  1.00  0.00    -0.084 Cl
HETATM   22  C   UNL     1       5.494  28.714  48.887  1.00  0.00     0.024 A 
HETATM   23  C   UNL     1       5.840  29.859  49.600  1.00  0.00     0.003 A 
HETATM   24  C   UNL     1       5.419  30.012  50.924  1.00  0.00     0.011 A 
ENDBRANCH  17  18
ENDBRANCH  12  15
ENDBRANCH   1  11
BRANCH   8  25
HETATM   25  C   UNL     1       8.362  22.410  57.061  1.00  0.00     0.270 C 
HETATM   26  N   UNL     1       8.376  23.616  57.706  1.00  0.00    -0.365 N 
HETATM   27  H   UNL     1       8.476  24.459  57.154  1.00  0.00     0.159 HD
HETATM   28  H   UNL     1       8.323  23.644  58.712  1.00  0.00     0.159 HD
HETATM   29  O   UNL     1       8.272  21.358  57.685  1.00  0.00    -0.266 OA
ENDBRANCH   8  25
TORSDOF 4
ENDMDL
MODEL 8
REMARK VINA RESULT:      -8.5      4.153      5.950
REMARK  4 active torsions:
REMARK  status: ('A' for Active; 'I' for Inactive)
REMARK    1  A    between atoms: C_2  and  C_3 
REMARK       I    between atoms: C_3  and  N_4 
REMARK    2  A    between atoms: N_4  and  C_5 
REMARK    3  A    between atoms: C_12  and  C_13 
REMARK       I    between atoms: C_13  and  N_14 
REMARK    4  A    between atoms: C_19  and  C_20 
ROOT
HETATM    1  C   UNL     1       7.072  27.736  55.395  1.00  0.00     0.036 A 
HETATM    2  C   UNL     1       6.286  28.895  55.339  1.00  0.00     0.046 A 
HETATM    3  C   UNL     1       6.201  29.734  56.471  1.00  0.00     0.030 A 
HETATM    4  C   UNL     1       6.919  29.396  57.611  1.00  0.00     0.063 A 
HETATM    5  N   UNL     1       6.655  30.387  58.514  1.00  0.00    -0.277 N 
HETATM    6  H   UNL     1       7.019  30.471  59.457  1.00  0.00     0.189 HD
HETATM    7  N   UNL     1       5.808  31.332  58.073  1.00  0.00    -0.168 NA
HETATM    8  C   UNL     1       5.514  30.939  56.813  1.00  0.00     0.156 A 
HETATM    9  C   UNL     1       7.713  28.251  57.702  1.00  0.00     0.034 A 
HETATM   10  C   UNL     1       7.762  27.424  56.573  1.00  0.00     0.032 A 
ENDROOT
BRANCH   1  11
HETATM   11  N   UNL     1       7.199  26.829  54.323  1.00  0.00    -0.323 N 
HETATM   12  C   UNL     1       6.318  25.835  53.959  1.00  0.00     0.251 C 
HETATM   13  O   UNL     1       5.211  25.600  54.424  1.00  0.00    -0.268 OA
HETATM   14  H   UNL     1       8.026  26.926  53.748  1.00  0.00     0.169 HD
BRANCH  12  15
HETATM   15  C   UNL     1       6.812  25.034  52.799  1.00  0.00     0.007 C 
HETATM   16  C   UNL     1       6.485  25.629  51.464  1.00  0.00     0.054 C 
HETATM   17  C   UNL     1       7.464  23.865  52.944  1.00  0.00     0.023 C 
BRANCH  17  18
HETATM   18  C   UNL     1       7.760  23.154  54.197  1.00  0.00    -0.034 A 
HETATM   19  C   UNL     1       8.200  23.890  55.306  1.00  0.00     0.035 A 
HETATM   20  C   UNL     1       8.524  23.237  56.496  1.00  0.00     0.034 A 
HETATM   21 CL   UNL     1       9.056  24.152  57.852  1.00  0.00    -0.084 Cl
HETATM   22  C   UNL     1       8.424  21.851  56.595  1.00  0.00     0.024 A 
HETATM   23  C   UNL     1       8.005  21.110  55.492  1.00  0.00     0.003 A 
HETATM   24  C   UNL     1       7.685  21.759  54.296  1.00  0.00     0.011 A 
ENDBRANCH  17  18
ENDBRANCH  12  15
ENDBRANCH   1  11
BRANCH   8  25
HETATM   25  C   UNL     1       4.581  31.708  55.976  1.00  0.00     0.270 C 
HETATM   26  N   UNL     1       3.291  31.254  56.016  1.00  0.00    -0.365 N 
HETATM   27  H   UNL     1       3.081  30.443  56.586  1.00  0.00     0.159 HD
HETATM   28  H   UNL     1       2.586  31.705  55.456  1.00  0.00     0.159 HD
HETATM   29  O   UNL     1       4.894  32.668  55.280  1.00  0.00    -0.266 OA
ENDBRANCH   8  25
TORSDOF 4
ENDMDL
MODEL 9
REMARK VINA RESULT:      -8.4      7.478     10.237
REMARK  4 active torsions:
REMARK  status: ('A' for Active; 'I' for Inactive)
REMARK    1  A    between atoms: C_2  and  C_3 
REMARK       I    between atoms: C_3  and  N_4 
REMARK    2  A    between atoms: N_4  and  C_5 
REMARK    3  A    between atoms: C_12  and  C_13 
REMARK       I    between atoms: C_13  and  N_14 
REMARK    4  A    between atoms: C_19  and  C_20 
ROOT
HETATM    1  C   UNL     1       8.359  31.366  59.795  1.00  0.00     0.036 A 
HETATM    2  C   UNL     1       7.032  31.640  60.154  1.00  0.00     0.046 A 
HETATM    3  C   UNL     1       6.745  32.103  61.457  1.00  0.00     0.030 A 
HETATM    4  C   UNL     1       7.794  32.294  62.347  1.00  0.00     0.063 A 
HETATM    5  N   UNL     1       7.216  32.753  63.497  1.00  0.00    -0.277 N 
HETATM    6  H   UNL     1       7.684  33.007  64.360  1.00  0.00     0.189 HD
HETATM    7  N   UNL     1       5.879  32.856  63.445  1.00  0.00    -0.168 NA
HETATM    8  C   UNL     1       5.571  32.452  62.191  1.00  0.00     0.156 A 
HETATM    9  C   UNL     1       9.127  32.033  62.022  1.00  0.00     0.034 A 
HETATM   10  C   UNL     1       9.383  31.554  60.732  1.00  0.00     0.032 A 
ENDROOT
BRANCH   1  11
HETATM   11  N   UNL     1       8.738  30.881  58.526  1.00  0.00    -0.323 N 
HETATM   12  C   UNL     1       8.678  29.581  58.076  1.00  0.00     0.251 C 
HETATM   13  O   UNL     1       8.199  28.607  58.640  1.00  0.00    -0.268 OA
HETATM   14  H   UNL     1       9.082  31.567  57.868  1.00  0.00     0.169 HD
BRANCH  12  15
HETATM   15  C   UNL     1       9.216  29.434  56.690  1.00  0.00     0.007 C 
HETATM   16  C   UNL     1      10.669  29.774  56.560  1.00  0.00     0.054 C 
HETATM   17  C   UNL     1       8.452  29.062  55.646  1.00  0.00     0.023 C 
BRANCH  17  18
HETATM   18  C   UNL     1       7.006  28.789  55.647  1.00  0.00    -0.034 A 
HETATM   19  C   UNL     1       6.114  29.861  55.781  1.00  0.00     0.035 A 
HETATM   20  C   UNL     1       4.738  29.626  55.823  1.00  0.00     0.034 A 
HETATM   21 CL   UNL     1       3.653  30.952  55.980  1.00  0.00    -0.084 Cl
HETATM   22  C   UNL     1       4.237  28.329  55.743  1.00  0.00     0.024 A 
HETATM   23  C   UNL     1       5.118  27.256  55.628  1.00  0.00     0.003 A 
HETATM   24  C   UNL     1       6.496  27.485  55.591  1.00  0.00     0.011 A 
ENDBRANCH  17  18
ENDBRANCH  12  15
ENDBRANCH   1  11
BRANCH   8  25
HETATM   25  C   UNL     1       4.176  32.396  61.733  1.00  0.00     0.270 C 
HETATM   26  N   UNL     1       3.492  31.290  62.158  1.00  0.00    -0.365 N 
HETATM   27  H   UNL     1       3.981  30.607  62.725  1.00  0.00     0.159 HD
HETATM   28  H   UNL     1       2.536  31.154  61.873  1.00  0.00     0.159 HD
HETATM   29  O   UNL     1       3.638  33.238  61.021  1.00  0.00    -0.266 OA
ENDBRANCH   8  25
TORSDOF 4
ENDMDL
MODEL 10
REMARK VINA RESULT:      -8.4      2.285      3.566
REMARK  4 active torsions:
REMARK  status: ('A' for Active; 'I' for Inactive)
REMARK    1  A    between atoms: C_2  and  C_3 
REMARK       I    between atoms: C_3  and  N_4 
REMARK    2  A    between atoms: N_4  and  C_5 
REMARK    3  A    between atoms: C_12  and  C_13 
REMARK       I    between atoms: C_13  and  N_14 
REMARK    4  A    between atoms: C_19  and  C_20 
ROOT
HETATM    1  C   UNL     1       4.955  28.208  52.408  1.00  0.00     0.036 A 
HETATM    2  C   UNL     1       4.891  27.536  51.179  1.00  0.00     0.046 A 
HETATM    3  C   UNL     1       3.930  27.926  50.222  1.00  0.00     0.030 A 
HETATM    4  C   UNL     1       3.080  28.984  50.517  1.00  0.00     0.063 A 
HETATM    5  N   UNL     1       2.288  29.133  49.413  1.00  0.00    -0.277 N 
HETATM    6  H   UNL     1       1.555  29.819  49.272  1.00  0.00     0.189 HD
HETATM    7  N   UNL     1       2.530  28.250  48.430  1.00  0.00    -0.168 NA
HETATM    8  C   UNL     1       3.539  27.492  48.918  1.00  0.00     0.156 A 
HETATM    9  C   UNL     1       3.116  29.676  51.729  1.00  0.00     0.034 A 
HETATM   10  C   UNL     1       4.063  29.257  52.671  1.00  0.00     0.032 A 
ENDROOT
BRANCH   1  11
HETATM   11  N   UNL     1       5.866  27.877  53.431  1.00  0.00    -0.323 N 
HETATM   12  C   UNL     1       5.804  26.802  54.291  1.00  0.00     0.251 C 
HETATM   13  O   UNL     1       5.009  25.872  54.281  1.00  0.00    -0.268 OA
HETATM   14  H   UNL     1       6.663  28.490  53.540  1.00  0.00     0.169 HD
BRANCH  12  15
HETATM   15  C   UNL     1       6.920  26.802  55.283  1.00  0.00     0.007 C 
HETATM   16  C   UNL     1       7.066  28.088  56.038  1.00  0.00     0.054 C 
HETATM   17  C   UNL     1       7.742  25.750  55.457  1.00  0.00     0.023 C 
BRANCH  17  18
HETATM   18  C   UNL     1       7.740  24.480  54.714  1.00  0.00    -0.034 A 
HETATM   19  C   UNL     1       7.645  23.278  55.427  1.00  0.00     0.035 A 
HETATM   20  C   UNL     1       7.678  22.057  54.749  1.00  0.00     0.034 A 
HETATM   21 CL   UNL     1       7.553  20.588  55.636  1.00  0.00    -0.084 Cl
HETATM   22  C   UNL     1       7.815  22.018  53.364  1.00  0.00     0.024 A 
HETATM   23  C   UNL     1       7.928  23.209  52.649  1.00  0.00     0.003 A 
HETATM   24  C   UNL     1       7.901  24.433  53.323  1.00  0.00     0.011 A 
ENDBRANCH  17  18
ENDBRANCH  12  15
ENDBRANCH   1  11
BRANCH   8  25
HETATM   25  C   UNL     1       4.093  26.374  48.141  1.00  0.00     0.270 C 
HETATM   26  N   UNL     1       3.403  25.201  48.282  1.00  0.00    -0.365 N 
HETATM   27  H   UNL     1       2.600  25.183  48.899  1.00  0.00     0.159 HD
HETATM   28  H   UNL     1       3.723  24.374  47.805  1.00  0.00     0.159 HD
HETATM   29  O   UNL     1       5.089  26.442  47.428  1.00  0.00    -0.266 OA
ENDBRANCH   8  25
TORSDOF 4
ENDMDL
