MODEL 1
REMARK VINA RESULT:     -10.0      0.000      0.000
REMARK  6 active torsions:
REMARK  status: ('A' for Active; 'I' for Inactive)
REMARK    1  A    between atoms: C_4  and  C_5 
REMARK    2  A    between atoms: C_5  and  O_6 
REMARK    3  A    between atoms: O_6  and  C_7 
REMARK    4  A    between atoms: C_10  and  C_11 
REMARK    5  A    between atoms: C_17  and  C_18 
REMARK    6  A    between atoms: C_26  and  N_27 
ROOT
HETATM    1  C   UNL     1       9.062  28.818  57.061  1.00  0.00     0.072 A 
HETATM    2  N   UNL     1      10.347  29.127  56.660  1.00  0.00    -0.274 N 
HETATM    3  H   UNL     1      10.931  28.612  56.009  1.00  0.00     0.189 HD
HETATM    4  N   UNL     1      10.853  30.239  57.229  1.00  0.00    -0.148 NA
HETATM    5  C   UNL     1       9.863  30.628  58.019  1.00  0.00     0.199 A 
HETATM    6  C   UNL     1       8.730  29.816  57.962  1.00  0.00     0.040 A 
HETATM    7  C   UNL     1       7.514  30.144  58.760  1.00  0.00     0.108 A 
HETATM    8  C   UNL     1       7.787  31.332  59.684  1.00  0.00     0.081 A 
HETATM    9  C   UNL     1       6.772  31.647  60.636  1.00  0.00     0.100 C 
HETATM   10  N   UNL     1       5.943  31.899  61.407  1.00  0.00    -0.191 NA
HETATM   11  C   UNL     1       8.948  32.039  59.660  1.00  0.00     0.140 A 
HETATM   12  O   UNL     1       9.996  31.726  58.783  1.00  0.00    -0.277 OA
ENDROOT
BRANCH   7  13
HETATM   13  C   UNL     1       6.325  30.398  57.872  1.00  0.00    -0.020 A 
HETATM   14  C   UNL     1       5.973  31.576  57.237  1.00  0.00     0.149 A 
HETATM   15  O   UNL     1       4.828  31.421  56.525  1.00  0.00    -0.334 OA
HETATM   16  C   UNL     1       4.431  30.136  56.693  1.00  0.00     0.142 A 
HETATM   17  C   UNL     1       5.310  29.464  57.507  1.00  0.00     0.034 A 
ENDBRANCH   7  13
BRANCH  11  18
HETATM   18  N   UNL     1       9.242  33.113  60.472  1.00  0.00    -0.282 NA
HETATM   19  H   UNL     1       8.950  33.028  61.443  1.00  0.00     0.126 HD
HETATM   20  H   UNL     1       8.969  33.998  60.049  1.00  0.00     0.126 HD
ENDBRANCH  11  18
BRANCH   1  21
HETATM   21  C   UNL     1       8.323  27.669  56.554  1.00  0.00    -0.007 A 
HETATM   22  C   UNL     1       7.750  27.698  55.279  1.00  0.00     0.016 A 
HETATM   23  C   UNL     1       7.077  26.580  54.779  1.00  0.00     0.037 A 
HETATM   24  C   UNL     1       6.965  25.416  55.540  1.00  0.00     0.069 A 
HETATM   25  C   UNL     1       7.506  25.390  56.825  1.00  0.00     0.037 A 
HETATM   26  C   UNL     1       8.185  26.508  57.325  1.00  0.00     0.016 A 
BRANCH  24  27
HETATM   27  O   UNL     1       6.310  24.389  54.920  1.00  0.00    -0.347 OA
BRANCH  27  28
HETATM   28  C   UNL     1       6.890  23.881  53.717  1.00  0.00     0.214 C 
BRANCH  28  29
HETATM   29  C   UNL     1       7.549  22.549  53.987  1.00  0.00    -0.034 A 
HETATM   30  C   UNL     1       7.632  22.059  55.300  1.00  0.00     0.009 A 
HETATM   31  C   UNL     1       8.222  20.820  55.561  1.00  0.00     0.001 A 
HETATM   32  C   UNL     1       8.725  20.053  54.514  1.00  0.00     0.000 A 
HETATM   33  C   UNL     1       8.636  20.519  53.204  1.00  0.00     0.001 A 
HETATM   34  C   UNL     1       8.046  21.757  52.941  1.00  0.00     0.009 A 
ENDBRANCH  28  29
ENDBRANCH  27  28
ENDBRANCH  24  27
ENDBRANCH   1  21
TORSDOF 6
ENDMDL
MODEL 2
REMARK VINA RESULT:      -9.5      1.496      2.177
REMARK  6 active torsions:
REMARK  status: ('A' for Active; 'I' for Inactive)
REMARK    1  A    between atoms: C_4  and  C_5 
REMARK    2  A    between atoms: C_5  and  O_6 
REMARK    3  A    between atoms: O_6  and  C_7 
REMARK    4  A    between atoms: C_10  and  C_11 
REMARK    5  A    between atoms: C_17  and  C_18 
REMARK    6  A    between atoms: C_26  and  N_27 
ROOT
HETATM    1  C   UNL     1       8.009  29.588  57.437  1.00  0.00     0.072 A 
HETATM    2  N   UNL     1       9.281  30.001  57.781  1.00  0.00    -0.274 N 
HETATM    3  H   UNL     1      10.162  29.582  57.502  1.00  0.00     0.189 HD
HETATM    4  N   UNL     1       9.314  31.078  58.591  1.00  0.00    -0.148 NA
HETATM    5  C   UNL     1       8.027  31.338  58.769  1.00  0.00     0.199 A 
HETATM    6  C   UNL     1       7.167  30.476  58.087  1.00  0.00     0.040 A 
HETATM    7  C   UNL     1       5.690  30.662  58.151  1.00  0.00     0.108 A 
HETATM    8  C   UNL     1       5.335  31.769  59.146  1.00  0.00     0.081 A 
HETATM    9  C   UNL     1       3.950  31.937  59.445  1.00  0.00     0.100 C 
HETATM   10  N   UNL     1       2.823  32.070  59.684  1.00  0.00    -0.191 NA
HETATM   11  C   UNL     1       6.270  32.534  59.768  1.00  0.00     0.140 A 
HETATM   12  O   UNL     1       7.643  32.362  59.550  1.00  0.00    -0.277 OA
ENDROOT
BRANCH   7  13
HETATM   13  C   UNL     1       5.110  30.938  56.789  1.00  0.00    -0.020 A 
HETATM   14  C   UNL     1       5.159  32.116  56.066  1.00  0.00     0.149 A 
HETATM   15  O   UNL     1       4.516  31.984  54.878  1.00  0.00    -0.334 OA
HETATM   16  C   UNL     1       4.047  30.714  54.823  1.00  0.00     0.142 A 
HETATM   17  C   UNL     1       4.382  30.029  55.966  1.00  0.00     0.034 A 
ENDBRANCH   7  13
BRANCH  11  18
HETATM   18  N   UNL     1       6.000  33.539  60.672  1.00  0.00    -0.282 NA
HETATM   19  H   UNL     1       5.036  33.601  60.993  1.00  0.00     0.126 HD
HETATM   20  H   UNL     1       6.379  34.435  60.372  1.00  0.00     0.126 HD
ENDBRANCH  11  18
BRANCH   1  21
HETATM   21  C   UNL     1       7.749  28.456  56.557  1.00  0.00    -0.007 A 
HETATM   22  C   UNL     1       7.436  27.200  57.086  1.00  0.00     0.016 A 
HETATM   23  C   UNL     1       7.148  26.127  56.240  1.00  0.00     0.037 A 
HETATM   24  C   UNL     1       7.167  26.286  54.854  1.00  0.00     0.069 A 
HETATM   25  C   UNL     1       7.510  27.526  54.317  1.00  0.00     0.037 A 
HETATM   26  C   UNL     1       7.793  28.605  55.165  1.00  0.00     0.016 A 
BRANCH  24  27
HETATM   27  O   UNL     1       6.836  25.165  54.145  1.00  0.00    -0.347 OA
BRANCH  27  28
HETATM   28  C   UNL     1       7.897  24.485  53.473  1.00  0.00     0.214 C 
BRANCH  28  29
HETATM   29  C   UNL     1       7.904  23.026  53.870  1.00  0.00    -0.034 A 
HETATM   30  C   UNL     1       8.039  22.031  52.890  1.00  0.00     0.009 A 
HETATM   31  C   UNL     1       8.065  20.682  53.245  1.00  0.00     0.001 A 
HETATM   32  C   UNL     1       7.968  20.310  54.583  1.00  0.00     0.000 A 
HETATM   33  C   UNL     1       7.850  21.288  55.569  1.00  0.00     0.001 A 
HETATM   34  C   UNL     1       7.824  22.638  55.216  1.00  0.00     0.009 A 
ENDBRANCH  28  29
ENDBRANCH  27  28
ENDBRANCH  24  27
ENDBRANCH   1  21
TORSDOF 6
ENDMDL
MODEL 3
REMARK VINA RESULT:      -9.3      1.754      2.896
REMARK  6 active torsions:
REMARK  status: ('A' for Active; 'I' for Inactive)
REMARK    1  A    between atoms: C_4  and  C_5 
REMARK    2  A    between atoms: C_5  and  O_6 
REMARK    3  A    between atoms: O_6  and  C_7 
REMARK    4  A    between atoms: C_10  and  C_11 
REMARK    5  A    between atoms: C_17  and  C_18 
REMARK    6  A    between atoms: C_26  and  N_27 
ROOT
HETATM    1  C   UNL     1       7.936  30.775  58.488  1.00  0.00     0.072 A 
HETATM    2  N   UNL     1       9.222  31.277  58.525  1.00  0.00    -0.274 N 
HETATM    3  H   UNL     1      10.014  30.987  57.960  1.00  0.00     0.189 HD
HETATM    4  N   UNL     1       9.411  32.252  59.436  1.00  0.00    -0.148 NA
HETATM    5  C   UNL     1       8.213  32.353  59.994  1.00  0.00     0.199 A 
HETATM    6  C   UNL     1       7.256  31.490  59.460  1.00  0.00     0.040 A 
HETATM    7  C   UNL     1       5.849  31.511  59.952  1.00  0.00     0.108 A 
HETATM    8  C   UNL     1       5.716  32.453  61.149  1.00  0.00     0.081 A 
HETATM    9  C   UNL     1       4.466  32.440  61.837  1.00  0.00     0.100 C 
HETATM   10  N   UNL     1       3.448  32.426  62.391  1.00  0.00    -0.191 NA
HETATM   11  C   UNL     1       6.736  33.237  61.593  1.00  0.00     0.140 A 
HETATM   12  O   UNL     1       7.998  33.236  60.985  1.00  0.00    -0.277 OA
ENDROOT
BRANCH   7  13
HETATM   13  C   UNL     1       4.887  31.878  58.852  1.00  0.00    -0.020 A 
HETATM   14  C   UNL     1       3.757  31.192  58.446  1.00  0.00     0.149 A 
HETATM   15  O   UNL     1       3.145  31.829  57.416  1.00  0.00    -0.334 OA
HETATM   16  C   UNL     1       3.877  32.939  57.149  1.00  0.00     0.142 A 
HETATM   17  C   UNL     1       4.954  33.019  57.998  1.00  0.00     0.034 A 
ENDBRANCH   7  13
BRANCH  11  18
HETATM   18  N   UNL     1       6.666  34.098  62.666  1.00  0.00    -0.282 NA
HETATM   19  H   UNL     1       7.424  34.772  62.745  1.00  0.00     0.126 HD
HETATM   20  H   UNL     1       6.476  33.607  63.538  1.00  0.00     0.126 HD
ENDBRANCH  11  18
BRANCH   1  21
HETATM   21  C   UNL     1       7.515  29.730  57.564  1.00  0.00    -0.007 A 
HETATM   22  C   UNL     1       7.884  28.398  57.780  1.00  0.00     0.016 A 
HETATM   23  C   UNL     1       7.444  27.393  56.914  1.00  0.00     0.037 A 
HETATM   24  C   UNL     1       6.632  27.697  55.822  1.00  0.00     0.069 A 
HETATM   25  C   UNL     1       6.286  29.026  55.581  1.00  0.00     0.037 A 
HETATM   26  C   UNL     1       6.721  30.034  56.451  1.00  0.00     0.016 A 
BRANCH  24  27
HETATM   27  O   UNL     1       6.249  26.617  55.076  1.00  0.00    -0.347 OA
BRANCH  27  28
HETATM   28  C   UNL     1       7.115  26.224  54.010  1.00  0.00     0.214 C 
BRANCH  28  29
HETATM   29  C   UNL     1       7.341  24.730  54.058  1.00  0.00    -0.034 A 
HETATM   30  C   UNL     1       7.704  24.037  52.893  1.00  0.00     0.009 A 
HETATM   31  C   UNL     1       7.934  22.660  52.926  1.00  0.00     0.001 A 
HETATM   32  C   UNL     1       7.816  21.963  54.125  1.00  0.00     0.000 A 
HETATM   33  C   UNL     1       7.472  22.640  55.293  1.00  0.00     0.001 A 
HETATM   34  C   UNL     1       7.242  24.017  55.262  1.00  0.00     0.009 A 
ENDBRANCH  28  29
ENDBRANCH  27  28
ENDBRANCH  24  27
ENDBRANCH   1  21
TORSDOF 6
ENDMDL
MODEL 4
REMARK VINA RESULT:      -9.3      3.125      8.685
REMARK  6 active torsions:
REMARK  status: ('A' for Active; 'I' for Inactive)
REMARK    1  A    between atoms: C_4  and  C_5 
REMARK    2  A    between atoms: C_5  and  O_6 
REMARK    3  A    between atoms: O_6  and  C_7 
REMARK    4  A    between atoms: C_10  and  C_11 
REMARK    5  A    between atoms: C_17  and  C_18 
REMARK    6  A    between atoms: C_26  and  N_27 
ROOT
HETATM    1  C   UNL     1       8.206  26.982  56.804  1.00  0.00     0.072 A 
HETATM    2  N   UNL     1       8.596  25.822  57.444  1.00  0.00    -0.274 N 
HETATM    3  H   UNL     1       9.103  25.740  58.319  1.00  0.00     0.189 HD
HETATM    4  N   UNL     1       8.257  24.690  56.795  1.00  0.00    -0.148 NA
HETATM    5  C   UNL     1       7.651  25.156  55.712  1.00  0.00     0.199 A 
HETATM    6  C   UNL     1       7.572  26.548  55.652  1.00  0.00     0.040 A 
HETATM    7  C   UNL     1       6.883  27.226  54.517  1.00  0.00     0.108 A 
HETATM    8  C   UNL     1       6.469  26.203  53.457  1.00  0.00     0.081 A 
HETATM    9  C   UNL     1       5.958  26.726  52.232  1.00  0.00     0.100 C 
HETATM   10  N   UNL     1       5.543  27.156  51.238  1.00  0.00    -0.191 NA
HETATM   11  C   UNL     1       6.616  24.862  53.624  1.00  0.00     0.140 A 
HETATM   12  O   UNL     1       7.170  24.309  54.786  1.00  0.00    -0.277 OA
ENDROOT
BRANCH   7  13
HETATM   13  C   UNL     1       5.705  28.035  54.993  1.00  0.00    -0.020 A 
HETATM   14  C   UNL     1       4.716  27.656  55.883  1.00  0.00     0.149 A 
HETATM   15  O   UNL     1       3.815  28.655  56.062  1.00  0.00    -0.334 OA
HETATM   16  C   UNL     1       4.217  29.692  55.287  1.00  0.00     0.142 A 
HETATM   17  C   UNL     1       5.369  29.368  54.611  1.00  0.00     0.034 A 
ENDBRANCH   7  13
BRANCH  11  18
HETATM   18  N   UNL     1       6.261  23.903  52.699  1.00  0.00    -0.282 NA
HETATM   19  H   UNL     1       5.634  24.211  51.959  1.00  0.00     0.126 HD
HETATM   20  H   UNL     1       5.962  23.038  53.142  1.00  0.00     0.126 HD
ENDBRANCH  11  18
BRANCH   1  21
HETATM   21  C   UNL     1       8.458  28.312  57.344  1.00  0.00    -0.007 A 
HETATM   22  C   UNL     1       7.511  28.939  58.160  1.00  0.00     0.016 A 
HETATM   23  C   UNL     1       7.773  30.198  58.709  1.00  0.00     0.037 A 
HETATM   24  C   UNL     1       8.978  30.851  58.454  1.00  0.00     0.069 A 
HETATM   25  C   UNL     1       9.914  30.247  57.615  1.00  0.00     0.037 A 
HETATM   26  C   UNL     1       9.656  28.983  57.069  1.00  0.00     0.016 A 
BRANCH  24  27
HETATM   27  O   UNL     1       9.117  32.059  59.078  1.00  0.00    -0.347 OA
BRANCH  27  28
HETATM   28  C   UNL     1       9.606  32.045  60.420  1.00  0.00     0.214 C 
BRANCH  28  29
HETATM   29  C   UNL     1       8.499  32.430  61.374  1.00  0.00    -0.034 A 
HETATM   30  C   UNL     1       8.658  32.230  62.753  1.00  0.00     0.009 A 
HETATM   31  C   UNL     1       7.651  32.599  63.647  1.00  0.00     0.001 A 
HETATM   32  C   UNL     1       6.478  33.181  63.174  1.00  0.00     0.000 A 
HETATM   33  C   UNL     1       6.312  33.400  61.808  1.00  0.00     0.001 A 
HETATM   34  C   UNL     1       7.318  33.033  60.913  1.00  0.00     0.009 A 
ENDBRANCH  28  29
ENDBRANCH  27  28
ENDBRANCH  24  27
ENDBRANCH   1  21
TORSDOF 6
ENDMDL
MODEL 5
REMARK VINA RESULT:      -9.3      5.375      7.416
REMARK  6 active torsions:
REMARK  status: ('A' for Active; 'I' for Inactive)
REMARK    1  A    between atoms: C_4  and  C_5 
REMARK    2  A    between atoms: C_5  and  O_6 
REMARK    3  A    between atoms: O_6  and  C_7 
REMARK    4  A    between atoms: C_10  and  C_11 
REMARK    5  A    between atoms: C_17  and  C_18 
REMARK    6  A    between atoms: C_26  and  N_27 
ROOT
HETATM    1  C   UNL     1       4.934  26.389  50.647  1.00  0.00     0.072 A 
HETATM    2  N   UNL     1       4.281  25.612  49.710  1.00  0.00    -0.274 N 
HETATM    3  H   UNL     1       4.134  24.608  49.736  1.00  0.00     0.189 HD
HETATM    4  N   UNL     1       3.812  26.298  48.650  1.00  0.00    -0.148 NA
HETATM    5  C   UNL     1       4.194  27.538  48.924  1.00  0.00     0.199 A 
HETATM    6  C   UNL     1       4.876  27.674  50.134  1.00  0.00     0.040 A 
HETATM    7  C   UNL     1       5.335  29.011  50.605  1.00  0.00     0.108 A 
HETATM    8  C   UNL     1       5.082  30.071  49.532  1.00  0.00     0.081 A 
HETATM    9  C   UNL     1       5.632  31.366  49.771  1.00  0.00     0.100 C 
HETATM   10  N   UNL     1       6.080  32.416  49.971  1.00  0.00    -0.191 NA
HETATM   11  C   UNL     1       4.417  29.811  48.375  1.00  0.00     0.140 A 
HETATM   12  O   UNL     1       3.914  28.539  48.072  1.00  0.00    -0.277 OA
ENDROOT
BRANCH   7  13
HETATM   13  C   UNL     1       4.687  29.386  51.913  1.00  0.00    -0.020 A 
HETATM   14  C   UNL     1       3.475  30.023  52.111  1.00  0.00     0.149 A 
HETATM   15  O   UNL     1       3.229  30.197  53.434  1.00  0.00    -0.334 OA
HETATM   16  C   UNL     1       4.282  29.669  54.104  1.00  0.00     0.142 A 
HETATM   17  C   UNL     1       5.204  29.159  53.223  1.00  0.00     0.034 A 
ENDBRANCH   7  13
BRANCH  11  18
HETATM   18  N   UNL     1       4.167  30.729  47.378  1.00  0.00    -0.282 NA
HETATM   19  H   UNL     1       3.461  31.432  47.588  1.00  0.00     0.126 HD
HETATM   20  H   UNL     1       4.030  30.283  46.474  1.00  0.00     0.126 HD
ENDBRANCH  11  18
BRANCH   1  21
HETATM   21  C   UNL     1       5.501  25.848  51.876  1.00  0.00    -0.007 A 
HETATM   22  C   UNL     1       6.872  25.944  52.129  1.00  0.00     0.016 A 
HETATM   23  C   UNL     1       7.407  25.461  53.327  1.00  0.00     0.037 A 
HETATM   24  C   UNL     1       6.585  24.874  54.289  1.00  0.00     0.069 A 
HETATM   25  C   UNL     1       5.221  24.745  54.030  1.00  0.00     0.037 A 
HETATM   26  C   UNL     1       4.683  25.234  52.833  1.00  0.00     0.016 A 
BRANCH  24  27
HETATM   27  O   UNL     1       7.231  24.473  55.425  1.00  0.00    -0.347 OA
BRANCH  27  28
HETATM   28  C   UNL     1       8.580  24.028  55.282  1.00  0.00     0.214 C 
BRANCH  28  29
HETATM   29  C   UNL     1       8.603  22.546  54.985  1.00  0.00    -0.034 A 
HETATM   30  C   UNL     1       8.761  22.096  53.665  1.00  0.00     0.009 A 
HETATM   31  C   UNL     1       8.802  20.730  53.380  1.00  0.00     0.001 A 
HETATM   32  C   UNL     1       8.697  19.798  54.410  1.00  0.00     0.000 A 
HETATM   33  C   UNL     1       8.557  20.231  55.727  1.00  0.00     0.001 A 
HETATM   34  C   UNL     1       8.516  21.596  56.014  1.00  0.00     0.009 A 
ENDBRANCH  28  29
ENDBRANCH  27  28
ENDBRANCH  24  27
ENDBRANCH   1  21
TORSDOF 6
ENDMDL
MODEL 6
REMARK VINA RESULT:      -9.0      6.645      8.724
REMARK  6 active torsions:
REMARK  status: ('A' for Active; 'I' for Inactive)
REMARK    1  A    between atoms: C_4  and  C_5 
REMARK    2  A    between atoms: C_5  and  O_6 
REMARK    3  A    between atoms: O_6  and  C_7 
REMARK    4  A    between atoms: C_10  and  C_11 
REMARK    5  A    between atoms: C_17  and  C_18 
REMARK    6  A    between atoms: C_26  and  N_27 
ROOT
HETATM    1  C   UNL     1       4.938  29.462  50.793  1.00  0.00     0.072 A 
HETATM    2  N   UNL     1       5.766  30.553  50.971  1.00  0.00    -0.274 N 
HETATM    3  H   UNL     1       6.503  30.662  51.660  1.00  0.00     0.189 HD
HETATM    4  N   UNL     1       5.530  31.572  50.122  1.00  0.00    -0.148 NA
HETATM    5  C   UNL     1       4.517  31.112  49.402  1.00  0.00     0.199 A 
HETATM    6  C   UNL     1       4.106  29.824  49.746  1.00  0.00     0.040 A 
HETATM    7  C   UNL     1       3.004  29.149  49.002  1.00  0.00     0.108 A 
HETATM    8  C   UNL     1       2.369  30.113  47.999  1.00  0.00     0.081 A 
HETATM    9  C   UNL     1       1.187  29.661  47.341  1.00  0.00     0.100 C 
HETATM   10  N   UNL     1       0.226  29.289  46.808  1.00  0.00    -0.191 NA
HETATM   11  C   UNL     1       2.853  31.362  47.763  1.00  0.00     0.140 A 
HETATM   12  O   UNL     1       3.975  31.868  48.431  1.00  0.00    -0.277 OA
ENDROOT
BRANCH   7  13
HETATM   13  C   UNL     1       3.486  27.890  48.329  1.00  0.00    -0.020 A 
HETATM   14  C   UNL     1       4.587  27.734  47.506  1.00  0.00     0.149 A 
HETATM   15  O   UNL     1       4.697  26.450  47.081  1.00  0.00    -0.334 OA
HETATM   16  C   UNL     1       3.665  25.763  47.631  1.00  0.00     0.142 A 
HETATM   17  C   UNL     1       2.893  26.596  48.404  1.00  0.00     0.034 A 
ENDBRANCH   7  13
BRANCH  11  18
HETATM   18  N   UNL     1       2.315  32.266  46.872  1.00  0.00    -0.282 NA
HETATM   19  H   UNL     1       1.357  32.555  47.057  1.00  0.00     0.126 HD
HETATM   20  H   UNL     1       2.469  31.988  45.906  1.00  0.00     0.126 HD
ENDBRANCH  11  18
BRANCH   1  21
HETATM   21  C   UNL     1       5.036  28.247  51.593  1.00  0.00    -0.007 A 
HETATM   22  C   UNL     1       5.528  27.065  51.032  1.00  0.00     0.016 A 
HETATM   23  C   UNL     1       5.660  25.913  51.812  1.00  0.00     0.037 A 
HETATM   24  C   UNL     1       5.305  25.920  53.161  1.00  0.00     0.069 A 
HETATM   25  C   UNL     1       4.782  27.087  53.719  1.00  0.00     0.037 A 
HETATM   26  C   UNL     1       4.656  28.243  52.940  1.00  0.00     0.016 A 
BRANCH  24  27
HETATM   27  O   UNL     1       5.513  24.738  53.814  1.00  0.00    -0.347 OA
BRANCH  27  28
HETATM   28  C   UNL     1       6.747  24.593  54.518  1.00  0.00     0.214 C 
BRANCH  28  29
HETATM   29  C   UNL     1       7.280  23.190  54.337  1.00  0.00    -0.034 A 
HETATM   30  C   UNL     1       7.466  22.360  55.453  1.00  0.00     0.009 A 
HETATM   31  C   UNL     1       7.939  21.056  55.298  1.00  0.00     0.001 A 
HETATM   32  C   UNL     1       8.221  20.562  54.027  1.00  0.00     0.000 A 
HETATM   33  C   UNL     1       8.025  21.369  52.908  1.00  0.00     0.001 A 
HETATM   34  C   UNL     1       7.551  22.674  53.061  1.00  0.00     0.009 A 
ENDBRANCH  28  29
ENDBRANCH  27  28
ENDBRANCH  24  27
ENDBRANCH   1  21
TORSDOF 6
ENDMDL
MODEL 7
REMARK VINA RESULT:      -8.9      6.210      8.527
REMARK  6 active torsions:
REMARK  status: ('A' for Active; 'I' for Inactive)
REMARK    1  A    between atoms: C_4  and  C_5 
REMARK    2  A    between atoms: C_5  and  O_6 
REMARK    3  A    between atoms: O_6  and  C_7 
REMARK    4  A    between atoms: C_10  and  C_11 
REMARK    5  A    between atoms: C_17  and  C_18 
REMARK    6  A    between atoms: C_26  and  N_27 
ROOT
HETATM    1  C   UNL     1       4.515  28.889  51.714  1.00  0.00     0.072 A 
HETATM    2  N   UNL     1       4.551  30.118  52.343  1.00  0.00    -0.274 N 
HETATM    3  H   UNL     1       5.148  30.400  53.114  1.00  0.00     0.189 HD
HETATM    4  N   UNL     1       3.670  31.015  51.857  1.00  0.00    -0.148 NA
HETATM    5  C   UNL     1       3.056  30.323  50.908  1.00  0.00     0.199 A 
HETATM    6  C   UNL     1       3.526  29.018  50.754  1.00  0.00     0.040 A 
HETATM    7  C   UNL     1       2.966  28.125  49.700  1.00  0.00     0.108 A 
HETATM    8  C   UNL     1       1.783  28.798  49.004  1.00  0.00     0.081 A 
HETATM    9  C   UNL     1       1.035  27.992  48.094  1.00  0.00     0.100 C 
HETATM   10  N   UNL     1       0.431  27.332  47.356  1.00  0.00    -0.191 NA
HETATM   11  C   UNL     1       1.405  30.080  49.255  1.00  0.00     0.140 A 
HETATM   12  O   UNL     1       2.074  30.887  50.185  1.00  0.00    -0.277 OA
ENDROOT
BRANCH   7  13
HETATM   13  C   UNL     1       4.025  27.710  48.712  1.00  0.00    -0.020 A 
HETATM   14  C   UNL     1       4.251  26.450  48.187  1.00  0.00     0.149 A 
HETATM   15  O   UNL     1       5.302  26.463  47.329  1.00  0.00    -0.334 OA
HETATM   16  C   UNL     1       5.763  27.738  47.290  1.00  0.00     0.142 A 
HETATM   17  C   UNL     1       5.018  28.543  48.117  1.00  0.00     0.034 A 
ENDBRANCH   7  13
BRANCH  11  18
HETATM   18  N   UNL     1       0.347  30.728  48.656  1.00  0.00    -0.282 NA
HETATM   19  H   UNL     1       0.591  31.492  48.029  1.00  0.00     0.126 HD
HETATM   20  H   UNL     1      -0.377  30.978  49.327  1.00  0.00     0.126 HD
ENDBRANCH  11  18
BRANCH   1  21
HETATM   21  C   UNL     1       5.397  27.785  52.072  1.00  0.00    -0.007 A 
HETATM   22  C   UNL     1       6.494  27.994  52.913  1.00  0.00     0.016 A 
HETATM   23  C   UNL     1       7.314  26.926  53.287  1.00  0.00     0.037 A 
HETATM   24  C   UNL     1       7.054  25.634  52.831  1.00  0.00     0.069 A 
HETATM   25  C   UNL     1       5.981  25.422  51.966  1.00  0.00     0.037 A 
HETATM   26  C   UNL     1       5.155  26.491  51.595  1.00  0.00     0.016 A 
BRANCH  24  27
HETATM   27  O   UNL     1       7.913  24.679  53.297  1.00  0.00    -0.347 OA
BRANCH  27  28
HETATM   28  C   UNL     1       7.885  23.407  52.649  1.00  0.00     0.214 C 
BRANCH  28  29
HETATM   29  C   UNL     1       8.011  22.305  53.676  1.00  0.00    -0.034 A 
HETATM   30  C   UNL     1       8.548  21.061  53.310  1.00  0.00     0.009 A 
HETATM   31  C   UNL     1       8.688  20.041  54.253  1.00  0.00     0.001 A 
HETATM   32  C   UNL     1       8.303  20.255  55.574  1.00  0.00     0.000 A 
HETATM   33  C   UNL     1       7.784  21.490  55.955  1.00  0.00     0.001 A 
HETATM   34  C   UNL     1       7.644  22.511  55.014  1.00  0.00     0.009 A 
ENDBRANCH  28  29
ENDBRANCH  27  28
ENDBRANCH  24  27
ENDBRANCH   1  21
TORSDOF 6
ENDMDL
MODEL 8
REMARK VINA RESULT:      -8.9      4.458      8.126
REMARK  6 active torsions:
REMARK  status: ('A' for Active; 'I' for Inactive)
REMARK    1  A    between atoms: C_4  and  C_5 
REMARK    2  A    between atoms: C_5  and  O_6 
REMARK    3  A    between atoms: O_6  and  C_7 
REMARK    4  A    between atoms: C_10  and  C_11 
REMARK    5  A    between atoms: C_17  and  C_18 
REMARK    6  A    between atoms: C_26  and  N_27 
ROOT
HETATM    1  C   UNL     1       6.267  27.916  55.098  1.00  0.00     0.072 A 
HETATM    2  N   UNL     1       6.186  26.569  54.808  1.00  0.00    -0.274 N 
HETATM    3  H   UNL     1       6.784  25.826  55.155  1.00  0.00     0.189 HD
HETATM    4  N   UNL     1       5.194  26.243  53.956  1.00  0.00    -0.148 NA
HETATM    5  C   UNL     1       4.649  27.423  53.693  1.00  0.00     0.199 A 
HETATM    6  C   UNL     1       5.244  28.492  54.363  1.00  0.00     0.040 A 
HETATM    7  C   UNL     1       4.719  29.879  54.207  1.00  0.00     0.108 A 
HETATM    8  C   UNL     1       3.617  29.915  53.146  1.00  0.00     0.081 A 
HETATM    9  C   UNL     1       3.145  31.205  52.761  1.00  0.00     0.100 C 
HETATM   10  N   UNL     1       2.764  32.256  52.453  1.00  0.00    -0.191 NA
HETATM   11  C   UNL     1       3.130  28.798  52.544  1.00  0.00     0.140 A 
HETATM   12  O   UNL     1       3.608  27.516  52.848  1.00  0.00    -0.277 OA
ENDROOT
BRANCH   7  13
HETATM   13  C   UNL     1       4.238  30.437  55.521  1.00  0.00    -0.020 A 
HETATM   14  C   UNL     1       3.204  29.974  56.314  1.00  0.00     0.149 A 
HETATM   15  O   UNL     1       3.062  30.741  57.424  1.00  0.00    -0.334 OA
HETATM   16  C   UNL     1       4.010  31.709  57.358  1.00  0.00     0.142 A 
HETATM   17  C   UNL     1       4.758  31.570  56.214  1.00  0.00     0.034 A 
ENDBRANCH   7  13
BRANCH  11  18
HETATM   18  N   UNL     1       2.142  28.780  51.584  1.00  0.00    -0.282 NA
HETATM   19  H   UNL     1       1.743  27.867  51.373  1.00  0.00     0.126 HD
HETATM   20  H   UNL     1       2.409  29.301  50.751  1.00  0.00     0.126 HD
ENDBRANCH  11  18
BRANCH   1  21
HETATM   21  C   UNL     1       7.255  28.477  56.011  1.00  0.00    -0.007 A 
HETATM   22  C   UNL     1       8.441  29.034  55.521  1.00  0.00     0.016 A 
HETATM   23  C   UNL     1       9.368  29.607  56.396  1.00  0.00     0.037 A 
HETATM   24  C   UNL     1       9.129  29.636  57.770  1.00  0.00     0.069 A 
HETATM   25  C   UNL     1       7.964  29.054  58.269  1.00  0.00     0.037 A 
HETATM   26  C   UNL     1       7.032  28.484  57.393  1.00  0.00     0.016 A 
BRANCH  24  27
HETATM   27  O   UNL     1      10.101  30.253  58.506  1.00  0.00    -0.347 OA
BRANCH  27  28
HETATM   28  C   UNL     1       9.959  31.658  58.722  1.00  0.00     0.214 C 
BRANCH  28  29
HETATM   29  C   UNL     1       9.099  31.906  59.940  1.00  0.00    -0.034 A 
HETATM   30  C   UNL     1       9.643  31.763  61.226  1.00  0.00     0.009 A 
HETATM   31  C   UNL     1       8.865  32.007  62.359  1.00  0.00     0.001 A 
HETATM   32  C   UNL     1       7.538  32.407  62.221  1.00  0.00     0.000 A 
HETATM   33  C   UNL     1       6.989  32.569  60.951  1.00  0.00     0.001 A 
HETATM   34  C   UNL     1       7.766  32.326  59.817  1.00  0.00     0.009 A 
ENDBRANCH  28  29
ENDBRANCH  27  28
ENDBRANCH  24  27
ENDBRANCH   1  21
TORSDOF 6
ENDMDL
MODEL 9
REMARK VINA RESULT:      -8.9      7.370      9.438
REMARK  6 active torsions:
REMARK  status: ('A' for Active; 'I' for Inactive)
REMARK    1  A    between atoms: C_4  and  C_5 
REMARK    2  A    between atoms: C_5  and  O_6 
REMARK    3  A    between atoms: O_6  and  C_7 
REMARK    4  A    between atoms: C_10  and  C_11 
REMARK    5  A    between atoms: C_17  and  C_18 
REMARK    6  A    between atoms: C_26  and  N_27 
ROOT
HETATM    1  C   UNL     1       3.260  27.973  49.277  1.00  0.00     0.072 A 
HETATM    2  N   UNL     1       2.005  27.415  49.136  1.00  0.00    -0.274 N 
HETATM    3  H   UNL     1       1.606  26.650  49.671  1.00  0.00     0.189 HD
HETATM    4  N   UNL     1       1.258  27.968  48.160  1.00  0.00    -0.148 NA
HETATM    5  C   UNL     1       2.075  28.888  47.667  1.00  0.00     0.199 A 
HETATM    6  C   UNL     1       3.313  28.958  48.305  1.00  0.00     0.040 A 
HETATM    7  C   UNL     1       4.328  29.970  47.895  1.00  0.00     0.108 A 
HETATM    8  C   UNL     1       3.854  30.727  46.653  1.00  0.00     0.081 A 
HETATM    9  C   UNL     1       4.799  31.604  46.041  1.00  0.00     0.100 C 
HETATM   10  N   UNL     1       5.571  32.315  45.548  1.00  0.00    -0.191 NA
HETATM   11  C   UNL     1       2.621  30.557  46.106  1.00  0.00     0.140 A 
HETATM   12  O   UNL     1       1.684  29.661  46.639  1.00  0.00    -0.277 OA
ENDROOT
BRANCH   7  13
HETATM   13  C   UNL     1       4.654  30.913  49.024  1.00  0.00    -0.020 A 
HETATM   14  C   UNL     1       5.893  31.185  49.574  1.00  0.00     0.149 A 
HETATM   15  O   UNL     1       5.789  32.086  50.584  1.00  0.00    -0.334 OA
HETATM   16  C   UNL     1       4.476  32.406  50.693  1.00  0.00     0.142 A 
HETATM   17  C   UNL     1       3.736  31.717  49.762  1.00  0.00     0.034 A 
ENDBRANCH   7  13
BRANCH  11  18
HETATM   18  N   UNL     1       2.150  31.212  44.989  1.00  0.00    -0.282 NA
HETATM   19  H   UNL     1       1.197  30.989  44.712  1.00  0.00     0.126 HD
HETATM   20  H   UNL     1       2.811  31.172  44.216  1.00  0.00     0.126 HD
ENDBRANCH  11  18
BRANCH   1  21
HETATM   21  C   UNL     1       4.218  27.536  50.284  1.00  0.00    -0.007 A 
HETATM   22  C   UNL     1       4.936  26.347  50.116  1.00  0.00     0.016 A 
HETATM   23  C   UNL     1       5.883  25.951  51.063  1.00  0.00     0.037 A 
HETATM   24  C   UNL     1       6.131  26.731  52.193  1.00  0.00     0.069 A 
HETATM   25  C   UNL     1       5.397  27.901  52.385  1.00  0.00     0.037 A 
HETATM   26  C   UNL     1       4.451  28.302  51.433  1.00  0.00     0.016 A 
BRANCH  24  27
HETATM   27  O   UNL     1       7.103  26.245  53.021  1.00  0.00    -0.347 OA
BRANCH  27  28
HETATM   28  C   UNL     1       7.942  25.212  52.502  1.00  0.00     0.214 C 
BRANCH  28  29
HETATM   29  C   UNL     1       7.887  24.002  53.406  1.00  0.00    -0.034 A 
HETATM   30  C   UNL     1       7.872  22.712  52.854  1.00  0.00     0.009 A 
HETATM   31  C   UNL     1       7.841  21.586  53.679  1.00  0.00     0.001 A 
HETATM   32  C   UNL     1       7.835  21.735  55.063  1.00  0.00     0.000 A 
HETATM   33  C   UNL     1       7.866  23.010  55.626  1.00  0.00     0.001 A 
HETATM   34  C   UNL     1       7.898  24.137  54.803  1.00  0.00     0.009 A 
ENDBRANCH  28  29
ENDBRANCH  27  28
ENDBRANCH  24  27
ENDBRANCH   1  21
TORSDOF 6
ENDMDL
MODEL 10
REMARK VINA RESULT:      -8.7      3.600      9.111
REMARK  6 active torsions:
REMARK  status: ('A' for Active; 'I' for Inactive)
REMARK    1  A    between atoms: C_4  and  C_5 
REMARK    2  A    between atoms: C_5  and  O_6 
REMARK    3  A    between atoms: O_6  and  C_7 
REMARK    4  A    between atoms: C_10  and  C_11 
REMARK    5  A    between atoms: C_17  and  C_18 
REMARK    6  A    between atoms: C_26  and  N_27 
ROOT
HETATM    1  C   UNL     1       4.670  29.428  56.184  1.00  0.00     0.072 A 
HETATM    2  N   UNL     1       3.827  29.485  55.092  1.00  0.00    -0.274 N 
HETATM    3  H   UNL     1       3.131  30.195  54.886  1.00  0.00     0.189 HD
HETATM    4  N   UNL     1       3.964  28.458  54.231  1.00  0.00    -0.148 NA
HETATM    5  C   UNL     1       4.910  27.730  54.807  1.00  0.00     0.199 A 
HETATM    6  C   UNL     1       5.399  28.264  56.000  1.00  0.00     0.040 A 
HETATM    7  C   UNL     1       6.495  27.586  56.748  1.00  0.00     0.108 A 
HETATM    8  C   UNL     1       6.828  26.240  56.103  1.00  0.00     0.081 A 
HETATM    9  C   UNL     1       7.735  25.398  56.813  1.00  0.00     0.100 C 
HETATM   10  N   UNL     1       8.473  24.719  57.395  1.00  0.00    -0.191 NA
HETATM   11  C   UNL     1       6.266  25.816  54.939  1.00  0.00     0.140 A 
HETATM   12  O   UNL     1       5.325  26.584  54.240  1.00  0.00    -0.277 OA
ENDROOT
BRANCH   7  13
HETATM   13  C   UNL     1       7.715  28.464  56.854  1.00  0.00    -0.020 A 
HETATM   14  C   UNL     1       8.510  28.942  55.827  1.00  0.00     0.149 A 
HETATM   15  O   UNL     1       9.526  29.700  56.313  1.00  0.00    -0.334 OA
HETATM   16  C   UNL     1       9.393  29.718  57.662  1.00  0.00     0.142 A 
HETATM   17  C   UNL     1       8.301  28.979  58.047  1.00  0.00     0.034 A 
ENDBRANCH   7  13
BRANCH  11  18
HETATM   18  N   UNL     1       6.531  24.613  54.321  1.00  0.00    -0.282 NA
HETATM   19  H   UNL     1       7.196  24.647  53.551  1.00  0.00     0.126 HD
HETATM   20  H   UNL     1       5.679  24.106  54.091  1.00  0.00     0.126 HD
ENDBRANCH  11  18
BRANCH   1  21
HETATM   21  C   UNL     1       4.697  30.448  57.225  1.00  0.00    -0.007 A 
HETATM   22  C   UNL     1       3.652  30.549  58.149  1.00  0.00     0.016 A 
HETATM   23  C   UNL     1       3.700  31.501  59.171  1.00  0.00     0.037 A 
HETATM   24  C   UNL     1       4.787  32.367  59.287  1.00  0.00     0.069 A 
HETATM   25  C   UNL     1       5.817  32.295  58.350  1.00  0.00     0.037 A 
HETATM   26  C   UNL     1       5.774  31.337  57.330  1.00  0.00     0.016 A 
BRANCH  24  27
HETATM   27  O   UNL     1       4.722  33.227  60.348  1.00  0.00    -0.347 OA
BRANCH  27  28
HETATM   28  C   UNL     1       4.449  32.658  61.629  1.00  0.00     0.214 C 
BRANCH  28  29
HETATM   29  C   UNL     1       5.633  32.866  62.546  1.00  0.00    -0.034 A 
HETATM   30  C   UNL     1       5.495  33.640  63.708  1.00  0.00     0.009 A 
HETATM   31  C   UNL     1       6.576  33.823  64.572  1.00  0.00     0.001 A 
HETATM   32  C   UNL     1       7.803  33.228  64.292  1.00  0.00     0.000 A 
HETATM   33  C   UNL     1       7.950  32.443  63.150  1.00  0.00     0.001 A 
HETATM   34  C   UNL     1       6.870  32.258  62.285  1.00  0.00     0.009 A 
ENDBRANCH  28  29
ENDBRANCH  27  28
ENDBRANCH  24  27
ENDBRANCH   1  21
TORSDOF 6
ENDMDL
