MODEL 1
REMARK VINA RESULT:     -10.3      0.000      0.000
REMARK  7 active torsions:
REMARK  status: ('A' for Active; 'I' for Inactive)
REMARK    1  A    between atoms: C_2  and  C_3 
REMARK    2  A    between atoms: C_3  and  N_4 
REMARK    3  A    between atoms: C_8  and  C_9 
REMARK    4  A    between atoms: C_8  and  C_27 
REMARK    5  A    between atoms: N_12  and  C_14 
REMARK    6  A    between atoms: C_14  and  C_15 
REMARK    7  A    between atoms: C_27  and  C_28 
ROOT
HETATM    1  N   UNL     1       7.381  27.447  55.634  1.00  0.00    -0.268 N 
HETATM    2  C   UNL     1       6.807  26.729  56.636  1.00  0.00     0.326 C 
HETATM    3  O   UNL     1       6.577  27.087  57.776  1.00  0.00    -0.247 OA
HETATM    4  N   UNL     1       6.507  25.476  56.150  1.00  0.00    -0.324 N 
HETATM    5  C   UNL     1       7.133  25.211  54.861  1.00  0.00     0.123 C 
HETATM    6  C   UNL     1       7.506  26.671  54.519  1.00  0.00     0.257 C 
HETATM    7  O   UNL     1       7.908  27.050  53.427  1.00  0.00    -0.270 OA
HETATM    8  H   UNL     1       6.233  24.757  56.815  1.00  0.00     0.165 HD
ENDROOT
BRANCH   5   9
HETATM    9  C   UNL     1       6.131  24.485  53.903  1.00  0.00     0.027 C 
HETATM   10  C   UNL     1       6.597  24.215  52.462  1.00  0.00     0.035 C 
HETATM   11  C   UNL     1       6.472  25.377  51.484  1.00  0.00     0.235 C 
HETATM   12  N   UNL     1       5.123  26.048  51.562  1.00  0.00    -0.067 N 
HETATM   13  H   UNL     1       4.459  25.426  51.086  1.00  0.00     0.280 HD
HETATM   14  C   UNL     1       4.604  26.307  52.950  1.00  0.00     0.235 C 
HETATM   15  C   UNL     1       4.714  25.081  53.833  1.00  0.00     0.035 C 
BRANCH  12  16
HETATM   16  C   UNL     1       5.106  27.364  50.787  1.00  0.00     0.273 C 
BRANCH  16  17
HETATM   17  C   UNL     1       4.123  27.417  49.653  1.00  0.00    -0.030 A 
HETATM   18  C   UNL     1       3.173  28.445  49.574  1.00  0.00     0.048 A 
HETATM   19  C   UNL     1       2.269  28.480  48.511  1.00  0.00     0.102 A 
HETATM   20  C   UNL     1       2.279  27.476  47.541  1.00  0.00     0.102 A 
HETATM   21  O   UNL     1       1.395  29.535  48.488  1.00  0.00    -0.346 OA
HETATM   22  O   UNL     1       1.403  27.435  46.490  1.00  0.00    -0.346 OA
HETATM   23  C   UNL     1       3.223  26.456  47.606  1.00  0.00     0.040 A 
HETATM   24  C   UNL     1       0.304  28.335  46.678  1.00  0.00     0.202 C 
HETATM   25  C   UNL     1       0.792  29.679  47.194  1.00  0.00     0.202 C 
HETATM   26  C   UNL     1       4.142  26.425  48.656  1.00  0.00     0.012 A 
ENDBRANCH  16  17
ENDBRANCH  12  16
ENDBRANCH   5   9
BRANCH   5  27
HETATM   27  C   UNL     1       8.496  24.477  55.057  1.00  0.00     0.080 C 
BRANCH  27  28
HETATM   28  C   UNL     1       8.432  22.967  55.040  1.00  0.00    -0.052 A 
HETATM   29  C   UNL     1       8.799  22.237  53.903  1.00  0.00     0.049 A 
HETATM   30  C   UNL     1       8.731  20.846  53.915  1.00  0.00     0.116 A 
HETATM   31  F   UNL     1       9.077  20.166  52.814  1.00  0.00    -0.206 F 
HETATM   32  C   UNL     1       8.310  20.157  55.044  1.00  0.00     0.042 A 
HETATM   33  C   UNL     1       7.952  20.869  56.186  1.00  0.00     0.003 A 
HETATM   34  C   UNL     1       8.014  22.266  56.184  1.00  0.00     0.007 A 
ENDBRANCH  27  28
ENDBRANCH   5  27
BRANCH   1  35
HETATM   35  C   UNL     1       7.876  28.807  55.778  1.00  0.00     0.140 C 
BRANCH  35  36
HETATM   36  C   UNL     1       9.124  28.929  56.670  1.00  0.00    -0.004 C 
HETATM   37  C   UNL     1       8.824  29.651  57.984  1.00  0.00     0.011 C 
HETATM   38  C   UNL     1      10.223  29.683  55.918  1.00  0.00     0.011 C 
ENDBRANCH  35  36
ENDBRANCH   1  35
TORSDOF 7
ENDMDL
MODEL 2
REMARK VINA RESULT:     -10.2      2.785      8.688
REMARK  7 active torsions:
REMARK  status: ('A' for Active; 'I' for Inactive)
REMARK    1  A    between atoms: C_2  and  C_3 
REMARK    2  A    between atoms: C_3  and  N_4 
REMARK    3  A    between atoms: C_8  and  C_9 
REMARK    4  A    between atoms: C_8  and  C_27 
REMARK    5  A    between atoms: N_12  and  C_14 
REMARK    6  A    between atoms: C_14  and  C_15 
REMARK    7  A    between atoms: C_27  and  C_28 
ROOT
HETATM    1  N   UNL     1       5.108  27.237  51.958  1.00  0.00    -0.268 N 
HETATM    2  C   UNL     1       5.974  28.253  52.212  1.00  0.00     0.326 C 
HETATM    3  O   UNL     1       6.097  29.301  51.605  1.00  0.00    -0.247 OA
HETATM    4  N   UNL     1       6.730  27.911  53.312  1.00  0.00    -0.324 N 
HETATM    5  C   UNL     1       6.586  26.507  53.674  1.00  0.00     0.123 C 
HETATM    6  C   UNL     1       5.317  26.217  52.841  1.00  0.00     0.257 C 
HETATM    7  O   UNL     1       4.645  25.197  52.925  1.00  0.00    -0.270 OA
HETATM    8  H   UNL     1       7.542  28.481  53.531  1.00  0.00     0.165 HD
ENDROOT
BRANCH   5   9
HETATM    9  C   UNL     1       6.473  26.349  55.227  1.00  0.00     0.027 C 
HETATM   10  C   UNL     1       5.145  26.758  55.887  1.00  0.00     0.035 C 
HETATM   11  C   UNL     1       4.960  28.244  56.166  1.00  0.00     0.235 C 
HETATM   12  N   UNL     1       6.171  28.858  56.825  1.00  0.00    -0.067 N 
HETATM   13  H   UNL     1       6.156  28.554  57.806  1.00  0.00     0.280 HD
HETATM   14  C   UNL     1       7.500  28.466  56.239  1.00  0.00     0.235 C 
HETATM   15  C   UNL     1       7.616  26.967  56.051  1.00  0.00     0.035 C 
BRANCH  12  16
HETATM   16  C   UNL     1       6.084  30.382  56.849  1.00  0.00     0.273 C 
BRANCH  16  17
HETATM   17  C   UNL     1       6.440  31.016  58.163  1.00  0.00    -0.030 A 
HETATM   18  C   UNL     1       7.582  30.614  58.869  1.00  0.00     0.048 A 
HETATM   19  C   UNL     1       7.899  31.217  60.087  1.00  0.00     0.102 A 
HETATM   20  C   UNL     1       7.064  32.195  60.629  1.00  0.00     0.102 A 
HETATM   21  O   UNL     1       9.049  30.791  60.697  1.00  0.00    -0.346 OA
HETATM   22  O   UNL     1       7.300  32.805  61.832  1.00  0.00    -0.346 OA
HETATM   23  C   UNL     1       5.932  32.607  59.933  1.00  0.00     0.040 A 
HETATM   24  C   UNL     1       8.296  32.111  62.593  1.00  0.00     0.202 C 
HETATM   25  C   UNL     1       9.469  31.715  61.712  1.00  0.00     0.202 C 
HETATM   26  C   UNL     1       5.619  32.021  58.705  1.00  0.00     0.012 A 
ENDBRANCH  16  17
ENDBRANCH  12  16
ENDBRANCH   5   9
BRANCH   5  27
HETATM   27  C   UNL     1       7.712  25.654  53.011  1.00  0.00     0.080 C 
BRANCH  27  28
HETATM   28  C   UNL     1       7.880  24.257  53.563  1.00  0.00    -0.052 A 
HETATM   29  C   UNL     1       7.594  23.129  52.784  1.00  0.00     0.049 A 
HETATM   30  C   UNL     1       7.758  21.853  53.317  1.00  0.00     0.116 A 
HETATM   31  F   UNL     1       7.469  20.787  52.559  1.00  0.00    -0.206 F 
HETATM   32  C   UNL     1       8.213  21.669  54.616  1.00  0.00     0.042 A 
HETATM   33  C   UNL     1       8.512  22.781  55.398  1.00  0.00     0.003 A 
HETATM   34  C   UNL     1       8.349  24.068  54.875  1.00  0.00     0.007 A 
ENDBRANCH  27  28
ENDBRANCH   5  27
BRANCH   1  35
HETATM   35  C   UNL     1       4.173  27.213  50.844  1.00  0.00     0.140 C 
BRANCH  35  36
HETATM   36  C   UNL     1       4.787  26.723  49.521  1.00  0.00    -0.004 C 
HETATM   37  C   UNL     1       5.122  27.881  48.580  1.00  0.00     0.011 C 
HETATM   38  C   UNL     1       3.815  25.769  48.824  1.00  0.00     0.011 C 
ENDBRANCH  35  36
ENDBRANCH   1  35
TORSDOF 7
ENDMDL
MODEL 3
REMARK VINA RESULT:     -10.2      3.102      9.045
REMARK  7 active torsions:
REMARK  status: ('A' for Active; 'I' for Inactive)
REMARK    1  A    between atoms: C_2  and  C_3 
REMARK    2  A    between atoms: C_3  and  N_4 
REMARK    3  A    between atoms: C_8  and  C_9 
REMARK    4  A    between atoms: C_8  and  C_27 
REMARK    5  A    between atoms: N_12  and  C_14 
REMARK    6  A    between atoms: C_14  and  C_15 
REMARK    7  A    between atoms: C_27  and  C_28 
ROOT
HETATM    1  N   UNL     1       5.324  27.182  52.701  1.00  0.00    -0.268 N 
HETATM    2  C   UNL     1       6.141  28.229  52.995  1.00  0.00     0.326 C 
HETATM    3  O   UNL     1       6.232  29.293  52.413  1.00  0.00    -0.247 OA
HETATM    4  N   UNL     1       6.886  27.895  54.104  1.00  0.00    -0.324 N 
HETATM    5  C   UNL     1       6.794  26.479  54.435  1.00  0.00     0.123 C 
HETATM    6  C   UNL     1       5.557  26.154  53.568  1.00  0.00     0.257 C 
HETATM    7  O   UNL     1       4.927  25.105  53.616  1.00  0.00    -0.270 OA
HETATM    8  H   UNL     1       7.669  28.494  54.353  1.00  0.00     0.165 HD
ENDROOT
BRANCH   5   9
HETATM    9  C   UNL     1       6.655  26.284  55.981  1.00  0.00     0.027 C 
HETATM   10  C   UNL     1       5.505  27.022  56.689  1.00  0.00     0.035 C 
HETATM   11  C   UNL     1       5.756  28.484  57.038  1.00  0.00     0.235 C 
HETATM   12  N   UNL     1       7.098  28.693  57.696  1.00  0.00    -0.067 N 
HETATM   13  H   UNL     1       7.006  28.358  58.663  1.00  0.00     0.280 HD
HETATM   14  C   UNL     1       8.254  27.966  57.063  1.00  0.00     0.235 C 
HETATM   15  C   UNL     1       7.934  26.508  56.807  1.00  0.00     0.035 C 
BRANCH  12  16
HETATM   16  C   UNL     1       7.452  30.175  57.790  1.00  0.00     0.273 C 
BRANCH  16  17
HETATM   17  C   UNL     1       7.644  30.692  59.187  1.00  0.00    -0.030 A 
HETATM   18  C   UNL     1       6.682  31.517  59.787  1.00  0.00     0.048 A 
HETATM   19  C   UNL     1       6.877  31.985  61.087  1.00  0.00     0.102 A 
HETATM   20  C   UNL     1       8.043  31.668  61.785  1.00  0.00     0.102 A 
HETATM   21  O   UNL     1       5.875  32.758  61.612  1.00  0.00    -0.346 OA
HETATM   22  O   UNL     1       8.310  32.117  63.050  1.00  0.00    -0.346 OA
HETATM   23  C   UNL     1       9.000  30.844  61.202  1.00  0.00     0.040 A 
HETATM   24  C   UNL     1       7.428  33.180  63.433  1.00  0.00     0.202 C 
HETATM   25  C   UNL     1       5.995  32.860  63.039  1.00  0.00     0.202 C 
HETATM   26  C   UNL     1       8.804  30.357  59.908  1.00  0.00     0.012 A 
ENDBRANCH  16  17
ENDBRANCH  12  16
ENDBRANCH   5   9
BRANCH   5  27
HETATM   27  C   UNL     1       7.969  25.688  53.781  1.00  0.00     0.080 C 
BRANCH  27  28
HETATM   28  C   UNL     1       7.911  24.186  53.938  1.00  0.00    -0.052 A 
HETATM   29  C   UNL     1       7.891  23.588  55.205  1.00  0.00     0.049 A 
HETATM   30  C   UNL     1       7.836  22.202  55.322  1.00  0.00     0.116 A 
HETATM   31  F   UNL     1       7.828  21.650  56.542  1.00  0.00    -0.206 F 
HETATM   32  C   UNL     1       7.791  21.387  54.199  1.00  0.00     0.042 A 
HETATM   33  C   UNL     1       7.798  21.968  52.933  1.00  0.00     0.003 A 
HETATM   34  C   UNL     1       7.856  23.359  52.803  1.00  0.00     0.007 A 
ENDBRANCH  27  28
ENDBRANCH   5  27
BRANCH   1  35
HETATM   35  C   UNL     1       4.415  27.143  51.566  1.00  0.00     0.140 C 
BRANCH  35  36
HETATM   36  C   UNL     1       5.105  26.860  50.221  1.00  0.00    -0.004 C 
HETATM   37  C   UNL     1       5.287  28.130  49.389  1.00  0.00     0.011 C 
HETATM   38  C   UNL     1       4.282  25.846  49.423  1.00  0.00     0.011 C 
ENDBRANCH  35  36
ENDBRANCH   1  35
TORSDOF 7
ENDMDL
MODEL 4
REMARK VINA RESULT:     -10.2      1.302      1.995
REMARK  7 active torsions:
REMARK  status: ('A' for Active; 'I' for Inactive)
REMARK    1  A    between atoms: C_2  and  C_3 
REMARK    2  A    between atoms: C_3  and  N_4 
REMARK    3  A    between atoms: C_8  and  C_9 
REMARK    4  A    between atoms: C_8  and  C_27 
REMARK    5  A    between atoms: N_12  and  C_14 
REMARK    6  A    between atoms: C_14  and  C_15 
REMARK    7  A    between atoms: C_27  and  C_28 
ROOT
HETATM    1  N   UNL     1       7.525  26.760  55.821  1.00  0.00    -0.268 N 
HETATM    2  C   UNL     1       7.241  25.644  56.544  1.00  0.00     0.326 C 
HETATM    3  O   UNL     1       7.408  25.462  57.736  1.00  0.00    -0.247 OA
HETATM    4  N   UNL     1       6.710  24.702  55.690  1.00  0.00    -0.324 N 
HETATM    5  C   UNL     1       6.878  25.059  54.288  1.00  0.00     0.123 C 
HETATM    6  C   UNL     1       7.234  26.548  54.505  1.00  0.00     0.257 C 
HETATM    7  O   UNL     1       7.302  27.386  53.615  1.00  0.00    -0.270 OA
HETATM    8  H   UNL     1       6.604  23.751  56.033  1.00  0.00     0.165 HD
ENDROOT
BRANCH   5   9
HETATM    9  C   UNL     1       5.574  24.747  53.481  1.00  0.00     0.027 C 
HETATM   10  C   UNL     1       5.692  24.659  51.950  1.00  0.00     0.035 C 
HETATM   11  C   UNL     1       5.674  25.982  51.195  1.00  0.00     0.235 C 
HETATM   12  N   UNL     1       4.563  26.891  51.659  1.00  0.00    -0.067 N 
HETATM   13  H   UNL     1       3.693  26.519  51.259  1.00  0.00     0.280 HD
HETATM   14  C   UNL     1       4.382  26.989  53.150  1.00  0.00     0.235 C 
HETATM   15  C   UNL     1       4.353  25.625  53.808  1.00  0.00     0.035 C 
BRANCH  12  16
HETATM   16  C   UNL     1       4.721  28.302  51.098  1.00  0.00     0.273 C 
BRANCH  16  17
HETATM   17  C   UNL     1       3.630  28.736  50.161  1.00  0.00    -0.030 A 
HETATM   18  C   UNL     1       3.229  27.918  49.097  1.00  0.00     0.048 A 
HETATM   19  C   UNL     1       2.211  28.337  48.238  1.00  0.00     0.102 A 
HETATM   20  C   UNL     1       1.612  29.585  48.410  1.00  0.00     0.102 A 
HETATM   21  O   UNL     1       1.856  27.464  47.243  1.00  0.00    -0.346 OA
HETATM   22  O   UNL     1       0.629  30.069  47.588  1.00  0.00    -0.346 OA
HETATM   23  C   UNL     1       1.997  30.402  49.468  1.00  0.00     0.040 A 
HETATM   24  C   UNL     1       0.523  29.305  46.381  1.00  0.00     0.202 C 
HETATM   25  C   UNL     1       0.584  27.815  46.679  1.00  0.00     0.202 C 
HETATM   26  C   UNL     1       3.002  29.982  50.342  1.00  0.00     0.012 A 
ENDBRANCH  16  17
ENDBRANCH  12  16
ENDBRANCH   5   9
BRANCH   5  27
HETATM   27  C   UNL     1       8.174  24.410  53.711  1.00  0.00     0.080 C 
BRANCH  27  28
HETATM   28  C   UNL     1       8.321  22.925  53.950  1.00  0.00    -0.052 A 
HETATM   29  C   UNL     1       8.888  22.432  55.131  1.00  0.00     0.049 A 
HETATM   30  C   UNL     1       9.011  21.058  55.326  1.00  0.00     0.116 A 
HETATM   31  F   UNL     1       9.566  20.607  56.459  1.00  0.00    -0.206 F 
HETATM   32  C   UNL     1       8.571  20.154  54.369  1.00  0.00     0.042 A 
HETATM   33  C   UNL     1       7.994  20.630  53.195  1.00  0.00     0.003 A 
HETATM   34  C   UNL     1       7.868  22.007  52.986  1.00  0.00     0.007 A 
ENDBRANCH  27  28
ENDBRANCH   5  27
BRANCH   1  35
HETATM   35  C   UNL     1       8.142  27.958  56.369  1.00  0.00     0.140 C 
BRANCH  35  36
HETATM   36  C   UNL     1       7.195  28.811  57.232  1.00  0.00    -0.004 C 
HETATM   37  C   UNL     1       6.465  29.872  56.408  1.00  0.00     0.011 C 
HETATM   38  C   UNL     1       7.990  29.494  58.347  1.00  0.00     0.011 C 
ENDBRANCH  35  36
ENDBRANCH   1  35
TORSDOF 7
ENDMDL
MODEL 5
REMARK VINA RESULT:      -9.9      3.556      9.088
REMARK  7 active torsions:
REMARK  status: ('A' for Active; 'I' for Inactive)
REMARK    1  A    between atoms: C_2  and  C_3 
REMARK    2  A    between atoms: C_3  and  N_4 
REMARK    3  A    between atoms: C_8  and  C_9 
REMARK    4  A    between atoms: C_8  and  C_27 
REMARK    5  A    between atoms: N_12  and  C_14 
REMARK    6  A    between atoms: C_14  and  C_15 
REMARK    7  A    between atoms: C_27  and  C_28 
ROOT
HETATM    1  N   UNL     1       4.807  28.505  53.735  1.00  0.00    -0.268 N 
HETATM    2  C   UNL     1       5.691  28.172  52.756  1.00  0.00     0.326 C 
HETATM    3  O   UNL     1       5.666  28.497  51.583  1.00  0.00    -0.247 OA
HETATM    4  N   UNL     1       6.668  27.376  53.311  1.00  0.00    -0.324 N 
HETATM    5  C   UNL     1       6.318  26.909  54.646  1.00  0.00     0.123 C 
HETATM    6  C   UNL     1       5.162  27.902  54.906  1.00  0.00     0.257 C 
HETATM    7  O   UNL     1       4.616  28.069  55.989  1.00  0.00    -0.270 OA
HETATM    8  H   UNL     1       7.309  26.898  52.684  1.00  0.00     0.165 HD
ENDROOT
BRANCH   5   9
HETATM    9  C   UNL     1       7.557  26.989  55.598  1.00  0.00     0.027 C 
HETATM   10  C   UNL     1       7.296  26.889  57.112  1.00  0.00     0.035 C 
HETATM   11  C   UNL     1       6.856  28.172  57.806  1.00  0.00     0.235 C 
HETATM   12  N   UNL     1       7.713  29.353  57.422  1.00  0.00    -0.067 N 
HETATM   13  H   UNL     1       8.601  29.248  57.927  1.00  0.00     0.280 HD
HETATM   14  C   UNL     1       8.026  29.481  55.956  1.00  0.00     0.235 C 
HETATM   15  C   UNL     1       8.511  28.173  55.365  1.00  0.00     0.035 C 
BRANCH  12  16
HETATM   16  C   UNL     1       7.102  30.668  57.902  1.00  0.00     0.273 C 
BRANCH  16  17
HETATM   17  C   UNL     1       7.399  31.019  59.332  1.00  0.00    -0.030 A 
HETATM   18  C   UNL     1       6.552  31.872  60.053  1.00  0.00     0.048 A 
HETATM   19  C   UNL     1       6.842  32.184  61.382  1.00  0.00     0.102 A 
HETATM   20  C   UNL     1       7.992  31.679  61.992  1.00  0.00     0.102 A 
HETATM   21  O   UNL     1       5.948  32.997  62.026  1.00  0.00    -0.346 OA
HETATM   22  O   UNL     1       8.350  31.968  63.281  1.00  0.00    -0.346 OA
HETATM   23  C   UNL     1       8.834  30.825  61.287  1.00  0.00     0.040 A 
HETATM   24  C   UNL     1       7.601  33.072  63.806  1.00  0.00     0.202 C 
HETATM   25  C   UNL     1       6.129  32.941  63.449  1.00  0.00     0.202 C 
HETATM   26  C   UNL     1       8.541  30.494  59.963  1.00  0.00     0.012 A 
ENDBRANCH  16  17
ENDBRANCH  12  16
ENDBRANCH   5   9
BRANCH   5  27
HETATM   27  C   UNL     1       5.640  25.506  54.573  1.00  0.00     0.080 C 
BRANCH  27  28
HETATM   28  C   UNL     1       6.579  24.339  54.369  1.00  0.00    -0.052 A 
HETATM   29  C   UNL     1       7.016  23.560  55.448  1.00  0.00     0.049 A 
HETATM   30  C   UNL     1       7.881  22.490  55.232  1.00  0.00     0.116 A 
HETATM   31  F   UNL     1       8.295  21.764  56.278  1.00  0.00    -0.206 F 
HETATM   32  C   UNL     1       8.320  22.168  53.955  1.00  0.00     0.042 A 
HETATM   33  C   UNL     1       7.885  22.926  52.871  1.00  0.00     0.003 A 
HETATM   34  C   UNL     1       7.019  24.004  53.076  1.00  0.00     0.007 A 
ENDBRANCH  27  28
ENDBRANCH   5  27
BRANCH   1  35
HETATM   35  C   UNL     1       3.610  29.304  53.523  1.00  0.00     0.140 C 
BRANCH  35  36
HETATM   36  C   UNL     1       3.810  30.809  53.771  1.00  0.00    -0.004 C 
HETATM   37  C   UNL     1       3.089  31.286  55.032  1.00  0.00     0.011 C 
HETATM   38  C   UNL     1       3.299  31.602  52.566  1.00  0.00     0.011 C 
ENDBRANCH  35  36
ENDBRANCH   1  35
TORSDOF 7
ENDMDL
MODEL 6
REMARK VINA RESULT:      -9.8      1.895      2.116
REMARK  7 active torsions:
REMARK  status: ('A' for Active; 'I' for Inactive)
REMARK    1  A    between atoms: C_2  and  C_3 
REMARK    2  A    between atoms: C_3  and  N_4 
REMARK    3  A    between atoms: C_8  and  C_9 
REMARK    4  A    between atoms: C_8  and  C_27 
REMARK    5  A    between atoms: N_12  and  C_14 
REMARK    6  A    between atoms: C_14  and  C_15 
REMARK    7  A    between atoms: C_27  and  C_28 
ROOT
HETATM    1  N   UNL     1       6.750  27.329  55.681  1.00  0.00    -0.268 N 
HETATM    2  C   UNL     1       5.977  26.391  56.290  1.00  0.00     0.326 C 
HETATM    3  O   UNL     1       5.424  26.465  57.372  1.00  0.00    -0.247 OA
HETATM    4  N   UNL     1       5.905  25.291  55.465  1.00  0.00    -0.324 N 
HETATM    5  C   UNL     1       6.871  25.343  54.376  1.00  0.00     0.123 C 
HETATM    6  C   UNL     1       7.223  26.843  54.496  1.00  0.00     0.257 C 
HETATM    7  O   UNL     1       7.878  27.474  53.677  1.00  0.00    -0.270 OA
HETATM    8  H   UNL     1       5.510  24.434  55.844  1.00  0.00     0.165 HD
ENDROOT
BRANCH   5   9
HETATM    9  C   UNL     1       6.216  24.867  53.037  1.00  0.00     0.027 C 
HETATM   10  C   UNL     1       6.727  25.503  51.732  1.00  0.00     0.035 C 
HETATM   11  C   UNL     1       6.143  26.863  51.371  1.00  0.00     0.235 C 
HETATM   12  N   UNL     1       4.640  26.895  51.505  1.00  0.00    -0.067 N 
HETATM   13  H   UNL     1       4.263  26.389  50.695  1.00  0.00     0.280 HD
HETATM   14  C   UNL     1       4.084  26.257  52.749  1.00  0.00     0.235 C 
HETATM   15  C   UNL     1       4.678  24.885  52.996  1.00  0.00     0.035 C 
BRANCH  12  16
HETATM   16  C   UNL     1       4.099  28.319  51.409  1.00  0.00     0.273 C 
BRANCH  16  17
HETATM   17  C   UNL     1       4.201  28.945  50.047  1.00  0.00    -0.030 A 
HETATM   18  C   UNL     1       4.552  30.294  49.900  1.00  0.00     0.048 A 
HETATM   19  C   UNL     1       4.645  30.856  48.626  1.00  0.00     0.102 A 
HETATM   20  C   UNL     1       4.355  30.093  47.494  1.00  0.00     0.102 A 
HETATM   21  O   UNL     1       5.027  32.171  48.567  1.00  0.00    -0.346 OA
HETATM   22  O   UNL     1       4.399  30.590  46.219  1.00  0.00    -0.346 OA
HETATM   23  C   UNL     1       4.013  28.752  47.629  1.00  0.00     0.040 A 
HETATM   24  C   UNL     1       4.459  32.022  46.209  1.00  0.00     0.202 C 
HETATM   25  C   UNL     1       5.452  32.527  47.244  1.00  0.00     0.202 C 
HETATM   26  C   UNL     1       3.936  28.177  48.899  1.00  0.00     0.012 A 
ENDBRANCH  16  17
ENDBRANCH  12  16
ENDBRANCH   5   9
BRANCH   5  27
HETATM   27  C   UNL     1       8.177  24.586  54.769  1.00  0.00     0.080 C 
BRANCH  27  28
HETATM   28  C   UNL     1       8.107  23.078  54.683  1.00  0.00    -0.052 A 
HETATM   29  C   UNL     1       8.344  22.407  53.477  1.00  0.00     0.049 A 
HETATM   30  C   UNL     1       8.273  21.017  53.425  1.00  0.00     0.116 A 
HETATM   31  F   UNL     1       8.493  20.395  52.260  1.00  0.00    -0.206 F 
HETATM   32  C   UNL     1       7.978  20.271  54.558  1.00  0.00     0.042 A 
HETATM   33  C   UNL     1       7.752  20.924  55.767  1.00  0.00     0.003 A 
HETATM   34  C   UNL     1       7.817  22.319  55.830  1.00  0.00     0.007 A 
ENDBRANCH  27  28
ENDBRANCH   5  27
BRANCH   1  35
HETATM   35  C   UNL     1       7.095  28.616  56.265  1.00  0.00     0.140 C 
BRANCH  35  36
HETATM   36  C   UNL     1       8.273  28.559  57.253  1.00  0.00    -0.004 C 
HETATM   37  C   UNL     1       8.007  29.385  58.513  1.00  0.00     0.011 C 
HETATM   38  C   UNL     1       9.543  29.072  56.571  1.00  0.00     0.011 C 
ENDBRANCH  35  36
ENDBRANCH   1  35
TORSDOF 7
ENDMDL
MODEL 7
REMARK VINA RESULT:      -9.6      3.250      6.069
REMARK  7 active torsions:
REMARK  status: ('A' for Active; 'I' for Inactive)
REMARK    1  A    between atoms: C_2  and  C_3 
REMARK    2  A    between atoms: C_3  and  N_4 
REMARK    3  A    between atoms: C_8  and  C_9 
REMARK    4  A    between atoms: C_8  and  C_27 
REMARK    5  A    between atoms: N_12  and  C_14 
REMARK    6  A    between atoms: C_14  and  C_15 
REMARK    7  A    between atoms: C_27  and  C_28 
ROOT
HETATM    1  N   UNL     1       7.166  26.745  54.824  1.00  0.00    -0.268 N 
HETATM    2  C   UNL     1       7.635  27.983  54.513  1.00  0.00     0.326 C 
HETATM    3  O   UNL     1       8.390  28.292  53.610  1.00  0.00    -0.247 OA
HETATM    4  N   UNL     1       7.103  28.883  55.410  1.00  0.00    -0.324 N 
HETATM    5  C   UNL     1       6.467  28.231  56.547  1.00  0.00     0.123 C 
HETATM    6  C   UNL     1       6.378  26.813  55.936  1.00  0.00     0.257 C 
HETATM    7  O   UNL     1       5.743  25.884  56.419  1.00  0.00    -0.270 OA
HETATM    8  H   UNL     1       7.487  29.824  55.428  1.00  0.00     0.165 HD
ENDROOT
BRANCH   5   9
HETATM    9  C   UNL     1       5.119  28.941  56.904  1.00  0.00     0.027 C 
HETATM   10  C   UNL     1       3.851  28.467  56.172  1.00  0.00     0.035 C 
HETATM   11  C   UNL     1       3.622  29.042  54.780  1.00  0.00     0.235 C 
HETATM   12  N   UNL     1       3.814  30.538  54.739  1.00  0.00    -0.067 N 
HETATM   13  H   UNL     1       2.980  30.952  55.173  1.00  0.00     0.280 HD
HETATM   14  C   UNL     1       5.023  31.059  55.468  1.00  0.00     0.235 C 
HETATM   15  C   UNL     1       5.137  30.479  56.863  1.00  0.00     0.035 C 
BRANCH  12  16
HETATM   16  C   UNL     1       3.853  31.059  53.305  1.00  0.00     0.273 C 
BRANCH  16  17
HETATM   17  C   UNL     1       4.050  30.005  52.253  1.00  0.00    -0.030 A 
HETATM   18  C   UNL     1       3.019  29.674  51.364  1.00  0.00     0.048 A 
HETATM   19  C   UNL     1       3.222  28.694  50.391  1.00  0.00     0.102 A 
HETATM   20  C   UNL     1       4.438  28.013  50.319  1.00  0.00     0.102 A 
HETATM   21  O   UNL     1       2.176  28.453  49.541  1.00  0.00    -0.346 OA
HETATM   22  O   UNL     1       4.694  27.022  49.409  1.00  0.00    -0.346 OA
HETATM   23  C   UNL     1       5.471  28.340  51.191  1.00  0.00     0.040 A 
HETATM   24  C   UNL     1       3.494  26.561  48.775  1.00  0.00     0.202 C 
HETATM   25  C   UNL     1       2.610  27.732  48.379  1.00  0.00     0.202 C 
HETATM   26  C   UNL     1       5.281  29.331  52.155  1.00  0.00     0.012 A 
ENDBRANCH  16  17
ENDBRANCH  12  16
ENDBRANCH   5   9
BRANCH   5  27
HETATM   27  C   UNL     1       7.471  28.100  57.734  1.00  0.00     0.080 C 
BRANCH  27  28
HETATM   28  C   UNL     1       8.570  29.136  57.774  1.00  0.00    -0.052 A 
HETATM   29  C   UNL     1       8.456  30.286  58.564  1.00  0.00     0.049 A 
HETATM   30  C   UNL     1       9.484  31.226  58.583  1.00  0.00     0.116 A 
HETATM   31  F   UNL     1       9.351  32.324  59.338  1.00  0.00    -0.206 F 
HETATM   32  C   UNL     1      10.639  31.042  57.835  1.00  0.00     0.042 A 
HETATM   33  C   UNL     1      10.771  29.897  57.053  1.00  0.00     0.003 A 
HETATM   34  C   UNL     1       9.744  28.949  57.024  1.00  0.00     0.007 A 
ENDBRANCH  27  28
ENDBRANCH   5  27
BRANCH   1  35
HETATM   35  C   UNL     1       7.540  25.525  54.125  1.00  0.00     0.140 C 
BRANCH  35  36
HETATM   36  C   UNL     1       6.889  25.373  52.739  1.00  0.00    -0.004 C 
HETATM   37  C   UNL     1       5.465  24.825  52.830  1.00  0.00     0.011 C 
HETATM   38  C   UNL     1       7.737  24.440  51.872  1.00  0.00     0.011 C 
ENDBRANCH  35  36
ENDBRANCH   1  35
TORSDOF 7
ENDMDL
MODEL 8
REMARK VINA RESULT:      -9.6      3.537      9.660
REMARK  7 active torsions:
REMARK  status: ('A' for Active; 'I' for Inactive)
REMARK    1  A    between atoms: C_2  and  C_3 
REMARK    2  A    between atoms: C_3  and  N_4 
REMARK    3  A    between atoms: C_8  and  C_9 
REMARK    4  A    between atoms: C_8  and  C_27 
REMARK    5  A    between atoms: N_12  and  C_14 
REMARK    6  A    between atoms: C_14  and  C_15 
REMARK    7  A    between atoms: C_27  and  C_28 
ROOT
HETATM    1  N   UNL     1       6.263  25.812  53.357  1.00  0.00    -0.268 N 
HETATM    2  C   UNL     1       5.009  25.498  52.934  1.00  0.00     0.326 C 
HETATM    3  O   UNL     1       4.643  24.486  52.366  1.00  0.00    -0.247 OA
HETATM    4  N   UNL     1       4.171  26.542  53.259  1.00  0.00    -0.324 N 
HETATM    5  C   UNL     1       4.898  27.735  53.671  1.00  0.00     0.123 C 
HETATM    6  C   UNL     1       6.268  27.061  53.908  1.00  0.00     0.257 C 
HETATM    7  O   UNL     1       7.224  27.596  54.453  1.00  0.00    -0.270 OA
HETATM    8  H   UNL     1       3.236  26.546  52.861  1.00  0.00     0.165 HD
ENDROOT
BRANCH   5   9
HETATM    9  C   UNL     1       4.205  28.400  54.907  1.00  0.00     0.027 C 
HETATM   10  C   UNL     1       4.333  29.927  55.055  1.00  0.00     0.035 C 
HETATM   11  C   UNL     1       5.624  30.438  55.680  1.00  0.00     0.235 C 
HETATM   12  N   UNL     1       5.993  29.682  56.933  1.00  0.00    -0.067 N 
HETATM   13  H   UNL     1       5.365  30.018  57.673  1.00  0.00     0.280 HD
HETATM   14  C   UNL     1       5.855  28.186  56.853  1.00  0.00     0.235 C 
HETATM   15  C   UNL     1       4.518  27.769  56.275  1.00  0.00     0.035 C 
BRANCH  12  16
HETATM   16  C   UNL     1       7.411  30.013  57.391  1.00  0.00     0.273 C 
BRANCH  16  17
HETATM   17  C   UNL     1       7.506  30.635  58.755  1.00  0.00    -0.030 A 
HETATM   18  C   UNL     1       6.528  31.534  59.205  1.00  0.00     0.048 A 
HETATM   19  C   UNL     1       6.632  32.099  60.477  1.00  0.00     0.102 A 
HETATM   20  C   UNL     1       7.723  31.803  61.295  1.00  0.00     0.102 A 
HETATM   21  O   UNL     1       5.619  32.941  60.853  1.00  0.00    -0.346 OA
HETATM   22  O   UNL     1       7.900  32.344  62.540  1.00  0.00    -0.346 OA
HETATM   23  C   UNL     1       8.694  30.906  60.861  1.00  0.00     0.040 A 
HETATM   24  C   UNL     1       7.030  33.461  62.763  1.00  0.00     0.202 C 
HETATM   25  C   UNL     1       5.624  33.154  62.273  1.00  0.00     0.202 C 
HETATM   26  C   UNL     1       8.588  30.323  59.597  1.00  0.00     0.012 A 
ENDBRANCH  16  17
ENDBRANCH  12  16
ENDBRANCH   5   9
BRANCH   5  27
HETATM   27  C   UNL     1       5.118  28.688  52.455  1.00  0.00     0.080 C 
BRANCH  27  28
HETATM   28  C   UNL     1       4.063  28.618  51.374  1.00  0.00    -0.052 A 
HETATM   29  C   UNL     1       4.299  27.941  50.171  1.00  0.00     0.049 A 
HETATM   30  C   UNL     1       3.310  27.892  49.192  1.00  0.00     0.116 A 
HETATM   31  F   UNL     1       3.559  27.248  48.045  1.00  0.00    -0.206 F 
HETATM   32  C   UNL     1       2.077  28.499  49.386  1.00  0.00     0.042 A 
HETATM   33  C   UNL     1       1.824  29.166  50.582  1.00  0.00     0.003 A 
HETATM   34  C   UNL     1       2.810  29.225  51.571  1.00  0.00     0.007 A 
ENDBRANCH  27  28
ENDBRANCH   5  27
BRANCH   1  35
HETATM   35  C   UNL     1       7.433  24.972  53.153  1.00  0.00     0.140 C 
BRANCH  35  36
HETATM   36  C   UNL     1       7.459  23.711  54.033  1.00  0.00    -0.004 C 
HETATM   37  C   UNL     1       8.285  23.914  55.305  1.00  0.00     0.011 C 
HETATM   38  C   UNL     1       8.037  22.539  53.237  1.00  0.00     0.011 C 
ENDBRANCH  35  36
ENDBRANCH   1  35
TORSDOF 7
ENDMDL
MODEL 9
REMARK VINA RESULT:      -9.4      3.371      7.737
REMARK  7 active torsions:
REMARK  status: ('A' for Active; 'I' for Inactive)
REMARK    1  A    between atoms: C_2  and  C_3 
REMARK    2  A    between atoms: C_3  and  N_4 
REMARK    3  A    between atoms: C_8  and  C_9 
REMARK    4  A    between atoms: C_8  and  C_27 
REMARK    5  A    between atoms: N_12  and  C_14 
REMARK    6  A    between atoms: C_14  and  C_15 
REMARK    7  A    between atoms: C_27  and  C_28 
ROOT
HETATM    1  N   UNL     1       6.098  25.788  52.743  1.00  0.00    -0.268 N 
HETATM    2  C   UNL     1       7.299  25.190  52.518  1.00  0.00     0.326 C 
HETATM    3  O   UNL     1       7.746  24.783  51.462  1.00  0.00    -0.247 OA
HETATM    4  N   UNL     1       7.970  25.108  53.718  1.00  0.00    -0.324 N 
HETATM    5  C   UNL     1       7.114  25.402  54.859  1.00  0.00     0.123 C 
HETATM    6  C   UNL     1       5.954  26.054  54.074  1.00  0.00     0.257 C 
HETATM    7  O   UNL     1       5.020  26.661  54.582  1.00  0.00    -0.270 OA
HETATM    8  H   UNL     1       8.807  24.533  53.760  1.00  0.00     0.165 HD
ENDROOT
BRANCH   5   9
HETATM    9  C   UNL     1       7.869  26.300  55.895  1.00  0.00     0.027 C 
HETATM   10  C   UNL     1       7.270  26.410  57.308  1.00  0.00     0.035 C 
HETATM   11  C   UNL     1       6.132  27.409  57.483  1.00  0.00     0.235 C 
HETATM   12  N   UNL     1       6.444  28.746  56.858  1.00  0.00    -0.067 N 
HETATM   13  H   UNL     1       7.107  29.216  57.487  1.00  0.00     0.280 HD
HETATM   14  C   UNL     1       7.063  28.696  55.487  1.00  0.00     0.235 C 
HETATM   15  C   UNL     1       8.221  27.722  55.424  1.00  0.00     0.035 C 
BRANCH  12  16
HETATM   16  C   UNL     1       5.208  29.639  56.798  1.00  0.00     0.273 C 
BRANCH  16  17
HETATM   17  C   UNL     1       5.172  30.741  57.818  1.00  0.00    -0.030 A 
HETATM   18  C   UNL     1       3.955  31.306  58.224  1.00  0.00     0.048 A 
HETATM   19  C   UNL     1       3.942  32.327  59.175  1.00  0.00     0.102 A 
HETATM   20  C   UNL     1       5.138  32.817  59.702  1.00  0.00     0.102 A 
HETATM   21  O   UNL     1       2.710  32.801  59.543  1.00  0.00    -0.346 OA
HETATM   22  O   UNL     1       5.198  33.835  60.616  1.00  0.00    -0.346 OA
HETATM   23  C   UNL     1       6.351  32.258  59.312  1.00  0.00     0.040 A 
HETATM   24  C   UNL     1       3.949  34.530  60.719  1.00  0.00     0.202 C 
HETATM   25  C   UNL     1       2.788  33.550  60.765  1.00  0.00     0.202 C 
HETATM   26  C   UNL     1       6.370  31.224  58.374  1.00  0.00     0.012 A 
ENDBRANCH  16  17
ENDBRANCH  12  16
ENDBRANCH   5   9
BRANCH   5  27
HETATM   27  C   UNL     1       6.518  24.086  55.449  1.00  0.00     0.080 C 
BRANCH  27  28
HETATM   28  C   UNL     1       7.373  22.851  55.280  1.00  0.00    -0.052 A 
HETATM   29  C   UNL     1       7.399  22.145  54.071  1.00  0.00     0.049 A 
HETATM   30  C   UNL     1       8.196  21.010  53.942  1.00  0.00     0.116 A 
HETATM   31  F   UNL     1       8.199  20.343  52.781  1.00  0.00    -0.206 F 
HETATM   32  C   UNL     1       8.982  20.561  54.995  1.00  0.00     0.042 A 
HETATM   33  C   UNL     1       8.975  21.260  56.199  1.00  0.00     0.003 A 
HETATM   34  C   UNL     1       8.177  22.399  56.341  1.00  0.00     0.007 A 
ENDBRANCH  27  28
ENDBRANCH   5  27
BRANCH   1  35
HETATM   35  C   UNL     1       5.088  26.012  51.720  1.00  0.00     0.140 C 
BRANCH  35  36
HETATM   36  C   UNL     1       5.436  27.139  50.732  1.00  0.00    -0.004 C 
HETATM   37  C   UNL     1       5.100  28.521  51.295  1.00  0.00     0.011 C 
HETATM   38  C   UNL     1       4.675  26.927  49.422  1.00  0.00     0.011 C 
ENDBRANCH  35  36
ENDBRANCH   1  35
TORSDOF 7
ENDMDL
MODEL 10
REMARK VINA RESULT:      -9.1      2.433      3.162
REMARK  7 active torsions:
REMARK  status: ('A' for Active; 'I' for Inactive)
REMARK    1  A    between atoms: C_2  and  C_3 
REMARK    2  A    between atoms: C_3  and  N_4 
REMARK    3  A    between atoms: C_8  and  C_9 
REMARK    4  A    between atoms: C_8  and  C_27 
REMARK    5  A    between atoms: N_12  and  C_14 
REMARK    6  A    between atoms: C_14  and  C_15 
REMARK    7  A    between atoms: C_27  and  C_28 
ROOT
HETATM    1  N   UNL     1       7.262  27.178  55.875  1.00  0.00    -0.268 N 
HETATM    2  C   UNL     1       6.872  26.109  56.618  1.00  0.00     0.326 C 
HETATM    3  O   UNL     1       6.964  25.961  57.823  1.00  0.00    -0.247 OA
HETATM    4  N   UNL     1       6.329  25.170  55.769  1.00  0.00    -0.324 N 
HETATM    5  C   UNL     1       6.592  25.464  54.367  1.00  0.00     0.123 C 
HETATM    6  C   UNL     1       7.028  26.935  54.552  1.00  0.00     0.257 C 
HETATM    7  O   UNL     1       7.193  27.734  53.640  1.00  0.00    -0.270 OA
HETATM    8  H   UNL     1       6.147  24.240  56.138  1.00  0.00     0.165 HD
ENDROOT
BRANCH   5   9
HETATM    9  C   UNL     1       5.315  25.200  53.501  1.00  0.00     0.027 C 
HETATM   10  C   UNL     1       5.519  24.932  52.000  1.00  0.00     0.035 C 
HETATM   11  C   UNL     1       5.695  26.158  51.113  1.00  0.00     0.235 C 
HETATM   12  N   UNL     1       4.664  27.223  51.397  1.00  0.00    -0.067 N 
HETATM   13  H   UNL     1       3.786  26.900  50.974  1.00  0.00     0.280 HD
HETATM   14  C   UNL     1       4.402  27.503  52.852  1.00  0.00     0.235 C 
HETATM   15  C   UNL     1       4.180  26.230  53.643  1.00  0.00     0.035 C 
BRANCH  12  16
HETATM   16  C   UNL     1       5.013  28.540  50.707  1.00  0.00     0.273 C 
BRANCH  16  17
HETATM   17  C   UNL     1       4.008  29.639  50.897  1.00  0.00    -0.030 A 
HETATM   18  C   UNL     1       4.237  30.670  51.820  1.00  0.00     0.048 A 
HETATM   19  C   UNL     1       3.292  31.685  51.981  1.00  0.00     0.102 A 
HETATM   20  C   UNL     1       2.101  31.664  51.254  1.00  0.00     0.102 A 
HETATM   21  O   UNL     1       3.606  32.672  52.877  1.00  0.00    -0.346 OA
HETATM   22  O   UNL     1       1.122  32.611  51.384  1.00  0.00    -0.346 OA
HETATM   23  C   UNL     1       1.869  30.650  50.330  1.00  0.00     0.040 A 
HETATM   24  C   UNL     1       1.317  33.420  52.551  1.00  0.00     0.202 C 
HETATM   25  C   UNL     1       2.775  33.827  52.687  1.00  0.00     0.202 C 
HETATM   26  C   UNL     1       2.816  29.641  50.151  1.00  0.00     0.012 A 
ENDBRANCH  16  17
ENDBRANCH  12  16
ENDBRANCH   5   9
BRANCH   5  27
HETATM   27  C   UNL     1       7.874  24.718  53.884  1.00  0.00     0.080 C 
BRANCH  27  28
HETATM   28  C   UNL     1       7.898  23.229  54.144  1.00  0.00    -0.052 A 
HETATM   29  C   UNL     1       7.984  22.308  53.092  1.00  0.00     0.049 A 
HETATM   30  C   UNL     1       8.004  20.942  53.360  1.00  0.00     0.116 A 
HETATM   31  F   UNL     1       8.077  20.078  52.339  1.00  0.00    -0.206 F 
HETATM   32  C   UNL     1       7.949  20.464  54.662  1.00  0.00     0.042 A 
HETATM   33  C   UNL     1       7.875  21.368  55.719  1.00  0.00     0.003 A 
HETATM   34  C   UNL     1       7.851  22.742  55.462  1.00  0.00     0.007 A 
ENDBRANCH  27  28
ENDBRANCH   5  27
BRANCH   1  35
HETATM   35  C   UNL     1       7.922  28.357  56.414  1.00  0.00     0.140 C 
BRANCH  35  36
HETATM   36  C   UNL     1       7.038  29.194  57.356  1.00  0.00    -0.004 C 
HETATM   37  C   UNL     1       6.294  30.303  56.611  1.00  0.00     0.011 C 
HETATM   38  C   UNL     1       7.901  29.814  58.456  1.00  0.00     0.011 C 
ENDBRANCH  35  36
ENDBRANCH   1  35
TORSDOF 7
ENDMDL
