MODEL 1
REMARK VINA RESULT:      -8.8      0.000      0.000
REMARK  8 active torsions:
REMARK  status: ('A' for Active; 'I' for Inactive)
REMARK    1  A    between atoms: C_2  and  C_3 
REMARK    2  A    between atoms: C_3  and  O_4 
REMARK    3  A    between atoms: O_4  and  C_5 
REMARK    4  A    between atoms: C_6  and  O_7 
REMARK    5  A    between atoms: C_11  and  C_12 
REMARK    6  A    between atoms: C_12  and  N_13 
REMARK    7  A    between atoms: N_13  and  C_14 
REMARK    8  A    between atoms: C_21  and  C_22 
REMARK       I    between atoms: C_22  and  N_23 
ROOT
HETATM    1  N   UNL     1       7.587  27.148  56.832  1.00  0.00    -0.289 NA
HETATM    2  H   UNL     1       7.596  27.054  55.820  1.00  0.00     0.128 HD
ENDROOT
BRANCH   1   3
HETATM    3  C   UNL     1       7.771  25.867  57.503  1.00  0.00     0.131 C 
BRANCH   3   4
HETATM    4  C   UNL     1       8.006  24.795  56.464  1.00  0.00    -0.042 A 
HETATM    5  C   UNL     1       8.547  23.554  56.820  1.00  0.00     0.011 A 
HETATM    6  C   UNL     1       8.760  22.566  55.853  1.00  0.00     0.040 A 
HETATM    7  C   UNL     1       8.443  22.808  54.512  1.00  0.00     0.101 A 
HETATM    8  C   UNL     1       7.940  24.067  54.143  1.00  0.00     0.102 A 
HETATM    9  C   UNL     1       7.711  25.045  55.117  1.00  0.00     0.048 A 
BRANCH   7  10
HETATM   10  O   UNL     1       8.618  21.904  53.496  1.00  0.00    -0.353 OA
HETATM   11  C   UNL     1       7.934  20.664  53.606  1.00  0.00     0.210 C 
ENDBRANCH   7  10
BRANCH   8  12
HETATM   12  O   UNL     1       7.606  24.252  52.825  1.00  0.00    -0.344 OA
BRANCH  12  13
HETATM   13  C   UNL     1       7.199  25.573  52.461  1.00  0.00     0.209 C 
BRANCH  13  14
HETATM   14  C   UNL     1       5.770  25.566  51.968  1.00  0.00    -0.069 C 
HETATM   15  C   UNL     1       5.436  26.555  50.887  1.00  0.00     0.044 C 
HETATM   16  C   UNL     1       4.839  24.740  52.477  1.00  0.00     0.016 C 
ENDBRANCH  13  14
ENDBRANCH  12  13
ENDBRANCH   8  12
ENDBRANCH   3   4
ENDBRANCH   1   3
BRANCH   1  17
HETATM   17  C   UNL     1       8.326  28.255  57.269  1.00  0.00     0.009 A 
HETATM   18  C   UNL     1       7.820  29.203  58.172  1.00  0.00     0.039 A 
HETATM   19  C   UNL     1       8.578  30.347  58.509  1.00  0.00     0.030 A 
HETATM   20  C   UNL     1       9.818  30.526  57.914  1.00  0.00     0.063 A 
HETATM   21  C   UNL     1       8.400  31.483  59.353  1.00  0.00     0.156 A 
HETATM   22  N   UNL     1      10.297  31.699  58.425  1.00  0.00    -0.277 N 
HETATM   23  C   UNL     1      10.349  29.631  56.986  1.00  0.00     0.034 A 
HETATM   24  H   UNL     1      11.182  32.146  58.212  1.00  0.00     0.189 HD
HETATM   25  N   UNL     1       9.470  32.308  59.294  1.00  0.00    -0.168 NA
HETATM   26  C   UNL     1       9.569  28.510  56.667  1.00  0.00     0.026 A 
BRANCH  21  27
HETATM   27  C   UNL     1       7.240  31.790  60.199  1.00  0.00     0.270 C 
HETATM   28  N   UNL     1       7.218  31.114  61.387  1.00  0.00    -0.365 N 
HETATM   29  H   UNL     1       7.980  30.478  61.597  1.00  0.00     0.159 HD
HETATM   30  H   UNL     1       6.469  31.273  62.041  1.00  0.00     0.159 HD
HETATM   31  O   UNL     1       6.350  32.581  59.899  1.00  0.00    -0.266 OA
ENDBRANCH  21  27
ENDBRANCH   1  17
TORSDOF 8
ENDMDL
MODEL 2
REMARK VINA RESULT:      -8.7      1.345      3.303
REMARK  8 active torsions:
REMARK  status: ('A' for Active; 'I' for Inactive)
REMARK    1  A    between atoms: C_2  and  C_3 
REMARK    2  A    between atoms: C_3  and  O_4 
REMARK    3  A    between atoms: O_4  and  C_5 
REMARK    4  A    between atoms: C_6  and  O_7 
REMARK    5  A    between atoms: C_11  and  C_12 
REMARK    6  A    between atoms: C_12  and  N_13 
REMARK    7  A    between atoms: N_13  and  C_14 
REMARK    8  A    between atoms: C_21  and  C_22 
REMARK       I    between atoms: C_22  and  N_23 
ROOT
HETATM    1  N   UNL     1       7.605  27.128  56.956  1.00  0.00    -0.289 NA
HETATM    2  H   UNL     1       7.853  26.296  57.483  1.00  0.00     0.128 HD
ENDROOT
BRANCH   1   3
HETATM    3  C   UNL     1       6.166  27.237  56.750  1.00  0.00     0.131 C 
BRANCH   3   4
HETATM    4  C   UNL     1       5.830  26.763  55.355  1.00  0.00    -0.042 A 
HETATM    5  C   UNL     1       5.055  27.549  54.495  1.00  0.00     0.011 A 
HETATM    6  C   UNL     1       4.751  27.103  53.204  1.00  0.00     0.040 A 
HETATM    7  C   UNL     1       5.208  25.859  52.758  1.00  0.00     0.101 A 
HETATM    8  C   UNL     1       5.950  25.048  53.633  1.00  0.00     0.102 A 
HETATM    9  C   UNL     1       6.268  25.506  54.916  1.00  0.00     0.048 A 
BRANCH   7  10
HETATM   10  O   UNL     1       4.959  25.339  51.514  1.00  0.00    -0.353 OA
HETATM   11  C   UNL     1       4.970  26.243  50.418  1.00  0.00     0.210 C 
ENDBRANCH   7  10
BRANCH   8  12
HETATM   12  O   UNL     1       6.413  23.851  53.145  1.00  0.00    -0.344 OA
BRANCH  12  13
HETATM   13  C   UNL     1       7.831  23.741  53.001  1.00  0.00     0.209 C 
BRANCH  13  14
HETATM   14  C   UNL     1       8.341  22.524  53.739  1.00  0.00    -0.069 C 
HETATM   15  C   UNL     1       8.124  21.199  53.062  1.00  0.00     0.044 C 
HETATM   16  C   UNL     1       8.937  22.611  54.940  1.00  0.00     0.016 C 
ENDBRANCH  13  14
ENDBRANCH  12  13
ENDBRANCH   8  12
ENDBRANCH   3   4
ENDBRANCH   1   3
BRANCH   1  17
HETATM   17  C   UNL     1       8.317  28.258  57.379  1.00  0.00     0.009 A 
HETATM   18  C   UNL     1       7.783  29.216  58.254  1.00  0.00     0.039 A 
HETATM   19  C   UNL     1       8.515  30.380  58.576  1.00  0.00     0.030 A 
HETATM   20  C   UNL     1       9.759  30.569  57.992  1.00  0.00     0.063 A 
HETATM   21  C   UNL     1       8.306  31.530  59.392  1.00  0.00     0.156 A 
HETATM   22  N   UNL     1      10.210  31.762  58.484  1.00  0.00    -0.277 N 
HETATM   23  C   UNL     1      10.318  29.664  57.091  1.00  0.00     0.034 A 
HETATM   24  H   UNL     1      11.090  32.220  58.272  1.00  0.00     0.189 HD
HETATM   25  N   UNL     1       9.362  32.373  59.330  1.00  0.00    -0.168 NA
HETATM   26  C   UNL     1       9.563  28.522  56.787  1.00  0.00     0.026 A 
BRANCH  21  27
HETATM   27  C   UNL     1       7.129  31.834  60.217  1.00  0.00     0.270 C 
HETATM   28  N   UNL     1       7.096  31.170  61.412  1.00  0.00    -0.365 N 
HETATM   29  H   UNL     1       7.861  30.544  61.641  1.00  0.00     0.159 HD
HETATM   30  H   UNL     1       6.336  31.327  62.053  1.00  0.00     0.159 HD
HETATM   31  O   UNL     1       6.237  32.613  59.896  1.00  0.00    -0.266 OA
ENDBRANCH  21  27
ENDBRANCH   1  17
TORSDOF 8
ENDMDL
MODEL 3
REMARK VINA RESULT:      -8.6      2.821      9.276
REMARK  8 active torsions:
REMARK  status: ('A' for Active; 'I' for Inactive)
REMARK    1  A    between atoms: C_2  and  C_3 
REMARK    2  A    between atoms: C_3  and  O_4 
REMARK    3  A    between atoms: O_4  and  C_5 
REMARK    4  A    between atoms: C_6  and  O_7 
REMARK    5  A    between atoms: C_11  and  C_12 
REMARK    6  A    between atoms: C_12  and  N_13 
REMARK    7  A    between atoms: N_13  and  C_14 
REMARK    8  A    between atoms: C_21  and  C_22 
REMARK       I    between atoms: C_22  and  N_23 
ROOT
HETATM    1  N   UNL     1       7.875  26.701  57.538  1.00  0.00    -0.289 NA
HETATM    2  H   UNL     1       8.068  26.295  58.449  1.00  0.00     0.128 HD
ENDROOT
BRANCH   1   3
HETATM    3  C   UNL     1       8.741  27.836  57.248  1.00  0.00     0.131 C 
BRANCH   3   4
HETATM    4  C   UNL     1       8.049  29.108  57.682  1.00  0.00    -0.042 A 
HETATM    5  C   UNL     1       6.673  29.277  57.496  1.00  0.00     0.011 A 
HETATM    6  C   UNL     1       6.040  30.457  57.902  1.00  0.00     0.040 A 
HETATM    7  C   UNL     1       6.777  31.489  58.492  1.00  0.00     0.101 A 
HETATM    8  C   UNL     1       8.166  31.341  58.642  1.00  0.00     0.102 A 
HETATM    9  C   UNL     1       8.791  30.152  58.252  1.00  0.00     0.048 A 
BRANCH   7  10
HETATM   10  O   UNL     1       6.245  32.679  58.919  1.00  0.00    -0.353 OA
HETATM   11  C   UNL     1       5.044  32.619  59.676  1.00  0.00     0.210 C 
ENDBRANCH   7  10
BRANCH   8  12
HETATM   12  O   UNL     1       8.846  32.360  59.260  1.00  0.00    -0.344 OA
BRANCH  12  13
HETATM   13  C   UNL     1       9.796  31.966  60.253  1.00  0.00     0.209 C 
BRANCH  13  14
HETATM   14  C   UNL     1       9.086  31.470  61.492  1.00  0.00    -0.069 C 
HETATM   15  C   UNL     1       8.076  32.405  62.098  1.00  0.00     0.044 C 
HETATM   16  C   UNL     1       9.350  30.270  62.039  1.00  0.00     0.016 C 
ENDBRANCH  13  14
ENDBRANCH  12  13
ENDBRANCH   8  12
ENDBRANCH   3   4
ENDBRANCH   1   3
BRANCH   1  17
HETATM   17  C   UNL     1       7.683  25.725  56.551  1.00  0.00     0.009 A 
HETATM   18  C   UNL     1       8.014  24.373  56.737  1.00  0.00     0.039 A 
HETATM   19  C   UNL     1       7.881  23.451  55.676  1.00  0.00     0.030 A 
HETATM   20  C   UNL     1       7.441  23.909  54.443  1.00  0.00     0.063 A 
HETATM   21  C   UNL     1       8.112  22.055  55.495  1.00  0.00     0.156 A 
HETATM   22  N   UNL     1       7.420  22.807  53.635  1.00  0.00    -0.277 N 
HETATM   23  C   UNL     1       7.132  25.247  54.199  1.00  0.00     0.034 A 
HETATM   24  H   UNL     1       7.149  22.767  52.658  1.00  0.00     0.189 HD
HETATM   25  N   UNL     1       7.820  21.670  54.232  1.00  0.00    -0.168 NA
HETATM   26  C   UNL     1       7.282  26.139  55.271  1.00  0.00     0.026 A 
BRANCH  21  27
HETATM   27  C   UNL     1       8.604  21.098  56.495  1.00  0.00     0.270 C 
HETATM   28  N   UNL     1       9.437  20.138  55.988  1.00  0.00    -0.365 N 
HETATM   29  H   UNL     1       9.655  20.158  54.998  1.00  0.00     0.159 HD
HETATM   30  H   UNL     1       9.838  19.447  56.601  1.00  0.00     0.159 HD
HETATM   31  O   UNL     1       8.318  21.128  57.687  1.00  0.00    -0.266 OA
ENDBRANCH  21  27
ENDBRANCH   1  17
TORSDOF 8
ENDMDL
MODEL 4
REMARK VINA RESULT:      -8.6      1.593      2.137
REMARK  8 active torsions:
REMARK  status: ('A' for Active; 'I' for Inactive)
REMARK    1  A    between atoms: C_2  and  C_3 
REMARK    2  A    between atoms: C_3  and  O_4 
REMARK    3  A    between atoms: O_4  and  C_5 
REMARK    4  A    between atoms: C_6  and  O_7 
REMARK    5  A    between atoms: C_11  and  C_12 
REMARK    6  A    between atoms: C_12  and  N_13 
REMARK    7  A    between atoms: N_13  and  C_14 
REMARK    8  A    between atoms: C_21  and  C_22 
REMARK       I    between atoms: C_22  and  N_23 
ROOT
HETATM    1  N   UNL     1       8.507  26.677  57.003  1.00  0.00    -0.289 NA
HETATM    2  H   UNL     1       9.493  26.725  57.242  1.00  0.00     0.128 HD
ENDROOT
BRANCH   1   3
HETATM    3  C   UNL     1       7.896  25.428  57.442  1.00  0.00     0.131 C 
BRANCH   3   4
HETATM    4  C   UNL     1       7.841  24.469  56.275  1.00  0.00    -0.042 A 
HETATM    5  C   UNL     1       8.615  23.304  56.265  1.00  0.00     0.011 A 
HETATM    6  C   UNL     1       8.557  22.420  55.182  1.00  0.00     0.040 A 
HETATM    7  C   UNL     1       7.731  22.695  54.087  1.00  0.00     0.101 A 
HETATM    8  C   UNL     1       6.984  23.885  54.074  1.00  0.00     0.102 A 
HETATM    9  C   UNL     1       7.031  24.755  55.168  1.00  0.00     0.048 A 
BRANCH   7  10
HETATM   10  O   UNL     1       7.610  21.891  52.982  1.00  0.00    -0.353 OA
HETATM   11  C   UNL     1       8.256  20.627  53.026  1.00  0.00     0.210 C 
ENDBRANCH   7  10
BRANCH   8  12
HETATM   12  O   UNL     1       6.157  24.098  53.000  1.00  0.00    -0.344 OA
BRANCH  12  13
HETATM   13  C   UNL     1       4.976  24.860  53.261  1.00  0.00     0.209 C 
BRANCH  13  14
HETATM   14  C   UNL     1       5.010  26.163  52.495  1.00  0.00    -0.069 C 
HETATM   15  C   UNL     1       5.471  26.081  51.067  1.00  0.00     0.044 C 
HETATM   16  C   UNL     1       4.670  27.336  53.058  1.00  0.00     0.016 C 
ENDBRANCH  13  14
ENDBRANCH  12  13
ENDBRANCH   8  12
ENDBRANCH   3   4
ENDBRANCH   1   3
BRANCH   1  17
HETATM   17  C   UNL     1       7.840  27.883  57.254  1.00  0.00     0.009 A 
HETATM   18  C   UNL     1       8.454  28.982  57.874  1.00  0.00     0.039 A 
HETATM   19  C   UNL     1       7.708  30.141  58.181  1.00  0.00     0.030 A 
HETATM   20  C   UNL     1       6.354  30.163  57.881  1.00  0.00     0.063 A 
HETATM   21  C   UNL     1       7.977  31.404  58.786  1.00  0.00     0.156 A 
HETATM   22  N   UNL     1       5.912  31.389  58.292  1.00  0.00    -0.277 N 
HETATM   23  C   UNL     1       5.690  29.084  57.298  1.00  0.00     0.034 A 
HETATM   24  H   UNL     1       4.968  31.754  58.231  1.00  0.00     0.189 HD
HETATM   25  N   UNL     1       6.861  32.166  58.845  1.00  0.00    -0.168 NA
HETATM   26  C   UNL     1       6.458  27.946  57.012  1.00  0.00     0.026 A 
BRANCH  21  27
HETATM   27  C   UNL     1       9.263  31.886  59.305  1.00  0.00     0.270 C 
HETATM   28  N   UNL     1       9.351  31.889  60.670  1.00  0.00    -0.365 N 
HETATM   29  H   UNL     1       8.556  31.563  61.208  1.00  0.00     0.159 HD
HETATM   30  H   UNL     1      10.203  32.187  61.118  1.00  0.00     0.159 HD
HETATM   31  O   UNL     1      10.201  32.258  58.606  1.00  0.00    -0.266 OA
ENDBRANCH  21  27
ENDBRANCH   1  17
TORSDOF 8
ENDMDL
MODEL 5
REMARK VINA RESULT:      -8.5      2.456      9.141
REMARK  8 active torsions:
REMARK  status: ('A' for Active; 'I' for Inactive)
REMARK    1  A    between atoms: C_2  and  C_3 
REMARK    2  A    between atoms: C_3  and  O_4 
REMARK    3  A    between atoms: O_4  and  C_5 
REMARK    4  A    between atoms: C_6  and  O_7 
REMARK    5  A    between atoms: C_11  and  C_12 
REMARK    6  A    between atoms: C_12  and  N_13 
REMARK    7  A    between atoms: N_13  and  C_14 
REMARK    8  A    between atoms: C_21  and  C_22 
REMARK       I    between atoms: C_22  and  N_23 
ROOT
HETATM    1  N   UNL     1       8.009  26.951  57.622  1.00  0.00    -0.289 NA
HETATM    2  H   UNL     1       8.144  26.679  58.591  1.00  0.00     0.128 HD
ENDROOT
BRANCH   1   3
HETATM    3  C   UNL     1       8.783  28.134  57.270  1.00  0.00     0.131 C 
BRANCH   3   4
HETATM    4  C   UNL     1       8.037  29.366  57.730  1.00  0.00    -0.042 A 
HETATM    5  C   UNL     1       6.677  29.531  57.447  1.00  0.00     0.011 A 
HETATM    6  C   UNL     1       5.994  30.673  57.879  1.00  0.00     0.040 A 
HETATM    7  C   UNL     1       6.664  31.672  58.591  1.00  0.00     0.101 A 
HETATM    8  C   UNL     1       8.040  31.531  58.840  1.00  0.00     0.102 A 
HETATM    9  C   UNL     1       8.714  30.378  58.424  1.00  0.00     0.048 A 
BRANCH   7  10
HETATM   10  O   UNL     1       6.080  32.825  59.052  1.00  0.00    -0.353 OA
HETATM   11  C   UNL     1       4.800  32.707  59.656  1.00  0.00     0.210 C 
ENDBRANCH   7  10
BRANCH   8  12
HETATM   12  O   UNL     1       8.652  32.515  59.575  1.00  0.00    -0.344 OA
BRANCH  12  13
HETATM   13  C   UNL     1       9.675  32.080  60.474  1.00  0.00     0.209 C 
BRANCH  13  14
HETATM   14  C   UNL     1       9.065  31.582  61.764  1.00  0.00    -0.069 C 
HETATM   15  C   UNL     1       9.375  30.159  62.139  1.00  0.00     0.044 C 
HETATM   16  C   UNL     1       8.272  32.353  62.528  1.00  0.00     0.016 C 
ENDBRANCH  13  14
ENDBRANCH  12  13
ENDBRANCH   8  12
ENDBRANCH   3   4
ENDBRANCH   1   3
BRANCH   1  17
HETATM   17  C   UNL     1       8.021  25.850  56.755  1.00  0.00     0.009 A 
HETATM   18  C   UNL     1       7.252  25.791  55.583  1.00  0.00     0.039 A 
HETATM   19  C   UNL     1       7.237  24.619  54.794  1.00  0.00     0.030 A 
HETATM   20  C   UNL     1       7.977  23.523  55.212  1.00  0.00     0.063 A 
HETATM   21  C   UNL     1       6.601  24.203  53.587  1.00  0.00     0.156 A 
HETATM   22  N   UNL     1       7.763  22.561  54.265  1.00  0.00    -0.277 N 
HETATM   23  C   UNL     1       8.729  23.520  56.385  1.00  0.00     0.034 A 
HETATM   24  H   UNL     1       8.146  21.622  54.245  1.00  0.00     0.189 HD
HETATM   25  N   UNL     1       6.937  22.932  53.270  1.00  0.00    -0.168 NA
HETATM   26  C   UNL     1       8.717  24.696  57.150  1.00  0.00     0.026 A 
BRANCH  21  27
HETATM   27  C   UNL     1       5.687  24.988  52.746  1.00  0.00     0.270 C 
HETATM   28  N   UNL     1       4.396  25.014  53.195  1.00  0.00    -0.365 N 
HETATM   29  H   UNL     1       4.169  24.516  54.049  1.00  0.00     0.159 HD
HETATM   30  H   UNL     1       3.700  25.541  52.693  1.00  0.00     0.159 HD
HETATM   31  O   UNL     1       6.020  25.585  51.726  1.00  0.00    -0.266 OA
ENDBRANCH  21  27
ENDBRANCH   1  17
TORSDOF 8
ENDMDL
MODEL 6
REMARK VINA RESULT:      -8.2      3.312      8.467
REMARK  8 active torsions:
REMARK  status: ('A' for Active; 'I' for Inactive)
REMARK    1  A    between atoms: C_2  and  C_3 
REMARK    2  A    between atoms: C_3  and  O_4 
REMARK    3  A    between atoms: O_4  and  C_5 
REMARK    4  A    between atoms: C_6  and  O_7 
REMARK    5  A    between atoms: C_11  and  C_12 
REMARK    6  A    between atoms: C_12  and  N_13 
REMARK    7  A    between atoms: N_13  and  C_14 
REMARK    8  A    between atoms: C_21  and  C_22 
REMARK       I    between atoms: C_22  and  N_23 
ROOT
HETATM    1  N   UNL     1       4.958  26.600  55.676  1.00  0.00    -0.289 NA
HETATM    2  H   UNL     1       5.031  26.510  56.685  1.00  0.00     0.128 HD
ENDROOT
BRANCH   1   3
HETATM    3  C   UNL     1       5.181  27.969  55.229  1.00  0.00     0.131 C 
BRANCH   3   4
HETATM    4  C   UNL     1       6.466  28.483  55.836  1.00  0.00    -0.042 A 
HETATM    5  C   UNL     1       7.645  28.540  55.084  1.00  0.00     0.011 A 
HETATM    6  C   UNL     1       8.830  29.019  55.654  1.00  0.00     0.040 A 
HETATM    7  C   UNL     1       8.856  29.439  56.988  1.00  0.00     0.101 A 
HETATM    8  C   UNL     1       7.685  29.344  57.759  1.00  0.00     0.102 A 
HETATM    9  C   UNL     1       6.498  28.883  57.179  1.00  0.00     0.048 A 
BRANCH   7  10
HETATM   10  O   UNL     1       9.967  29.920  57.631  1.00  0.00    -0.353 OA
HETATM   11  C   UNL     1      11.224  29.705  57.003  1.00  0.00     0.210 C 
ENDBRANCH   7  10
BRANCH   8  12
HETATM   12  O   UNL     1       7.741  29.803  59.051  1.00  0.00    -0.344 OA
BRANCH  12  13
HETATM   13  C   UNL     1       7.444  31.188  59.237  1.00  0.00     0.209 C 
BRANCH  13  14
HETATM   14  C   UNL     1       8.138  31.714  60.474  1.00  0.00    -0.069 C 
HETATM   15  C   UNL     1       7.318  31.740  61.734  1.00  0.00     0.044 C 
HETATM   16  C   UNL     1       9.408  32.152  60.452  1.00  0.00     0.016 C 
ENDBRANCH  13  14
ENDBRANCH  12  13
ENDBRANCH   8  12
ENDBRANCH   3   4
ENDBRANCH   1   3
BRANCH   1  17
HETATM   17  C   UNL     1       5.600  25.553  55.001  1.00  0.00     0.009 A 
HETATM   18  C   UNL     1       6.370  24.579  55.656  1.00  0.00     0.039 A 
HETATM   19  C   UNL     1       7.066  23.600  54.915  1.00  0.00     0.030 A 
HETATM   20  C   UNL     1       6.995  23.633  53.530  1.00  0.00     0.063 A 
HETATM   21  C   UNL     1       7.917  22.496  55.218  1.00  0.00     0.156 A 
HETATM   22  N   UNL     1       7.760  22.583  53.103  1.00  0.00    -0.277 N 
HETATM   23  C   UNL     1       6.272  24.600  52.832  1.00  0.00     0.034 A 
HETATM   24  H   UNL     1       7.938  22.303  52.145  1.00  0.00     0.189 HD
HETATM   25  N   UNL     1       8.334  21.875  54.092  1.00  0.00    -0.168 NA
HETATM   26  C   UNL     1       5.598  25.563  53.597  1.00  0.00     0.026 A 
BRANCH  21  27
HETATM   27  C   UNL     1       8.333  22.033  56.549  1.00  0.00     0.270 C 
HETATM   28  N   UNL     1       8.454  23.031  57.476  1.00  0.00    -0.365 N 
HETATM   29  H   UNL     1       8.248  23.983  57.194  1.00  0.00     0.159 HD
HETATM   30  H   UNL     1       8.719  22.808  58.422  1.00  0.00     0.159 HD
HETATM   31  O   UNL     1       8.558  20.862  56.840  1.00  0.00    -0.266 OA
ENDBRANCH  21  27
ENDBRANCH   1  17
TORSDOF 8
ENDMDL
MODEL 7
REMARK VINA RESULT:      -8.2      3.869     10.206
REMARK  8 active torsions:
REMARK  status: ('A' for Active; 'I' for Inactive)
REMARK    1  A    between atoms: C_2  and  C_3 
REMARK    2  A    between atoms: C_3  and  O_4 
REMARK    3  A    between atoms: O_4  and  C_5 
REMARK    4  A    between atoms: C_6  and  O_7 
REMARK    5  A    between atoms: C_11  and  C_12 
REMARK    6  A    between atoms: C_12  and  N_13 
REMARK    7  A    between atoms: N_13  and  C_14 
REMARK    8  A    between atoms: C_21  and  C_22 
REMARK       I    between atoms: C_22  and  N_23 
ROOT
HETATM    1  N   UNL     1       7.979  30.803  61.262  1.00  0.00    -0.289 NA
HETATM    2  H   UNL     1       7.799  29.874  61.632  1.00  0.00     0.128 HD
ENDROOT
BRANCH   1   3
HETATM    3  C   UNL     1       8.525  31.700  62.273  1.00  0.00     0.131 C 
BRANCH   3   4
HETATM    4  C   UNL     1       7.389  32.276  63.086  1.00  0.00    -0.042 A 
HETATM    5  C   UNL     1       7.637  32.977  64.272  1.00  0.00     0.011 A 
HETATM    6  C   UNL     1       6.579  33.509  65.018  1.00  0.00     0.040 A 
HETATM    7  C   UNL     1       5.258  33.339  64.594  1.00  0.00     0.101 A 
HETATM    8  C   UNL     1       5.002  32.600  63.427  1.00  0.00     0.102 A 
HETATM    9  C   UNL     1       6.063  32.087  62.674  1.00  0.00     0.048 A 
BRANCH   7  10
HETATM   10  O   UNL     1       4.159  33.822  65.259  1.00  0.00    -0.353 OA
HETATM   11  C   UNL     1       3.930  35.223  65.202  1.00  0.00     0.210 C 
ENDBRANCH   7  10
BRANCH   8  12
HETATM   12  O   UNL     1       3.695  32.490  63.024  1.00  0.00    -0.344 OA
BRANCH  12  13
HETATM   13  C   UNL     1       3.419  32.883  61.677  1.00  0.00     0.209 C 
BRANCH  13  14
HETATM   14  C   UNL     1       3.167  34.372  61.606  1.00  0.00    -0.069 C 
HETATM   15  C   UNL     1       1.813  34.838  62.065  1.00  0.00     0.044 C 
HETATM   16  C   UNL     1       4.087  35.235  61.141  1.00  0.00     0.016 C 
ENDBRANCH  13  14
ENDBRANCH  12  13
ENDBRANCH   8  12
ENDBRANCH   3   4
ENDBRANCH   1   3
BRANCH   1  17
HETATM   17  C   UNL     1       8.577  30.764  59.996  1.00  0.00     0.009 A 
HETATM   18  C   UNL     1       8.263  29.794  59.031  1.00  0.00     0.039 A 
HETATM   19  C   UNL     1       8.961  29.751  57.804  1.00  0.00     0.030 A 
HETATM   20  C   UNL     1       9.977  30.669  57.582  1.00  0.00     0.063 A 
HETATM   21  C   UNL     1       8.924  28.942  56.630  1.00  0.00     0.156 A 
HETATM   22  N   UNL     1      10.459  30.379  56.336  1.00  0.00    -0.277 N 
HETATM   23  C   UNL     1      10.350  31.629  58.522  1.00  0.00     0.034 A 
HETATM   24  H   UNL     1      11.211  30.848  55.844  1.00  0.00     0.189 HD
HETATM   25  N   UNL     1       9.850  29.343  55.730  1.00  0.00    -0.168 NA
HETATM   26  C   UNL     1       9.642  31.640  59.732  1.00  0.00     0.026 A 
BRANCH  21  27
HETATM   27  C   UNL     1       8.032  27.807  56.360  1.00  0.00     0.270 C 
HETATM   28  N   UNL     1       8.331  26.678  57.071  1.00  0.00    -0.365 N 
HETATM   29  H   UNL     1       9.112  26.704  57.717  1.00  0.00     0.159 HD
HETATM   30  H   UNL     1       7.764  25.852  56.965  1.00  0.00     0.159 HD
HETATM   31  O   UNL     1       7.089  27.834  55.575  1.00  0.00    -0.266 OA
ENDBRANCH  21  27
ENDBRANCH   1  17
TORSDOF 8
ENDMDL
MODEL 8
REMARK VINA RESULT:      -8.0      3.342      8.870
REMARK  8 active torsions:
REMARK  status: ('A' for Active; 'I' for Inactive)
REMARK    1  A    between atoms: C_2  and  C_3 
REMARK    2  A    between atoms: C_3  and  O_4 
REMARK    3  A    between atoms: O_4  and  C_5 
REMARK    4  A    between atoms: C_6  and  O_7 
REMARK    5  A    between atoms: C_11  and  C_12 
REMARK    6  A    between atoms: C_12  and  N_13 
REMARK    7  A    between atoms: N_13  and  C_14 
REMARK    8  A    between atoms: C_21  and  C_22 
REMARK       I    between atoms: C_22  and  N_23 
ROOT
HETATM    1  N   UNL     1       6.894  26.087  55.130  1.00  0.00    -0.289 NA
HETATM    2  H   UNL     1       7.661  26.745  55.032  1.00  0.00     0.128 HD
ENDROOT
BRANCH   1   3
HETATM    3  C   UNL     1       5.599  26.714  54.894  1.00  0.00     0.131 C 
BRANCH   3   4
HETATM    4  C   UNL     1       5.461  27.915  55.802  1.00  0.00    -0.042 A 
HETATM    5  C   UNL     1       4.236  28.578  55.936  1.00  0.00     0.011 A 
HETATM    6  C   UNL     1       4.115  29.688  56.780  1.00  0.00     0.040 A 
HETATM    7  C   UNL     1       5.222  30.155  57.496  1.00  0.00     0.101 A 
HETATM    8  C   UNL     1       6.464  29.518  57.333  1.00  0.00     0.102 A 
HETATM    9  C   UNL     1       6.574  28.398  56.503  1.00  0.00     0.048 A 
BRANCH   7  10
HETATM   10  O   UNL     1       5.200  31.233  58.344  1.00  0.00    -0.353 OA
HETATM   11  C   UNL     1       3.929  31.682  58.792  1.00  0.00     0.210 C 
ENDBRANCH   7  10
BRANCH   8  12
HETATM   12  O   UNL     1       7.515  29.984  58.083  1.00  0.00    -0.344 OA
BRANCH  12  13
HETATM   13  C   UNL     1       8.715  29.209  58.028  1.00  0.00     0.209 C 
BRANCH  13  14
HETATM   14  C   UNL     1       9.890  30.085  57.659  1.00  0.00    -0.069 C 
HETATM   15  C   UNL     1      10.004  31.389  58.400  1.00  0.00     0.044 C 
HETATM   16  C   UNL     1      10.776  29.736  56.710  1.00  0.00     0.016 C 
ENDBRANCH  13  14
ENDBRANCH  12  13
ENDBRANCH   8  12
ENDBRANCH   3   4
ENDBRANCH   1   3
BRANCH   1  17
HETATM   17  C   UNL     1       7.170  24.854  54.525  1.00  0.00     0.009 A 
HETATM   18  C   UNL     1       7.650  23.743  55.236  1.00  0.00     0.039 A 
HETATM   19  C   UNL     1       7.994  22.553  54.558  1.00  0.00     0.030 A 
HETATM   20  C   UNL     1       7.872  22.511  53.177  1.00  0.00     0.063 A 
HETATM   21  C   UNL     1       8.497  21.271  54.928  1.00  0.00     0.156 A 
HETATM   22  N   UNL     1       8.276  21.256  52.817  1.00  0.00    -0.277 N 
HETATM   23  C   UNL     1       7.433  23.598  52.423  1.00  0.00     0.034 A 
HETATM   24  H   UNL     1       8.320  20.870  51.881  1.00  0.00     0.189 HD
HETATM   25  N   UNL     1       8.663  20.478  53.845  1.00  0.00    -0.168 NA
HETATM   26  C   UNL     1       7.106  24.767  53.125  1.00  0.00     0.026 A 
BRANCH  21  27
HETATM   27  C   UNL     1       8.820  20.798  56.281  1.00  0.00     0.270 C 
HETATM   28  N   UNL     1       9.811  19.856  56.323  1.00  0.00    -0.365 N 
HETATM   29  H   UNL     1      10.242  19.566  55.452  1.00  0.00     0.159 HD
HETATM   30  H   UNL     1      10.113  19.484  57.209  1.00  0.00     0.159 HD
HETATM   31  O   UNL     1       8.273  21.194  57.306  1.00  0.00    -0.266 OA
ENDBRANCH  21  27
ENDBRANCH   1  17
TORSDOF 8
ENDMDL
MODEL 9
REMARK VINA RESULT:      -8.0      4.632      8.575
REMARK  8 active torsions:
REMARK  status: ('A' for Active; 'I' for Inactive)
REMARK    1  A    between atoms: C_2  and  C_3 
REMARK    2  A    between atoms: C_3  and  O_4 
REMARK    3  A    between atoms: O_4  and  C_5 
REMARK    4  A    between atoms: C_6  and  O_7 
REMARK    5  A    between atoms: C_11  and  C_12 
REMARK    6  A    between atoms: C_12  and  N_13 
REMARK    7  A    between atoms: N_13  and  C_14 
REMARK    8  A    between atoms: C_21  and  C_22 
REMARK       I    between atoms: C_22  and  N_23 
ROOT
HETATM    1  N   UNL     1       5.774  25.390  51.774  1.00  0.00    -0.289 NA
HETATM    2  H   UNL     1       5.226  24.540  51.675  1.00  0.00     0.128 HD
ENDROOT
BRANCH   1   3
HETATM    3  C   UNL     1       7.207  25.123  51.767  1.00  0.00     0.131 C 
BRANCH   3   4
HETATM    4  C   UNL     1       7.571  24.354  53.017  1.00  0.00    -0.042 A 
HETATM    5  C   UNL     1       7.821  22.978  52.967  1.00  0.00     0.011 A 
HETATM    6  C   UNL     1       8.160  22.275  54.128  1.00  0.00     0.040 A 
HETATM    7  C   UNL     1       8.244  22.935  55.358  1.00  0.00     0.101 A 
HETATM    8  C   UNL     1       7.952  24.309  55.420  1.00  0.00     0.102 A 
HETATM    9  C   UNL     1       7.633  25.011  54.253  1.00  0.00     0.048 A 
BRANCH   7  10
HETATM   10  O   UNL     1       8.566  22.330  56.546  1.00  0.00    -0.353 OA
HETATM   11  C   UNL     1       8.458  20.915  56.604  1.00  0.00     0.210 C 
ENDBRANCH   7  10
BRANCH   8  12
HETATM   12  O   UNL     1       8.083  24.928  56.637  1.00  0.00    -0.344 OA
BRANCH  12  13
HETATM   13  C   UNL     1       6.897  25.525  57.167  1.00  0.00     0.209 C 
BRANCH  13  14
HETATM   14  C   UNL     1       7.021  27.032  57.164  1.00  0.00    -0.069 C 
HETATM   15  C   UNL     1       8.420  27.582  57.191  1.00  0.00     0.044 C 
HETATM   16  C   UNL     1       5.948  27.841  57.157  1.00  0.00     0.016 C 
ENDBRANCH  13  14
ENDBRANCH  12  13
ENDBRANCH   8  12
ENDBRANCH   3   4
ENDBRANCH   1   3
BRANCH   1  17
HETATM   17  C   UNL     1       5.275  26.437  50.988  1.00  0.00     0.009 A 
HETATM   18  C   UNL     1       4.503  26.227  49.835  1.00  0.00     0.039 A 
HETATM   19  C   UNL     1       4.102  27.318  49.032  1.00  0.00     0.030 A 
HETATM   20  C   UNL     1       4.506  28.595  49.392  1.00  0.00     0.063 A 
HETATM   21  C   UNL     1       3.345  27.488  47.836  1.00  0.00     0.156 A 
HETATM   22  N   UNL     1       3.978  29.422  48.440  1.00  0.00    -0.277 N 
HETATM   23  C   UNL     1       5.302  28.852  50.508  1.00  0.00     0.034 A 
HETATM   24  H   UNL     1       4.071  30.430  48.382  1.00  0.00     0.189 HD
HETATM   25  N   UNL     1       3.273  28.792  47.483  1.00  0.00    -0.168 NA
HETATM   26  C   UNL     1       5.689  27.747  51.279  1.00  0.00     0.026 A 
BRANCH  21  27
HETATM   27  C   UNL     1       2.702  26.439  47.033  1.00  0.00     0.270 C 
HETATM   28  N   UNL     1       1.481  26.791  46.527  1.00  0.00    -0.365 N 
HETATM   29  H   UNL     1       1.122  27.718  46.727  1.00  0.00     0.159 HD
HETATM   30  H   UNL     1       0.971  26.143  45.950  1.00  0.00     0.159 HD
HETATM   31  O   UNL     1       3.190  25.335  46.811  1.00  0.00    -0.266 OA
ENDBRANCH  21  27
ENDBRANCH   1  17
TORSDOF 8
ENDMDL
MODEL 10
REMARK VINA RESULT:      -7.9      2.072      3.756
REMARK  8 active torsions:
REMARK  status: ('A' for Active; 'I' for Inactive)
REMARK    1  A    between atoms: C_2  and  C_3 
REMARK    2  A    between atoms: C_3  and  O_4 
REMARK    3  A    between atoms: O_4  and  C_5 
REMARK    4  A    between atoms: C_6  and  O_7 
REMARK    5  A    between atoms: C_11  and  C_12 
REMARK    6  A    between atoms: C_12  and  N_13 
REMARK    7  A    between atoms: N_13  and  C_14 
REMARK    8  A    between atoms: C_21  and  C_22 
REMARK       I    between atoms: C_22  and  N_23 
ROOT
HETATM    1  N   UNL     1       8.466  28.639  56.696  1.00  0.00    -0.289 NA
HETATM    2  H   UNL     1       9.377  28.823  56.285  1.00  0.00     0.128 HD
ENDROOT
BRANCH   1   3
HETATM    3  C   UNL     1       8.292  27.232  57.036  1.00  0.00     0.131 C 
BRANCH   3   4
HETATM    4  C   UNL     1       7.365  26.593  56.029  1.00  0.00    -0.042 A 
HETATM    5  C   UNL     1       6.308  27.315  55.464  1.00  0.00     0.011 A 
HETATM    6  C   UNL     1       5.455  26.716  54.530  1.00  0.00     0.040 A 
HETATM    7  C   UNL     1       5.641  25.382  54.155  1.00  0.00     0.101 A 
HETATM    8  C   UNL     1       6.675  24.640  54.751  1.00  0.00     0.102 A 
HETATM    9  C   UNL     1       7.536  25.249  55.669  1.00  0.00     0.048 A 
BRANCH   7  10
HETATM   10  O   UNL     1       4.857  24.711  53.252  1.00  0.00    -0.353 OA
HETATM   11  C   UNL     1       4.953  25.105  51.890  1.00  0.00     0.210 C 
ENDBRANCH   7  10
BRANCH   8  12
HETATM   12  O   UNL     1       6.848  23.346  54.328  1.00  0.00    -0.344 OA
BRANCH  12  13
HETATM   13  C   UNL     1       8.085  23.062  53.671  1.00  0.00     0.209 C 
BRANCH  13  14
HETATM   14  C   UNL     1       8.478  21.619  53.890  1.00  0.00    -0.069 C 
HETATM   15  C   UNL     1       9.118  21.298  55.212  1.00  0.00     0.044 C 
HETATM   16  C   UNL     1       8.287  20.673  52.954  1.00  0.00     0.016 C 
ENDBRANCH  13  14
ENDBRANCH  12  13
ENDBRANCH   8  12
ENDBRANCH   3   4
ENDBRANCH   1   3
BRANCH   1  17
HETATM   17  C   UNL     1       8.099  29.613  57.634  1.00  0.00     0.009 A 
HETATM   18  C   UNL     1       6.785  30.084  57.773  1.00  0.00     0.039 A 
HETATM   19  C   UNL     1       6.490  31.131  58.674  1.00  0.00     0.030 A 
HETATM   20  C   UNL     1       7.526  31.699  59.400  1.00  0.00     0.063 A 
HETATM   21  C   UNL     1       5.321  31.846  59.069  1.00  0.00     0.156 A 
HETATM   22  N   UNL     1       6.941  32.669  60.165  1.00  0.00    -0.277 N 
HETATM   23  C   UNL     1       8.853  31.290  59.272  1.00  0.00     0.034 A 
HETATM   24  H   UNL     1       7.399  33.291  60.822  1.00  0.00     0.189 HD
HETATM   25  N   UNL     1       5.613  32.789  59.993  1.00  0.00    -0.168 NA
HETATM   26  C   UNL     1       9.114  30.254  58.363  1.00  0.00     0.026 A 
BRANCH  21  27
HETATM   27  C   UNL     1       3.949  31.647  58.582  1.00  0.00     0.270 C 
HETATM   28  N   UNL     1       3.433  30.410  58.853  1.00  0.00    -0.365 N 
HETATM   29  H   UNL     1       4.007  29.744  59.358  1.00  0.00     0.159 HD
HETATM   30  H   UNL     1       2.492  30.186  58.573  1.00  0.00     0.159 HD
HETATM   31  O   UNL     1       3.293  32.495  57.986  1.00  0.00    -0.266 OA
ENDBRANCH  21  27
ENDBRANCH   1  17
TORSDOF 8
ENDMDL
