MODEL 1
REMARK VINA RESULT:      -9.4      0.000      0.000
REMARK  8 active torsions:
REMARK  status: ('A' for Active; 'I' for Inactive)
REMARK    1  A    between atoms: C_2  and  N_3 
REMARK    2  A    between atoms: N_3  and  C_5 
REMARK    3  A    between atoms: N_3  and  C_30 
REMARK    4  A    between atoms: C_5  and  C_6 
REMARK    5  A    between atoms: C_6  and  N_7 
REMARK       I    between atoms: N_7  and  C_8 
REMARK    6  A    between atoms: C_8  and  C_9 
REMARK    7  A    between atoms: C_9  and  O_10 
REMARK    8  A    between atoms: N_11  and  C_12 
ROOT
HETATM    1  C   UNL     1       5.697  25.923  55.603  1.00  0.00     0.256 C 
HETATM    2  N   UNL     1       7.036  25.326  55.810  1.00  0.00    -0.254 N 
HETATM    3  C   UNL     1       7.930  25.894  56.711  1.00  0.00     0.330 C 
HETATM    4  O   UNL     1       8.974  25.379  57.107  1.00  0.00    -0.246 OA
HETATM    5  N   UNL     1       7.655  27.135  57.191  1.00  0.00    -0.308 N 
HETATM    6  C   UNL     1       6.525  27.884  56.926  1.00  0.00     0.048 A 
HETATM    7  C   UNL     1       5.520  27.326  56.154  1.00  0.00     0.034 A 
HETATM    8  C   UNL     1       6.406  29.168  57.460  1.00  0.00     0.030 A 
HETATM    9  C   UNL     1       5.253  29.913  57.221  1.00  0.00     0.002 A 
HETATM   10  C   UNL     1       4.218  29.363  56.470  1.00  0.00     0.001 A 
HETATM   11  C   UNL     1       4.345  28.074  55.950  1.00  0.00     0.015 A 
HETATM   12  H   UNL     1       8.359  27.496  57.825  1.00  0.00     0.170 HD
ENDROOT
BRANCH   1  13
HETATM   13  C   UNL     1       5.410  26.033  54.023  1.00  0.00     0.279 C 
HETATM   14  N   UNL     1       6.029  27.094  53.364  1.00  0.00    -0.355 N 
HETATM   15  H   UNL     1       6.829  27.514  53.833  1.00  0.00     0.162 HD
HETATM   16  O   UNL     1       4.596  25.334  53.414  1.00  0.00    -0.268 OA
BRANCH  14  17
HETATM   17  C   UNL     1       5.894  27.221  51.929  1.00  0.00     0.150 C 
BRANCH  17  18
HETATM   18  C   UNL     1       4.702  28.115  51.535  1.00  0.00     0.254 C 
BRANCH  18  19
HETATM   19  N   UNL     1       3.872  27.573  50.377  1.00  0.00    -0.070 N 
HETATM   20  H   UNL     1       3.056  27.125  50.814  1.00  0.00     0.279 HD
BRANCH  19  21
HETATM   21  C   UNL     1       4.580  26.461  49.610  1.00  0.00     0.230 C 
HETATM   22  C   UNL     1       4.644  26.784  48.127  1.00  0.00     0.034 C 
ENDBRANCH  19  21
BRANCH  19  23
HETATM   23  C   UNL     1       3.306  28.621  49.441  1.00  0.00     0.230 C 
HETATM   24  C   UNL     1       1.797  28.716  49.567  1.00  0.00     0.034 C 
ENDBRANCH  19  23
ENDBRANCH  18  19
ENDBRANCH  17  18
ENDBRANCH  14  17
ENDBRANCH   1  13
BRANCH   1  25
HETATM   25  O   UNL     1       4.766  25.133  56.320  1.00  0.00    -0.359 OA
HETATM   26  H   UNL     1       3.900  25.358  55.943  1.00  0.00     0.213 HD
ENDBRANCH   1  25
BRANCH   2  27
HETATM   27  C   UNL     1       7.388  24.097  55.107  1.00  0.00     0.043 A 
HETATM   28  C   UNL     1       7.363  22.856  55.768  1.00  0.00     0.037 A 
HETATM   29  C   UNL     1       7.759  21.655  55.145  1.00  0.00    -0.054 A 
HETATM   30  C   UNL     1       7.696  20.370  55.928  1.00  0.00     0.049 C 
HETATM   31  C   UNL     1       8.219  21.686  53.821  1.00  0.00    -0.056 A 
HETATM   32  C   UNL     1       8.633  20.435  53.099  1.00  0.00     0.049 C 
HETATM   33  C   UNL     1       8.247  22.913  53.148  1.00  0.00     0.009 A 
HETATM   34  C   UNL     1       7.847  24.097  53.781  1.00  0.00     0.030 A 
ENDBRANCH   2  27
TORSDOF 8
ENDMDL
MODEL 2
REMARK VINA RESULT:      -8.5      2.523      7.591
REMARK  8 active torsions:
REMARK  status: ('A' for Active; 'I' for Inactive)
REMARK    1  A    between atoms: C_2  and  N_3 
REMARK    2  A    between atoms: N_3  and  C_5 
REMARK    3  A    between atoms: N_3  and  C_30 
REMARK    4  A    between atoms: C_5  and  C_6 
REMARK    5  A    between atoms: C_6  and  N_7 
REMARK       I    between atoms: N_7  and  C_8 
REMARK    6  A    between atoms: C_8  and  C_9 
REMARK    7  A    between atoms: C_9  and  O_10 
REMARK    8  A    between atoms: N_11  and  C_12 
ROOT
HETATM    1  C   UNL     1       6.070  26.340  54.765  1.00  0.00     0.256 C 
HETATM    2  N   UNL     1       5.531  26.374  53.386  1.00  0.00    -0.254 N 
HETATM    3  C   UNL     1       5.537  25.228  52.597  1.00  0.00     0.330 C 
HETATM    4  O   UNL     1       4.944  25.090  51.530  1.00  0.00    -0.246 OA
HETATM    5  N   UNL     1       6.277  24.168  53.014  1.00  0.00    -0.308 N 
HETATM    6  C   UNL     1       6.985  24.077  54.197  1.00  0.00     0.048 A 
HETATM    7  C   UNL     1       6.907  25.120  55.104  1.00  0.00     0.034 A 
HETATM    8  C   UNL     1       7.737  22.931  54.465  1.00  0.00     0.030 A 
HETATM    9  C   UNL     1       8.426  22.823  55.671  1.00  0.00     0.002 A 
HETATM   10  C   UNL     1       8.342  23.849  56.610  1.00  0.00     0.001 A 
HETATM   11  C   UNL     1       7.578  24.984  56.333  1.00  0.00     0.015 A 
HETATM   12  H   UNL     1       6.253  23.376  52.381  1.00  0.00     0.170 HD
ENDROOT
BRANCH   1  13
HETATM   13  C   UNL     1       7.036  27.609  54.982  1.00  0.00     0.279 C 
HETATM   14  N   UNL     1       6.660  28.494  55.991  1.00  0.00    -0.355 N 
HETATM   15  H   UNL     1       6.018  28.135  56.694  1.00  0.00     0.162 HD
HETATM   16  O   UNL     1       7.981  27.898  54.242  1.00  0.00    -0.268 OA
BRANCH  14  17
HETATM   17  C   UNL     1       7.515  29.618  56.310  1.00  0.00     0.150 C 
BRANCH  17  18
HETATM   18  C   UNL     1       8.478  29.303  57.472  1.00  0.00     0.254 C 
BRANCH  18  19
HETATM   19  N   UNL     1       9.087  30.537  58.128  1.00  0.00    -0.070 N 
HETATM   20  H   UNL     1       8.534  31.331  57.779  1.00  0.00     0.279 HD
BRANCH  19  21
HETATM   21  C   UNL     1      10.515  30.808  57.669  1.00  0.00     0.230 C 
HETATM   22  C   UNL     1      11.097  29.592  56.968  1.00  0.00     0.034 C 
ENDBRANCH  19  21
BRANCH  19  23
HETATM   23  C   UNL     1       8.968  30.591  59.637  1.00  0.00     0.230 C 
HETATM   24  C   UNL     1       9.240  31.989  60.162  1.00  0.00     0.034 C 
ENDBRANCH  19  23
ENDBRANCH  18  19
ENDBRANCH  17  18
ENDBRANCH  14  17
ENDBRANCH   1  13
BRANCH   1  25
HETATM   25  O   UNL     1       4.966  26.278  55.650  1.00  0.00    -0.359 OA
HETATM   26  H   UNL     1       4.561  27.160  55.611  1.00  0.00     0.213 HD
ENDBRANCH   1  25
BRANCH   2  27
HETATM   27  C   UNL     1       4.931  27.605  52.883  1.00  0.00     0.043 A 
HETATM   28  C   UNL     1       5.540  28.331  51.844  1.00  0.00     0.037 A 
HETATM   29  C   UNL     1       5.029  29.558  51.374  1.00  0.00    -0.054 A 
HETATM   30  C   UNL     1       5.744  30.267  50.254  1.00  0.00     0.049 C 
HETATM   31  C   UNL     1       3.880  30.099  51.969  1.00  0.00    -0.056 A 
HETATM   32  C   UNL     1       3.278  31.392  51.495  1.00  0.00     0.049 C 
HETATM   33  C   UNL     1       3.260  29.386  53.002  1.00  0.00     0.009 A 
HETATM   34  C   UNL     1       3.780  28.167  53.456  1.00  0.00     0.030 A 
ENDBRANCH   2  27
TORSDOF 8
ENDMDL
MODEL 3
REMARK VINA RESULT:      -8.5      1.224      1.655
REMARK  8 active torsions:
REMARK  status: ('A' for Active; 'I' for Inactive)
REMARK    1  A    between atoms: C_2  and  N_3 
REMARK    2  A    between atoms: N_3  and  C_5 
REMARK    3  A    between atoms: N_3  and  C_30 
REMARK    4  A    between atoms: C_5  and  C_6 
REMARK    5  A    between atoms: C_6  and  N_7 
REMARK       I    between atoms: N_7  and  C_8 
REMARK    6  A    between atoms: C_8  and  C_9 
REMARK    7  A    between atoms: C_9  and  O_10 
REMARK    8  A    between atoms: N_11  and  C_12 
ROOT
HETATM    1  C   UNL     1       5.822  26.946  55.961  1.00  0.00     0.256 C 
HETATM    2  N   UNL     1       7.091  26.198  56.113  1.00  0.00    -0.254 N 
HETATM    3  C   UNL     1       8.027  26.583  57.068  1.00  0.00     0.330 C 
HETATM    4  O   UNL     1       9.008  25.928  57.415  1.00  0.00    -0.246 OA
HETATM    5  N   UNL     1       7.874  27.794  57.663  1.00  0.00    -0.308 N 
HETATM    6  C   UNL     1       6.830  28.677  57.467  1.00  0.00     0.048 A 
HETATM    7  C   UNL     1       5.783  28.301  56.644  1.00  0.00     0.034 A 
HETATM    8  C   UNL     1       6.837  29.910  58.122  1.00  0.00     0.030 A 
HETATM    9  C   UNL     1       5.769  30.790  57.952  1.00  0.00     0.002 A 
HETATM   10  C   UNL     1       4.693  30.422  57.149  1.00  0.00     0.001 A 
HETATM   11  C   UNL     1       4.693  29.182  56.508  1.00  0.00     0.015 A 
HETATM   12  H   UNL     1       8.603  28.019  58.330  1.00  0.00     0.170 HD
ENDROOT
BRANCH   1  13
HETATM   13  C   UNL     1       5.568  27.235  54.398  1.00  0.00     0.279 C 
HETATM   14  N   UNL     1       4.582  26.460  53.789  1.00  0.00    -0.355 N 
HETATM   15  H   UNL     1       3.907  26.016  54.407  1.00  0.00     0.162 HD
HETATM   16  O   UNL     1       6.265  27.983  53.707  1.00  0.00    -0.268 OA
BRANCH  14  17
HETATM   17  C   UNL     1       4.229  26.709  52.407  1.00  0.00     0.150 C 
BRANCH  17  18
HETATM   18  C   UNL     1       5.218  26.047  51.428  1.00  0.00     0.254 C 
BRANCH  18  19
HETATM   19  N   UNL     1       5.336  26.760  50.085  1.00  0.00    -0.070 N 
HETATM   20  H   UNL     1       6.200  26.399  49.661  1.00  0.00     0.279 HD
BRANCH  19  21
HETATM   21  C   UNL     1       5.555  28.262  50.229  1.00  0.00     0.230 C 
HETATM   22  C   UNL     1       4.312  29.031  49.816  1.00  0.00     0.034 C 
ENDBRANCH  19  21
BRANCH  19  23
HETATM   23  C   UNL     1       4.236  26.451  49.090  1.00  0.00     0.230 C 
HETATM   24  C   UNL     1       4.775  26.395  47.672  1.00  0.00     0.034 C 
ENDBRANCH  19  23
ENDBRANCH  18  19
ENDBRANCH  17  18
ENDBRANCH  14  17
ENDBRANCH   1  13
BRANCH   1  25
HETATM   25  O   UNL     1       4.807  26.192  56.597  1.00  0.00    -0.359 OA
HETATM   26  H   UNL     1       5.121  25.273  56.571  1.00  0.00     0.213 HD
ENDBRANCH   1  25
BRANCH   2  27
HETATM   27  C   UNL     1       7.324  25.011  55.298  1.00  0.00     0.043 A 
HETATM   28  C   UNL     1       7.265  23.725  55.862  1.00  0.00     0.037 A 
HETATM   29  C   UNL     1       7.548  22.557  55.125  1.00  0.00    -0.054 A 
HETATM   30  C   UNL     1       7.456  21.219  55.811  1.00  0.00     0.049 C 
HETATM   31  C   UNL     1       7.926  22.668  53.780  1.00  0.00    -0.056 A 
HETATM   32  C   UNL     1       8.219  21.457  52.939  1.00  0.00     0.049 C 
HETATM   33  C   UNL     1       7.986  23.941  53.202  1.00  0.00     0.009 A 
HETATM   34  C   UNL     1       7.699  25.091  53.948  1.00  0.00     0.030 A 
ENDBRANCH   2  27
TORSDOF 8
ENDMDL
MODEL 4
REMARK VINA RESULT:      -8.4      1.353      2.138
REMARK  8 active torsions:
REMARK  status: ('A' for Active; 'I' for Inactive)
REMARK    1  A    between atoms: C_2  and  N_3 
REMARK    2  A    between atoms: N_3  and  C_5 
REMARK    3  A    between atoms: N_3  and  C_30 
REMARK    4  A    between atoms: C_5  and  C_6 
REMARK    5  A    between atoms: C_6  and  N_7 
REMARK       I    between atoms: N_7  and  C_8 
REMARK    6  A    between atoms: C_8  and  C_9 
REMARK    7  A    between atoms: C_9  and  O_10 
REMARK    8  A    between atoms: N_11  and  C_12 
ROOT
HETATM    1  C   UNL     1       5.234  27.569  55.959  1.00  0.00     0.256 C 
HETATM    2  N   UNL     1       6.563  26.972  56.223  1.00  0.00    -0.254 N 
HETATM    3  C   UNL     1       7.415  27.537  57.167  1.00  0.00     0.330 C 
HETATM    4  O   UNL     1       8.440  27.020  57.607  1.00  0.00    -0.246 OA
HETATM    5  N   UNL     1       7.117  28.775  57.639  1.00  0.00    -0.308 N 
HETATM    6  C   UNL     1       6.000  29.524  57.327  1.00  0.00     0.048 A 
HETATM    7  C   UNL     1       5.031  28.969  56.509  1.00  0.00     0.034 A 
HETATM    8  C   UNL     1       5.856  30.806  57.862  1.00  0.00     0.030 A 
HETATM    9  C   UNL     1       4.714  31.551  57.575  1.00  0.00     0.002 A 
HETATM   10  C   UNL     1       3.714  31.004  56.775  1.00  0.00     0.001 A 
HETATM   11  C   UNL     1       3.866  29.717  56.255  1.00  0.00     0.015 A 
HETATM   12  H   UNL     1       7.791  29.133  58.307  1.00  0.00     0.170 HD
ENDROOT
BRANCH   1  13
HETATM   13  C   UNL     1       5.018  27.687  54.368  1.00  0.00     0.279 C 
HETATM   14  N   UNL     1       5.679  28.742  53.741  1.00  0.00    -0.355 N 
HETATM   15  H   UNL     1       6.463  29.151  54.246  1.00  0.00     0.162 HD
HETATM   16  O   UNL     1       4.223  26.999  53.722  1.00  0.00    -0.268 OA
BRANCH  14  17
HETATM   17  C   UNL     1       5.609  28.874  52.301  1.00  0.00     0.150 C 
BRANCH  17  18
HETATM   18  C   UNL     1       4.177  29.168  51.815  1.00  0.00     0.254 C 
BRANCH  18  19
HETATM   19  N   UNL     1       3.644  28.162  50.801  1.00  0.00    -0.070 N 
HETATM   20  H   UNL     1       3.227  27.407  51.362  1.00  0.00     0.279 HD
BRANCH  19  21
HETATM   21  C   UNL     1       4.749  27.496  49.989  1.00  0.00     0.230 C 
HETATM   22  C   UNL     1       4.191  26.364  49.144  1.00  0.00     0.034 C 
ENDBRANCH  19  21
BRANCH  19  23
HETATM   23  C   UNL     1       2.527  28.669  49.912  1.00  0.00     0.230 C 
HETATM   24  C   UNL     1       2.059  30.046  50.345  1.00  0.00     0.034 C 
ENDBRANCH  19  23
ENDBRANCH  18  19
ENDBRANCH  17  18
ENDBRANCH  14  17
ENDBRANCH   1  13
BRANCH   1  25
HETATM   25  O   UNL     1       4.272  26.775  56.630  1.00  0.00    -0.359 OA
HETATM   26  H   UNL     1       4.779  26.050  57.031  1.00  0.00     0.213 HD
ENDBRANCH   1  25
BRANCH   2  27
HETATM   27  C   UNL     1       6.947  25.747  55.532  1.00  0.00     0.043 A 
HETATM   28  C   UNL     1       7.374  25.778  54.192  1.00  0.00     0.037 A 
HETATM   29  C   UNL     1       7.691  24.611  53.468  1.00  0.00    -0.054 A 
HETATM   30  C   UNL     1       8.145  24.739  52.037  1.00  0.00     0.049 C 
HETATM   31  C   UNL     1       7.561  23.360  54.087  1.00  0.00    -0.056 A 
HETATM   32  C   UNL     1       7.906  22.084  53.372  1.00  0.00     0.049 C 
HETATM   33  C   UNL     1       7.141  23.312  55.421  1.00  0.00     0.009 A 
HETATM   34  C   UNL     1       6.832  24.482  56.128  1.00  0.00     0.030 A 
ENDBRANCH   2  27
TORSDOF 8
ENDMDL
MODEL 5
REMARK VINA RESULT:      -7.9      2.453      7.891
REMARK  8 active torsions:
REMARK  status: ('A' for Active; 'I' for Inactive)
REMARK    1  A    between atoms: C_2  and  N_3 
REMARK    2  A    between atoms: N_3  and  C_5 
REMARK    3  A    between atoms: N_3  and  C_30 
REMARK    4  A    between atoms: C_5  and  C_6 
REMARK    5  A    between atoms: C_6  and  N_7 
REMARK       I    between atoms: N_7  and  C_8 
REMARK    6  A    between atoms: C_8  and  C_9 
REMARK    7  A    between atoms: C_9  and  O_10 
REMARK    8  A    between atoms: N_11  and  C_12 
ROOT
HETATM    1  C   UNL     1       5.654  26.968  53.418  1.00  0.00     0.256 C 
HETATM    2  N   UNL     1       5.337  27.425  52.046  1.00  0.00    -0.254 N 
HETATM    3  C   UNL     1       5.546  26.585  50.956  1.00  0.00     0.330 C 
HETATM    4  O   UNL     1       5.139  26.779  49.813  1.00  0.00    -0.246 OA
HETATM    5  N   UNL     1       6.281  25.459  51.148  1.00  0.00    -0.308 N 
HETATM    6  C   UNL     1       6.799  25.012  52.348  1.00  0.00     0.048 A 
HETATM    7  C   UNL     1       6.508  25.717  53.504  1.00  0.00     0.034 A 
HETATM    8  C   UNL     1       7.576  23.852  52.377  1.00  0.00     0.030 A 
HETATM    9  C   UNL     1       8.072  23.382  53.591  1.00  0.00     0.002 A 
HETATM   10  C   UNL     1       7.771  24.059  54.769  1.00  0.00     0.001 A 
HETATM   11  C   UNL     1       6.985  25.212  54.729  1.00  0.00     0.015 A 
HETATM   12  H   UNL     1       6.412  24.906  50.308  1.00  0.00     0.170 HD
ENDROOT
BRANCH   1  13
HETATM   13  C   UNL     1       6.485  28.119  54.176  1.00  0.00     0.279 C 
HETATM   14  N   UNL     1       5.800  28.805  55.178  1.00  0.00    -0.355 N 
HETATM   15  H   UNL     1       4.976  28.345  55.562  1.00  0.00     0.162 HD
HETATM   16  O   UNL     1       7.608  28.502  53.839  1.00  0.00    -0.268 OA
BRANCH  14  17
HETATM   17  C   UNL     1       6.495  29.799  55.968  1.00  0.00     0.150 C 
BRANCH  17  18
HETATM   18  C   UNL     1       6.331  29.558  57.481  1.00  0.00     0.254 C 
BRANCH  18  19
HETATM   19  N   UNL     1       7.601  29.085  58.178  1.00  0.00    -0.070 N 
HETATM   20  H   UNL     1       7.301  28.326  58.805  1.00  0.00     0.279 HD
BRANCH  19  21
HETATM   21  C   UNL     1       8.207  30.145  59.091  1.00  0.00     0.230 C 
HETATM   22  C   UNL     1       9.416  30.793  58.438  1.00  0.00     0.034 C 
ENDBRANCH  19  21
BRANCH  19  23
HETATM   23  C   UNL     1       8.647  28.470  57.270  1.00  0.00     0.230 C 
HETATM   24  C   UNL     1       8.525  26.957  57.233  1.00  0.00     0.034 C 
ENDBRANCH  19  23
ENDBRANCH  18  19
ENDBRANCH  17  18
ENDBRANCH  14  17
ENDBRANCH   1  13
BRANCH   1  25
HETATM   25  O   UNL     1       4.431  26.614  54.039  1.00  0.00    -0.359 OA
HETATM   26  H   UNL     1       4.686  26.110  54.830  1.00  0.00     0.213 HD
ENDBRANCH   1  25
BRANCH   2  27
HETATM   27  C   UNL     1       4.742  28.742  51.850  1.00  0.00     0.043 A 
HETATM   28  C   UNL     1       5.438  29.753  51.164  1.00  0.00     0.037 A 
HETATM   29  C   UNL     1       4.926  31.058  51.010  1.00  0.00    -0.054 A 
HETATM   30  C   UNL     1       5.739  32.078  50.257  1.00  0.00     0.049 C 
HETATM   31  C   UNL     1       3.685  31.381  51.576  1.00  0.00    -0.056 A 
HETATM   32  C   UNL     1       3.080  32.749  51.425  1.00  0.00     0.049 C 
HETATM   33  C   UNL     1       2.978  30.385  52.258  1.00  0.00     0.009 A 
HETATM   34  C   UNL     1       3.499  29.092  52.400  1.00  0.00     0.030 A 
ENDBRANCH   2  27
TORSDOF 8
ENDMDL
MODEL 6
REMARK VINA RESULT:      -7.9      2.483      7.917
REMARK  8 active torsions:
REMARK  status: ('A' for Active; 'I' for Inactive)
REMARK    1  A    between atoms: C_2  and  N_3 
REMARK    2  A    between atoms: N_3  and  C_5 
REMARK    3  A    between atoms: N_3  and  C_30 
REMARK    4  A    between atoms: C_5  and  C_6 
REMARK    5  A    between atoms: C_6  and  N_7 
REMARK       I    between atoms: N_7  and  C_8 
REMARK    6  A    between atoms: C_8  and  C_9 
REMARK    7  A    between atoms: C_9  and  O_10 
REMARK    8  A    between atoms: N_11  and  C_12 
ROOT
HETATM    1  C   UNL     1       6.170  26.285  56.051  1.00  0.00     0.256 C 
HETATM    2  N   UNL     1       5.458  26.648  54.805  1.00  0.00    -0.254 N 
HETATM    3  C   UNL     1       5.268  25.704  53.800  1.00  0.00     0.330 C 
HETATM    4  O   UNL     1       4.530  25.833  52.826  1.00  0.00    -0.246 OA
HETATM    5  N   UNL     1       5.968  24.542  53.873  1.00  0.00    -0.308 N 
HETATM    6  C   UNL     1       6.816  24.159  54.893  1.00  0.00     0.048 A 
HETATM    7  C   UNL     1       6.944  24.980  56.000  1.00  0.00     0.034 A 
HETATM    8  C   UNL     1       7.502  22.946  54.802  1.00  0.00     0.030 A 
HETATM    9  C   UNL     1       8.333  22.541  55.844  1.00  0.00     0.002 A 
HETATM   10  C   UNL     1       8.457  23.339  56.979  1.00  0.00     0.001 A 
HETATM   11  C   UNL     1       7.758  24.544  57.062  1.00  0.00     0.015 A 
HETATM   12  H   UNL     1       5.797  23.911  53.098  1.00  0.00     0.170 HD
ENDROOT
BRANCH   1  13
HETATM   13  C   UNL     1       7.256  27.425  56.386  1.00  0.00     0.279 C 
HETATM   14  N   UNL     1       7.119  28.052  57.623  1.00  0.00    -0.355 N 
HETATM   15  H   UNL     1       6.572  27.557  58.325  1.00  0.00     0.162 HD
HETATM   16  O   UNL     1       8.089  27.850  55.581  1.00  0.00    -0.268 OA
BRANCH  14  17
HETATM   17  C   UNL     1       8.100  29.030  58.042  1.00  0.00     0.150 C 
BRANCH  17  18
HETATM   18  C   UNL     1       7.489  30.437  58.195  1.00  0.00     0.254 C 
BRANCH  18  19
HETATM   19  N   UNL     1       7.323  30.890  59.641  1.00  0.00    -0.070 N 
HETATM   20  H   UNL     1       6.657  30.226  60.059  1.00  0.00     0.279 HD
BRANCH  19  21
HETATM   21  C   UNL     1       6.657  32.257  59.761  1.00  0.00     0.230 C 
HETATM   22  C   UNL     1       6.003  32.420  61.123  1.00  0.00     0.034 C 
ENDBRANCH  19  21
BRANCH  19  23
HETATM   23  C   UNL     1       8.572  30.803  60.494  1.00  0.00     0.230 C 
HETATM   24  C   UNL     1       9.539  31.928  60.172  1.00  0.00     0.034 C 
ENDBRANCH  19  23
ENDBRANCH  18  19
ENDBRANCH  17  18
ENDBRANCH  14  17
ENDBRANCH   1  13
BRANCH   1  25
HETATM   25  O   UNL     1       5.192  26.086  57.055  1.00  0.00    -0.359 OA
HETATM   26  H   UNL     1       5.542  26.536  57.842  1.00  0.00     0.213 HD
ENDBRANCH   1  25
BRANCH   2  27
HETATM   27  C   UNL     1       4.899  27.988  54.664  1.00  0.00     0.043 A 
HETATM   28  C   UNL     1       4.250  28.615  55.742  1.00  0.00     0.037 A 
HETATM   29  C   UNL     1       3.638  29.880  55.629  1.00  0.00    -0.054 A 
HETATM   30  C   UNL     1       2.968  30.479  56.838  1.00  0.00     0.049 C 
HETATM   31  C   UNL     1       3.652  30.543  54.393  1.00  0.00    -0.056 A 
HETATM   32  C   UNL     1       3.036  31.903  54.219  1.00  0.00     0.049 C 
HETATM   33  C   UNL     1       4.297  29.934  53.312  1.00  0.00     0.009 A 
HETATM   34  C   UNL     1       4.902  28.677  53.441  1.00  0.00     0.030 A 
ENDBRANCH   2  27
TORSDOF 8
ENDMDL
MODEL 7
REMARK VINA RESULT:      -7.9      2.184      7.130
REMARK  8 active torsions:
REMARK  status: ('A' for Active; 'I' for Inactive)
REMARK    1  A    between atoms: C_2  and  N_3 
REMARK    2  A    between atoms: N_3  and  C_5 
REMARK    3  A    between atoms: N_3  and  C_30 
REMARK    4  A    between atoms: C_5  and  C_6 
REMARK    5  A    between atoms: C_6  and  N_7 
REMARK       I    between atoms: N_7  and  C_8 
REMARK    6  A    between atoms: C_8  and  C_9 
REMARK    7  A    between atoms: C_9  and  O_10 
REMARK    8  A    between atoms: N_11  and  C_12 
ROOT
HETATM    1  C   UNL     1       4.786  27.025  51.541  1.00  0.00     0.256 C 
HETATM    2  N   UNL     1       5.532  28.237  51.949  1.00  0.00    -0.254 N 
HETATM    3  C   UNL     1       5.718  29.286  51.055  1.00  0.00     0.330 C 
HETATM    4  O   UNL     1       6.139  30.406  51.340  1.00  0.00    -0.246 OA
HETATM    5  N   UNL     1       5.435  29.068  49.744  1.00  0.00    -0.308 N 
HETATM    6  C   UNL     1       4.910  27.912  49.200  1.00  0.00     0.048 A 
HETATM    7  C   UNL     1       4.560  26.874  50.048  1.00  0.00     0.034 A 
HETATM    8  C   UNL     1       4.716  27.824  47.820  1.00  0.00     0.030 A 
HETATM    9  C   UNL     1       4.156  26.671  47.273  1.00  0.00     0.002 A 
HETATM   10  C   UNL     1       3.773  25.625  48.108  1.00  0.00     0.001 A 
HETATM   11  C   UNL     1       3.962  25.730  49.487  1.00  0.00     0.015 A 
HETATM   12  H   UNL     1       5.614  29.867  49.147  1.00  0.00     0.170 HD
ENDROOT
BRANCH   1  13
HETATM   13  C   UNL     1       5.615  25.721  51.993  1.00  0.00     0.279 C 
HETATM   14  N   UNL     1       6.894  25.597  51.454  1.00  0.00    -0.355 N 
HETATM   15  H   UNL     1       7.317  26.447  51.087  1.00  0.00     0.162 HD
HETATM   16  O   UNL     1       5.145  24.795  52.660  1.00  0.00    -0.268 OA
BRANCH  14  17
HETATM   17  C   UNL     1       7.742  24.499  51.871  1.00  0.00     0.150 C 
BRANCH  17  18
HETATM   18  C   UNL     1       7.984  24.499  53.393  1.00  0.00     0.254 C 
BRANCH  18  19
HETATM   19  N   UNL     1       7.582  23.202  54.087  1.00  0.00    -0.070 N 
HETATM   20  H   UNL     1       6.726  22.893  53.610  1.00  0.00     0.279 HD
BRANCH  19  21
HETATM   21  C   UNL     1       7.179  23.410  55.543  1.00  0.00     0.230 C 
HETATM   22  C   UNL     1       7.639  24.770  56.041  1.00  0.00     0.034 C 
ENDBRANCH  19  21
BRANCH  19  23
HETATM   23  C   UNL     1       8.565  22.059  53.939  1.00  0.00     0.230 C 
HETATM   24  C   UNL     1       7.951  20.900  53.174  1.00  0.00     0.034 C 
ENDBRANCH  19  23
ENDBRANCH  18  19
ENDBRANCH  17  18
ENDBRANCH  14  17
ENDBRANCH   1  13
BRANCH   1  25
HETATM   25  O   UNL     1       3.487  27.122  52.095  1.00  0.00    -0.359 OA
HETATM   26  H   UNL     1       3.597  27.639  52.910  1.00  0.00     0.213 HD
ENDBRANCH   1  25
BRANCH   2  27
HETATM   27  C   UNL     1       6.018  28.351  53.320  1.00  0.00     0.043 A 
HETATM   28  C   UNL     1       5.161  28.762  54.356  1.00  0.00     0.037 A 
HETATM   29  C   UNL     1       5.606  28.949  55.681  1.00  0.00    -0.054 A 
HETATM   30  C   UNL     1       4.617  29.388  56.729  1.00  0.00     0.049 C 
HETATM   31  C   UNL     1       6.958  28.740  55.989  1.00  0.00    -0.056 A 
HETATM   32  C   UNL     1       7.484  28.902  57.387  1.00  0.00     0.049 C 
HETATM   33  C   UNL     1       7.822  28.327  54.970  1.00  0.00     0.009 A 
HETATM   34  C   UNL     1       7.364  28.143  53.658  1.00  0.00     0.030 A 
ENDBRANCH   2  27
TORSDOF 8
ENDMDL
MODEL 8
REMARK VINA RESULT:      -7.9      2.380      3.445
REMARK  8 active torsions:
REMARK  status: ('A' for Active; 'I' for Inactive)
REMARK    1  A    between atoms: C_2  and  N_3 
REMARK    2  A    between atoms: N_3  and  C_5 
REMARK    3  A    between atoms: N_3  and  C_30 
REMARK    4  A    between atoms: C_5  and  C_6 
REMARK    5  A    between atoms: C_6  and  N_7 
REMARK       I    between atoms: N_7  and  C_8 
REMARK    6  A    between atoms: C_8  and  C_9 
REMARK    7  A    between atoms: C_9  and  O_10 
REMARK    8  A    between atoms: N_11  and  C_12 
ROOT
HETATM    1  C   UNL     1       4.963  28.308  55.585  1.00  0.00     0.256 C 
HETATM    2  N   UNL     1       6.298  27.762  55.919  1.00  0.00    -0.254 N 
HETATM    3  C   UNL     1       7.153  28.456  56.770  1.00  0.00     0.330 C 
HETATM    4  O   UNL     1       8.184  28.012  57.269  1.00  0.00    -0.246 OA
HETATM    5  N   UNL     1       6.849  29.746  57.068  1.00  0.00    -0.308 N 
HETATM    6  C   UNL     1       5.725  30.439  56.663  1.00  0.00     0.048 A 
HETATM    7  C   UNL     1       4.755  29.770  55.937  1.00  0.00     0.034 A 
HETATM    8  C   UNL     1       5.576  31.781  57.017  1.00  0.00     0.030 A 
HETATM    9  C   UNL     1       4.427  32.473  56.638  1.00  0.00     0.002 A 
HETATM   10  C   UNL     1       3.426  31.814  55.928  1.00  0.00     0.001 A 
HETATM   11  C   UNL     1       3.583  30.469  55.590  1.00  0.00     0.015 A 
HETATM   12  H   UNL     1       7.525  30.197  57.675  1.00  0.00     0.170 HD
ENDROOT
BRANCH   1  13
HETATM   13  C   UNL     1       4.737  28.203  53.994  1.00  0.00     0.279 C 
HETATM   14  N   UNL     1       5.497  29.072  53.213  1.00  0.00    -0.355 N 
HETATM   15  H   UNL     1       6.328  29.467  53.649  1.00  0.00     0.162 HD
HETATM   16  O   UNL     1       3.863  27.514  53.461  1.00  0.00    -0.268 OA
BRANCH  14  17
HETATM   17  C   UNL     1       5.419  28.989  51.770  1.00  0.00     0.150 C 
BRANCH  17  18
HETATM   18  C   UNL     1       4.616  30.156  51.164  1.00  0.00     0.254 C 
BRANCH  18  19
HETATM   19  N   UNL     1       5.190  31.534  51.473  1.00  0.00    -0.070 N 
HETATM   20  H   UNL     1       5.980  31.363  52.109  1.00  0.00     0.279 HD
BRANCH  19  21
HETATM   21  C   UNL     1       4.225  32.416  52.259  1.00  0.00     0.230 C 
HETATM   22  C   UNL     1       2.813  31.860  52.195  1.00  0.00     0.034 C 
ENDBRANCH  19  21
BRANCH  19  23
HETATM   23  C   UNL     1       5.777  32.271  50.287  1.00  0.00     0.230 C 
HETATM   24  C   UNL     1       5.310  31.666  48.975  1.00  0.00     0.034 C 
ENDBRANCH  19  23
ENDBRANCH  18  19
ENDBRANCH  17  18
ENDBRANCH  14  17
ENDBRANCH   1  13
BRANCH   1  25
HETATM   25  O   UNL     1       4.012  27.609  56.365  1.00  0.00    -0.359 OA
HETATM   26  H   UNL     1       4.504  26.872  56.763  1.00  0.00     0.213 HD
ENDBRANCH   1  25
BRANCH   2  27
HETATM   27  C   UNL     1       6.687  26.455  55.401  1.00  0.00     0.043 A 
HETATM   28  C   UNL     1       7.218  26.321  54.106  1.00  0.00     0.037 A 
HETATM   29  C   UNL     1       7.544  25.070  53.543  1.00  0.00    -0.054 A 
HETATM   30  C   UNL     1       8.113  25.022  52.149  1.00  0.00     0.049 C 
HETATM   31  C   UNL     1       7.316  23.902  54.284  1.00  0.00    -0.056 A 
HETATM   32  C   UNL     1       7.665  22.543  53.745  1.00  0.00     0.049 C 
HETATM   33  C   UNL     1       6.792  24.018  55.576  1.00  0.00     0.009 A 
HETATM   34  C   UNL     1       6.475  25.269  56.121  1.00  0.00     0.030 A 
ENDBRANCH   2  27
TORSDOF 8
ENDMDL
MODEL 9
REMARK VINA RESULT:      -7.8      2.110      6.617
REMARK  8 active torsions:
REMARK  status: ('A' for Active; 'I' for Inactive)
REMARK    1  A    between atoms: C_2  and  N_3 
REMARK    2  A    between atoms: N_3  and  C_5 
REMARK    3  A    between atoms: N_3  and  C_30 
REMARK    4  A    between atoms: C_5  and  C_6 
REMARK    5  A    between atoms: C_6  and  N_7 
REMARK       I    between atoms: N_7  and  C_8 
REMARK    6  A    between atoms: C_8  and  C_9 
REMARK    7  A    between atoms: C_9  and  O_10 
REMARK    8  A    between atoms: N_11  and  C_12 
ROOT
HETATM    1  C   UNL     1       5.144  26.307  52.579  1.00  0.00     0.256 C 
HETATM    2  N   UNL     1       5.221  27.339  53.638  1.00  0.00    -0.254 N 
HETATM    3  C   UNL     1       4.652  28.594  53.443  1.00  0.00     0.330 C 
HETATM    4  O   UNL     1       4.481  29.447  54.312  1.00  0.00    -0.246 OA
HETATM    5  N   UNL     1       4.266  28.933  52.185  1.00  0.00    -0.308 N 
HETATM    6  C   UNL     1       4.317  28.125  51.066  1.00  0.00     0.048 A 
HETATM    7  C   UNL     1       4.733  26.813  51.209  1.00  0.00     0.034 A 
HETATM    8  C   UNL     1       3.923  28.635  49.828  1.00  0.00     0.030 A 
HETATM    9  C   UNL     1       3.942  27.813  48.703  1.00  0.00     0.002 A 
HETATM   10  C   UNL     1       4.333  26.482  48.827  1.00  0.00     0.001 A 
HETATM   11  C   UNL     1       4.714  25.982  50.073  1.00  0.00     0.015 A 
HETATM   12  H   UNL     1       3.880  29.868  52.112  1.00  0.00     0.170 HD
ENDROOT
BRANCH   1  13
HETATM   13  C   UNL     1       6.599  25.646  52.385  1.00  0.00     0.279 C 
HETATM   14  N   UNL     1       6.715  24.308  52.758  1.00  0.00    -0.355 N 
HETATM   15  H   UNL     1       5.848  23.778  52.822  1.00  0.00     0.162 HD
HETATM   16  O   UNL     1       7.610  26.275  52.061  1.00  0.00    -0.268 OA
BRANCH  14  17
HETATM   17  C   UNL     1       7.964  23.611  52.540  1.00  0.00     0.150 C 
BRANCH  17  18
HETATM   18  C   UNL     1       7.968  22.211  53.185  1.00  0.00     0.254 C 
BRANCH  18  19
HETATM   19  N   UNL     1       7.661  22.212  54.678  1.00  0.00    -0.070 N 
HETATM   20  H   UNL     1       6.701  22.573  54.758  1.00  0.00     0.279 HD
BRANCH  19  21
HETATM   21  C   UNL     1       8.526  23.195  55.460  1.00  0.00     0.230 C 
HETATM   22  C   UNL     1       8.496  22.877  56.946  1.00  0.00     0.034 C 
ENDBRANCH  19  21
BRANCH  19  23
HETATM   23  C   UNL     1       7.637  20.847  55.335  1.00  0.00     0.230 C 
HETATM   24  C   UNL     1       8.711  19.941  54.761  1.00  0.00     0.034 C 
ENDBRANCH  19  23
ENDBRANCH  18  19
ENDBRANCH  17  18
ENDBRANCH  14  17
ENDBRANCH   1  13
BRANCH   1  25
HETATM   25  O   UNL     1       4.125  25.396  52.949  1.00  0.00    -0.359 OA
HETATM   26  H   UNL     1       4.594  24.615  53.287  1.00  0.00     0.213 HD
ENDBRANCH   1  25
BRANCH   2  27
HETATM   27  C   UNL     1       5.842  27.009  54.916  1.00  0.00     0.043 A 
HETATM   28  C   UNL     1       7.004  27.673  55.346  1.00  0.00     0.037 A 
HETATM   29  C   UNL     1       7.673  27.340  56.541  1.00  0.00    -0.054 A 
HETATM   30  C   UNL     1       8.910  28.108  56.926  1.00  0.00     0.049 C 
HETATM   31  C   UNL     1       7.183  26.292  57.334  1.00  0.00    -0.056 A 
HETATM   32  C   UNL     1       7.841  25.907  58.629  1.00  0.00     0.049 C 
HETATM   33  C   UNL     1       6.025  25.623  56.922  1.00  0.00     0.009 A 
HETATM   34  C   UNL     1       5.371  25.969  55.732  1.00  0.00     0.030 A 
ENDBRANCH   2  27
TORSDOF 8
ENDMDL
MODEL 10
REMARK VINA RESULT:      -7.6      2.250      7.735
REMARK  8 active torsions:
REMARK  status: ('A' for Active; 'I' for Inactive)
REMARK    1  A    between atoms: C_2  and  N_3 
REMARK    2  A    between atoms: N_3  and  C_5 
REMARK    3  A    between atoms: N_3  and  C_30 
REMARK    4  A    between atoms: C_5  and  C_6 
REMARK    5  A    between atoms: C_6  and  N_7 
REMARK       I    between atoms: N_7  and  C_8 
REMARK    6  A    between atoms: C_8  and  C_9 
REMARK    7  A    between atoms: C_9  and  O_10 
REMARK    8  A    between atoms: N_11  and  C_12 
ROOT
HETATM    1  C   UNL     1       4.889  27.200  53.076  1.00  0.00     0.256 C 
HETATM    2  N   UNL     1       4.960  27.622  51.658  1.00  0.00    -0.254 N 
HETATM    3  C   UNL     1       5.470  26.762  50.691  1.00  0.00     0.330 C 
HETATM    4  O   UNL     1       5.394  26.925  49.475  1.00  0.00    -0.246 OA
HETATM    5  N   UNL     1       6.134  25.653  51.106  1.00  0.00    -0.308 N 
HETATM    6  C   UNL     1       6.304  25.241  52.414  1.00  0.00     0.048 A 
HETATM    7  C   UNL     1       5.698  25.965  53.426  1.00  0.00     0.034 A 
HETATM    8  C   UNL     1       7.053  24.094  52.685  1.00  0.00     0.030 A 
HETATM    9  C   UNL     1       7.198  23.658  54.001  1.00  0.00     0.002 A 
HETATM   10  C   UNL     1       6.577  24.356  55.033  1.00  0.00     0.001 A 
HETATM   11  C   UNL     1       5.822  25.495  54.747  1.00  0.00     0.015 A 
HETATM   12  H   UNL     1       6.497  25.083  50.350  1.00  0.00     0.170 HD
ENDROOT
BRANCH   1  13
HETATM   13  C   UNL     1       5.467  28.381  54.004  1.00  0.00     0.279 C 
HETATM   14  N   UNL     1       4.517  29.135  54.692  1.00  0.00    -0.355 N 
HETATM   15  H   UNL     1       3.599  28.712  54.808  1.00  0.00     0.162 HD
HETATM   16  O   UNL     1       6.651  28.726  54.033  1.00  0.00    -0.268 OA
BRANCH  14  17
HETATM   17  C   UNL     1       4.952  30.163  55.614  1.00  0.00     0.150 C 
BRANCH  17  18
HETATM   18  C   UNL     1       5.265  29.594  57.012  1.00  0.00     0.254 C 
BRANCH  18  19
HETATM   19  N   UNL     1       6.727  29.216  57.218  1.00  0.00    -0.070 N 
HETATM   20  H   UNL     1       7.182  29.388  56.311  1.00  0.00     0.279 HD
BRANCH  19  21
HETATM   21  C   UNL     1       6.922  27.728  57.490  1.00  0.00     0.230 C 
HETATM   22  C   UNL     1       8.316  27.283  57.081  1.00  0.00     0.034 C 
ENDBRANCH  19  21
BRANCH  19  23
HETATM   23  C   UNL     1       7.481  30.068  58.218  1.00  0.00     0.230 C 
HETATM   24  C   UNL     1       6.695  31.314  58.583  1.00  0.00     0.034 C 
ENDBRANCH  19  23
ENDBRANCH  18  19
ENDBRANCH  17  18
ENDBRANCH  14  17
ENDBRANCH   1  13
BRANCH   1  25
HETATM   25  O   UNL     1       3.546  26.841  53.343  1.00  0.00    -0.359 OA
HETATM   26  H   UNL     1       3.140  27.639  53.720  1.00  0.00     0.213 HD
ENDBRANCH   1  25
BRANCH   2  27
HETATM   27  C   UNL     1       4.430  28.925  51.272  1.00  0.00     0.043 A 
HETATM   28  C   UNL     1       3.070  29.085  50.952  1.00  0.00     0.037 A 
HETATM   29  C   UNL     1       2.531  30.310  50.511  1.00  0.00    -0.054 A 
HETATM   30  C   UNL     1       1.061  30.391  50.195  1.00  0.00     0.049 C 
HETATM   31  C   UNL     1       3.376  31.418  50.359  1.00  0.00    -0.056 A 
HETATM   32  C   UNL     1       2.854  32.755  49.913  1.00  0.00     0.049 C 
HETATM   33  C   UNL     1       4.732  31.277  50.676  1.00  0.00     0.009 A 
HETATM   34  C   UNL     1       5.251  30.052  51.116  1.00  0.00     0.030 A 
ENDBRANCH   2  27
TORSDOF 8
ENDMDL
