MODEL 1
REMARK VINA RESULT:      -8.8      0.000      0.000
REMARK  4 active torsions:
REMARK  status: ('A' for Active; 'I' for Inactive)
REMARK    1  A    between atoms: C_2  and  C_3 
REMARK    2  A    between atoms: C_10  and  C_11 
REMARK       I    between atoms: C_11  and  N_12 
REMARK    3  A    between atoms: N_12  and  C_13 
REMARK    4  A    between atoms: C_20  and  C_21 
REMARK       I    between atoms: C_21  and  N_22 
ROOT
HETATM    1  C   UNL     1       8.038  27.930  57.705  1.00  0.00     0.035 A 
HETATM    2  C   UNL     1       7.650  28.985  58.536  1.00  0.00     0.046 A 
HETATM    3  C   UNL     1       8.431  30.162  58.594  1.00  0.00     0.030 A 
HETATM    4  C   UNL     1       9.582  30.245  57.824  1.00  0.00     0.063 A 
HETATM    5  N   UNL     1      10.112  31.476  58.096  1.00  0.00    -0.277 N 
HETATM    6  H   UNL     1      10.961  31.877  57.713  1.00  0.00     0.189 HD
HETATM    7  N   UNL     1       9.400  32.207  58.970  1.00  0.00    -0.168 NA
HETATM    8  C   UNL     1       8.356  31.408  59.286  1.00  0.00     0.156 A 
HETATM    9  C   UNL     1      10.008  29.217  56.986  1.00  0.00     0.034 A 
HETATM   10  C   UNL     1       9.212  28.064  56.943  1.00  0.00     0.032 A 
ENDROOT
BRANCH   1  11
HETATM   11  N   UNL     1       7.343  26.715  57.549  1.00  0.00    -0.324 N 
HETATM   12  C   UNL     1       6.167  26.350  56.965  1.00  0.00     0.246 C 
HETATM   13  O   UNL     1       5.831  25.166  56.974  1.00  0.00    -0.268 OA
HETATM   14  H   UNL     1       7.780  25.899  57.962  1.00  0.00     0.169 HD
BRANCH  12  15
HETATM   15  C   UNL     1       5.315  27.345  56.292  1.00  0.00     0.082 C 
HETATM   16  C   UNL     1       5.193  27.423  54.953  1.00  0.00    -0.045 C 
HETATM   17  C   UNL     1       4.332  28.463  54.292  1.00  0.00     0.049 C 
BRANCH  16  18
HETATM   18  C   UNL     1       5.892  26.502  54.034  1.00  0.00    -0.008 A 
HETATM   19  C   UNL     1       7.181  26.745  53.531  1.00  0.00     0.044 A 
HETATM   20 CL   UNL     1       8.072  28.170  53.937  1.00  0.00    -0.083 Cl
HETATM   21  C   UNL     1       7.788  25.828  52.665  1.00  0.00     0.024 A 
HETATM   22  C   UNL     1       7.116  24.664  52.290  1.00  0.00     0.002 A 
HETATM   23  C   UNL     1       5.835  24.416  52.777  1.00  0.00     0.001 A 
HETATM   24  C   UNL     1       5.228  25.328  53.643  1.00  0.00     0.013 A 
ENDBRANCH  16  18
ENDBRANCH  12  15
ENDBRANCH   1  11
BRANCH   8  25
HETATM   25  C   UNL     1       7.312  31.846  60.222  1.00  0.00     0.270 C 
HETATM   26  N   UNL     1       7.306  31.165  61.409  1.00  0.00    -0.365 N 
HETATM   27  H   UNL     1       7.997  30.438  61.555  1.00  0.00     0.159 HD
HETATM   28  H   UNL     1       6.629  31.398  62.118  1.00  0.00     0.159 HD
HETATM   29  O   UNL     1       6.507  32.743  59.997  1.00  0.00    -0.266 OA
ENDBRANCH   8  25
TORSDOF 4
ENDMDL
MODEL 2
REMARK VINA RESULT:      -8.6      2.171      2.436
REMARK  4 active torsions:
REMARK  status: ('A' for Active; 'I' for Inactive)
REMARK    1  A    between atoms: C_2  and  C_3 
REMARK    2  A    between atoms: C_10  and  C_11 
REMARK       I    between atoms: C_11  and  N_12 
REMARK    3  A    between atoms: N_12  and  C_13 
REMARK    4  A    between atoms: C_20  and  C_21 
REMARK       I    between atoms: C_21  and  N_22 
ROOT
HETATM    1  C   UNL     1       7.845  29.178  55.974  1.00  0.00     0.035 A 
HETATM    2  C   UNL     1       7.185  30.056  56.840  1.00  0.00     0.046 A 
HETATM    3  C   UNL     1       7.856  30.564  57.976  1.00  0.00     0.030 A 
HETATM    4  C   UNL     1       9.164  30.171  58.217  1.00  0.00     0.063 A 
HETATM    5  N   UNL     1       9.529  30.811  59.369  1.00  0.00    -0.277 N 
HETATM    6  H   UNL     1      10.422  30.755  59.846  1.00  0.00     0.189 HD
HETATM    7  N   UNL     1       8.574  31.597  59.895  1.00  0.00    -0.168 NA
HETATM    8  C   UNL     1       7.533  31.455  59.043  1.00  0.00     0.156 A 
HETATM    9  C   UNL     1       9.858  29.295  57.384  1.00  0.00     0.034 A 
HETATM   10  C   UNL     1       9.171  28.813  56.262  1.00  0.00     0.032 A 
ENDROOT
BRANCH   1  11
HETATM   11  N   UNL     1       7.294  28.615  54.807  1.00  0.00    -0.324 N 
HETATM   12  C   UNL     1       6.285  27.737  54.549  1.00  0.00     0.246 C 
HETATM   13  O   UNL     1       6.019  27.449  53.382  1.00  0.00    -0.268 OA
HETATM   14  H   UNL     1       7.728  28.894  53.934  1.00  0.00     0.169 HD
BRANCH  12  15
HETATM   15  C   UNL     1       5.484  27.161  55.642  1.00  0.00     0.082 C 
HETATM   16  C   UNL     1       5.629  25.894  56.072  1.00  0.00    -0.045 C 
HETATM   17  C   UNL     1       4.782  25.325  57.176  1.00  0.00     0.049 C 
BRANCH  16  18
HETATM   18  C   UNL     1       6.624  24.965  55.495  1.00  0.00    -0.008 A 
HETATM   19  C   UNL     1       7.884  24.730  56.070  1.00  0.00     0.044 A 
HETATM   20 CL   UNL     1       8.398  25.527  57.516  1.00  0.00    -0.083 Cl
HETATM   21  C   UNL     1       8.779  23.835  55.473  1.00  0.00     0.024 A 
HETATM   22  C   UNL     1       8.428  23.169  54.298  1.00  0.00     0.002 A 
HETATM   23  C   UNL     1       7.184  23.399  53.716  1.00  0.00     0.001 A 
HETATM   24  C   UNL     1       6.288  24.290  54.310  1.00  0.00     0.013 A 
ENDBRANCH  16  18
ENDBRANCH  12  15
ENDBRANCH   1  11
BRANCH   8  25
HETATM   25  C   UNL     1       6.268  32.172  59.253  1.00  0.00     0.270 C 
HETATM   26  N   UNL     1       5.665  31.900  60.451  1.00  0.00    -0.365 N 
HETATM   27  H   UNL     1       6.117  31.253  61.086  1.00  0.00     0.159 HD
HETATM   28  H   UNL     1       4.795  32.349  60.688  1.00  0.00     0.159 HD
HETATM   29  O   UNL     1       5.772  32.957  58.452  1.00  0.00    -0.266 OA
ENDBRANCH   8  25
TORSDOF 4
ENDMDL
MODEL 3
REMARK VINA RESULT:      -8.6      4.188      6.991
REMARK  4 active torsions:
REMARK  status: ('A' for Active; 'I' for Inactive)
REMARK    1  A    between atoms: C_2  and  C_3 
REMARK    2  A    between atoms: C_10  and  C_11 
REMARK       I    between atoms: C_11  and  N_12 
REMARK    3  A    between atoms: N_12  and  C_13 
REMARK    4  A    between atoms: C_20  and  C_21 
REMARK       I    between atoms: C_21  and  N_22 
ROOT
HETATM    1  C   UNL     1       5.866  28.602  53.748  1.00  0.00     0.035 A 
HETATM    2  C   UNL     1       5.734  28.165  52.426  1.00  0.00     0.046 A 
HETATM    3  C   UNL     1       4.513  28.356  51.739  1.00  0.00     0.030 A 
HETATM    4  C   UNL     1       3.457  28.969  52.398  1.00  0.00     0.063 A 
HETATM    5  N   UNL     1       2.434  29.002  51.492  1.00  0.00    -0.277 N 
HETATM    6  H   UNL     1       1.503  29.378  51.631  1.00  0.00     0.189 HD
HETATM    7  N   UNL     1       2.734  28.472  50.294  1.00  0.00    -0.168 NA
HETATM    8  C   UNL     1       4.018  28.068  50.431  1.00  0.00     0.156 A 
HETATM    9  C   UNL     1       3.544  29.415  53.715  1.00  0.00     0.034 A 
HETATM   10  C   UNL     1       4.767  29.220  54.370  1.00  0.00     0.032 A 
ENDROOT
BRANCH   1  11
HETATM   11  N   UNL     1       7.028  28.484  54.535  1.00  0.00    -0.324 N 
HETATM   12  C   UNL     1       7.316  27.924  55.742  1.00  0.00     0.246 C 
HETATM   13  O   UNL     1       8.471  27.965  56.166  1.00  0.00    -0.268 OA
HETATM   14  H   UNL     1       7.865  28.910  54.154  1.00  0.00     0.169 HD
BRANCH  12  15
HETATM   15  C   UNL     1       6.276  27.237  56.527  1.00  0.00     0.082 C 
HETATM   16  C   UNL     1       5.961  25.940  56.356  1.00  0.00    -0.045 C 
HETATM   17  C   UNL     1       4.879  25.271  57.156  1.00  0.00     0.049 C 
BRANCH  16  18
HETATM   18  C   UNL     1       6.647  25.076  55.372  1.00  0.00    -0.008 A 
HETATM   19  C   UNL     1       7.857  24.413  55.638  1.00  0.00     0.044 A 
HETATM   20 CL   UNL     1       8.671  24.561  57.157  1.00  0.00    -0.083 Cl
HETATM   21  C   UNL     1       8.452  23.606  54.662  1.00  0.00     0.024 A 
HETATM   22  C   UNL     1       7.850  23.456  53.412  1.00  0.00     0.002 A 
HETATM   23  C   UNL     1       6.655  24.114  53.134  1.00  0.00     0.001 A 
HETATM   24  C   UNL     1       6.057  24.917  54.107  1.00  0.00     0.013 A 
ENDBRANCH  16  18
ENDBRANCH  12  15
ENDBRANCH   1  11
BRANCH   8  25
HETATM   25  C   UNL     1       4.745  27.434  49.323  1.00  0.00     0.270 C 
HETATM   26  N   UNL     1       5.759  28.198  48.811  1.00  0.00    -0.365 N 
HETATM   27  H   UNL     1       5.932  29.109  49.219  1.00  0.00     0.159 HD
HETATM   28  H   UNL     1       6.319  27.845  48.052  1.00  0.00     0.159 HD
HETATM   29  O   UNL     1       4.499  26.319  48.878  1.00  0.00    -0.266 OA
ENDBRANCH   8  25
TORSDOF 4
ENDMDL
MODEL 4
REMARK VINA RESULT:      -8.5      6.730     10.182
REMARK  4 active torsions:
REMARK  status: ('A' for Active; 'I' for Inactive)
REMARK    1  A    between atoms: C_2  and  C_3 
REMARK    2  A    between atoms: C_10  and  C_11 
REMARK       I    between atoms: C_11  and  N_12 
REMARK    3  A    between atoms: N_12  and  C_13 
REMARK    4  A    between atoms: C_20  and  C_21 
REMARK       I    between atoms: C_21  and  N_22 
ROOT
HETATM    1  C   UNL     1       4.155  32.588  61.502  1.00  0.00     0.035 A 
HETATM    2  C   UNL     1       5.497  32.238  61.680  1.00  0.00     0.046 A 
HETATM    3  C   UNL     1       6.337  32.066  60.556  1.00  0.00     0.030 A 
HETATM    4  C   UNL     1       5.807  32.241  59.285  1.00  0.00     0.063 A 
HETATM    5  N   UNL     1       6.842  32.005  58.424  1.00  0.00    -0.277 N 
HETATM    6  H   UNL     1       6.818  32.039  57.411  1.00  0.00     0.189 HD
HETATM    7  N   UNL     1       8.005  31.699  59.024  1.00  0.00    -0.168 NA
HETATM    8  C   UNL     1       7.709  31.734  60.343  1.00  0.00     0.156 A 
HETATM    9  C   UNL     1       4.476  32.587  59.062  1.00  0.00     0.034 A 
HETATM   10  C   UNL     1       3.667  32.757  60.194  1.00  0.00     0.032 A 
ENDROOT
BRANCH   1  11
HETATM   11  N   UNL     1       3.222  32.800  62.535  1.00  0.00    -0.324 N 
HETATM   12  C   UNL     1       2.741  33.898  63.183  1.00  0.00     0.246 C 
HETATM   13  O   UNL     1       1.885  33.756  64.056  1.00  0.00    -0.268 OA
HETATM   14  H   UNL     1       2.794  31.967  62.922  1.00  0.00     0.169 HD
BRANCH  12  15
HETATM   15  C   UNL     1       3.201  35.250  62.826  1.00  0.00     0.082 C 
HETATM   16  C   UNL     1       4.298  35.819  63.362  1.00  0.00    -0.045 C 
HETATM   17  C   UNL     1       4.732  37.211  62.996  1.00  0.00     0.049 C 
BRANCH  16  18
HETATM   18  C   UNL     1       5.154  35.128  64.348  1.00  0.00    -0.008 A 
HETATM   19  C   UNL     1       4.833  35.027  65.713  1.00  0.00     0.044 A 
HETATM   20 CL   UNL     1       3.396  35.726  66.372  1.00  0.00    -0.083 Cl
HETATM   21  C   UNL     1       5.688  34.355  66.593  1.00  0.00     0.024 A 
HETATM   22  C   UNL     1       6.869  33.779  66.124  1.00  0.00     0.002 A 
HETATM   23  C   UNL     1       7.200  33.878  64.775  1.00  0.00     0.001 A 
HETATM   24  C   UNL     1       6.349  34.547  63.893  1.00  0.00     0.013 A 
ENDBRANCH  16  18
ENDBRANCH  12  15
ENDBRANCH   1  11
BRANCH   8  25
HETATM   25  C   UNL     1       8.729  31.466  61.365  1.00  0.00     0.270 C 
HETATM   26  N   UNL     1       8.411  30.441  62.215  1.00  0.00    -0.365 N 
HETATM   27  H   UNL     1       7.531  29.957  62.083  1.00  0.00     0.159 HD
HETATM   28  H   UNL     1       9.052  30.178  62.947  1.00  0.00     0.159 HD
HETATM   29  O   UNL     1       9.786  32.078  61.471  1.00  0.00    -0.266 OA
ENDBRANCH   8  25
TORSDOF 4
ENDMDL
MODEL 5
REMARK VINA RESULT:      -8.2      6.302     10.025
REMARK  4 active torsions:
REMARK  status: ('A' for Active; 'I' for Inactive)
REMARK    1  A    between atoms: C_2  and  C_3 
REMARK    2  A    between atoms: C_10  and  C_11 
REMARK       I    between atoms: C_11  and  N_12 
REMARK    3  A    between atoms: N_12  and  C_13 
REMARK    4  A    between atoms: C_20  and  C_21 
REMARK       I    between atoms: C_21  and  N_22 
ROOT
HETATM    1  C   UNL     1       7.880  32.310  62.574  1.00  0.00     0.035 A 
HETATM    2  C   UNL     1       7.050  32.558  61.476  1.00  0.00     0.046 A 
HETATM    3  C   UNL     1       7.223  31.824  60.280  1.00  0.00     0.030 A 
HETATM    4  C   UNL     1       8.229  30.870  60.215  1.00  0.00     0.063 A 
HETATM    5  N   UNL     1       8.151  30.346  58.954  1.00  0.00    -0.277 N 
HETATM    6  H   UNL     1       8.737  29.623  58.553  1.00  0.00     0.189 HD
HETATM    7  N   UNL     1       7.175  30.870  58.194  1.00  0.00    -0.168 NA
HETATM    8  C   UNL     1       6.591  31.785  59.001  1.00  0.00     0.156 A 
HETATM    9  C   UNL     1       9.080  30.594  61.283  1.00  0.00     0.034 A 
HETATM   10  C   UNL     1       8.882  31.332  62.458  1.00  0.00     0.032 A 
ENDROOT
BRANCH   1  11
HETATM   11  N   UNL     1       7.801  32.961  63.820  1.00  0.00    -0.324 N 
HETATM   12  C   UNL     1       6.782  33.367  64.628  1.00  0.00     0.246 C 
HETATM   13  O   UNL     1       7.043  33.907  65.703  1.00  0.00    -0.268 OA
HETATM   14  H   UNL     1       8.687  33.213  64.244  1.00  0.00     0.169 HD
BRANCH  12  15
HETATM   15  C   UNL     1       5.378  33.134  64.251  1.00  0.00     0.082 C 
HETATM   16  C   UNL     1       4.567  34.109  63.798  1.00  0.00    -0.045 C 
HETATM   17  C   UNL     1       3.130  33.847  63.441  1.00  0.00     0.049 C 
BRANCH  16  18
HETATM   18  C   UNL     1       5.019  35.504  63.619  1.00  0.00    -0.008 A 
HETATM   19  C   UNL     1       4.916  36.483  64.622  1.00  0.00     0.044 A 
HETATM   20 CL   UNL     1       4.228  36.142  66.171  1.00  0.00    -0.083 Cl
HETATM   21  C   UNL     1       5.368  37.787  64.388  1.00  0.00     0.024 A 
HETATM   22  C   UNL     1       5.923  38.127  63.154  1.00  0.00     0.002 A 
HETATM   23  C   UNL     1       6.024  37.167  62.150  1.00  0.00     0.001 A 
HETATM   24  C   UNL     1       5.576  35.865  62.382  1.00  0.00     0.013 A 
ENDBRANCH  16  18
ENDBRANCH  12  15
ENDBRANCH   1  11
BRANCH   8  25
HETATM   25  C   UNL     1       5.447  32.588  58.548  1.00  0.00     0.270 C 
HETATM   26  N   UNL     1       4.258  32.245  59.132  1.00  0.00    -0.365 N 
HETATM   27  H   UNL     1       4.251  31.494  59.812  1.00  0.00     0.159 HD
HETATM   28  H   UNL     1       3.418  32.745  58.890  1.00  0.00     0.159 HD
HETATM   29  O   UNL     1       5.517  33.498  57.729  1.00  0.00    -0.266 OA
ENDBRANCH   8  25
TORSDOF 4
ENDMDL
MODEL 6
REMARK VINA RESULT:      -8.0      4.673      6.689
REMARK  4 active torsions:
REMARK  status: ('A' for Active; 'I' for Inactive)
REMARK    1  A    between atoms: C_2  and  C_3 
REMARK    2  A    between atoms: C_10  and  C_11 
REMARK       I    between atoms: C_11  and  N_12 
REMARK    3  A    between atoms: N_12  and  C_13 
REMARK    4  A    between atoms: C_20  and  C_21 
REMARK       I    between atoms: C_21  and  N_22 
ROOT
HETATM    1  C   UNL     1       5.030  26.045  53.355  1.00  0.00     0.035 A 
HETATM    2  C   UNL     1       5.676  25.862  54.582  1.00  0.00     0.046 A 
HETATM    3  C   UNL     1       6.783  24.988  54.673  1.00  0.00     0.030 A 
HETATM    4  C   UNL     1       7.206  24.315  53.536  1.00  0.00     0.063 A 
HETATM    5  N   UNL     1       8.270  23.556  53.938  1.00  0.00    -0.277 N 
HETATM    6  H   UNL     1       8.828  22.930  53.369  1.00  0.00     0.189 HD
HETATM    7  N   UNL     1       8.584  23.683  55.239  1.00  0.00    -0.168 NA
HETATM    8  C   UNL     1       7.674  24.567  55.707  1.00  0.00     0.156 A 
HETATM    9  C   UNL     1       6.590  24.464  52.295  1.00  0.00     0.034 A 
HETATM   10  C   UNL     1       5.499  25.341  52.232  1.00  0.00     0.032 A 
ENDROOT
BRANCH   1  11
HETATM   11  N   UNL     1       3.930  26.894  53.130  1.00  0.00    -0.324 N 
HETATM   12  C   UNL     1       3.733  28.044  52.427  1.00  0.00     0.246 C 
HETATM   13  O   UNL     1       2.611  28.552  52.404  1.00  0.00    -0.268 OA
HETATM   14  H   UNL     1       3.066  26.628  53.589  1.00  0.00     0.169 HD
BRANCH  12  15
HETATM   15  C   UNL     1       4.830  28.663  51.666  1.00  0.00     0.082 C 
HETATM   16  C   UNL     1       4.952  28.552  50.329  1.00  0.00    -0.045 C 
HETATM   17  C   UNL     1       6.096  29.177  49.580  1.00  0.00     0.049 C 
BRANCH  16  18
HETATM   18  C   UNL     1       3.981  27.809  49.499  1.00  0.00    -0.008 A 
HETATM   19  C   UNL     1       2.789  28.374  49.014  1.00  0.00     0.044 A 
HETATM   20 CL   UNL     1       2.338  30.006  49.364  1.00  0.00    -0.083 Cl
HETATM   21  C   UNL     1       1.915  27.615  48.229  1.00  0.00     0.024 A 
HETATM   22  C   UNL     1       2.217  26.288  47.923  1.00  0.00     0.002 A 
HETATM   23  C   UNL     1       3.392  25.716  48.402  1.00  0.00     0.001 A 
HETATM   24  C   UNL     1       4.269  26.471  49.184  1.00  0.00     0.013 A 
ENDBRANCH  16  18
ENDBRANCH  12  15
ENDBRANCH   1  11
BRANCH   8  25
HETATM   25  C   UNL     1       7.676  24.999  57.111  1.00  0.00     0.270 C 
HETATM   26  N   UNL     1       8.674  24.443  57.864  1.00  0.00    -0.365 N 
HETATM   27  H   UNL     1       9.319  23.802  57.418  1.00  0.00     0.159 HD
HETATM   28  H   UNL     1       8.761  24.684  58.839  1.00  0.00     0.159 HD
HETATM   29  O   UNL     1       6.876  25.792  57.596  1.00  0.00    -0.266 OA
ENDBRANCH   8  25
TORSDOF 4
ENDMDL
MODEL 7
REMARK VINA RESULT:      -8.0      6.039     10.096
REMARK  4 active torsions:
REMARK  status: ('A' for Active; 'I' for Inactive)
REMARK    1  A    between atoms: C_2  and  C_3 
REMARK    2  A    between atoms: C_10  and  C_11 
REMARK       I    between atoms: C_11  and  N_12 
REMARK    3  A    between atoms: N_12  and  C_13 
REMARK    4  A    between atoms: C_20  and  C_21 
REMARK       I    between atoms: C_21  and  N_22 
ROOT
HETATM    1  C   UNL     1       3.159  33.540  60.920  1.00  0.00     0.035 A 
HETATM    2  C   UNL     1       4.214  32.830  60.339  1.00  0.00     0.046 A 
HETATM    3  C   UNL     1       4.515  33.006  58.969  1.00  0.00     0.030 A 
HETATM    4  C   UNL     1       3.744  33.882  58.218  1.00  0.00     0.063 A 
HETATM    5  N   UNL     1       4.265  33.832  56.955  1.00  0.00    -0.277 N 
HETATM    6  H   UNL     1       3.947  34.343  56.139  1.00  0.00     0.189 HD
HETATM    7  N   UNL     1       5.316  33.006  56.819  1.00  0.00    -0.168 NA
HETATM    8  C   UNL     1       5.483  32.488  58.057  1.00  0.00     0.156 A 
HETATM    9  C   UNL     1       2.681  34.606  58.755  1.00  0.00     0.034 A 
HETATM   10  C   UNL     1       2.410  34.416  60.116  1.00  0.00     0.032 A 
ENDROOT
BRANCH   1  11
HETATM   11  N   UNL     1       2.769  33.463  62.271  1.00  0.00    -0.324 N 
HETATM   12  C   UNL     1       2.829  34.309  63.337  1.00  0.00     0.246 C 
HETATM   13  O   UNL     1       2.368  33.948  64.420  1.00  0.00    -0.268 OA
HETATM   14  H   UNL     1       2.351  32.586  62.560  1.00  0.00     0.169 HD
BRANCH  12  15
HETATM   15  C   UNL     1       3.402  35.658  63.201  1.00  0.00     0.082 C 
HETATM   16  C   UNL     1       4.713  35.921  63.364  1.00  0.00    -0.045 C 
HETATM   17  C   UNL     1       5.266  37.313  63.241  1.00  0.00     0.049 C 
BRANCH  16  18
HETATM   18  C   UNL     1       5.704  34.870  63.676  1.00  0.00    -0.008 A 
HETATM   19  C   UNL     1       5.990  34.445  64.984  1.00  0.00     0.044 A 
HETATM   20 CL   UNL     1       5.209  35.132  66.366  1.00  0.00    -0.083 Cl
HETATM   21  C   UNL     1       6.939  33.441  65.211  1.00  0.00     0.024 A 
HETATM   22  C   UNL     1       7.612  32.855  64.138  1.00  0.00     0.002 A 
HETATM   23  C   UNL     1       7.341  33.274  62.838  1.00  0.00     0.001 A 
HETATM   24  C   UNL     1       6.393  34.273  62.608  1.00  0.00     0.013 A 
ENDBRANCH  16  18
ENDBRANCH  12  15
ENDBRANCH   1  11
BRANCH   8  25
HETATM   25  C   UNL     1       6.558  31.530  58.349  1.00  0.00     0.270 C 
HETATM   26  N   UNL     1       6.190  30.219  58.207  1.00  0.00    -0.365 N 
HETATM   27  H   UNL     1       5.242  30.010  57.918  1.00  0.00     0.159 HD
HETATM   28  H   UNL     1       6.862  29.488  58.379  1.00  0.00     0.159 HD
HETATM   29  O   UNL     1       7.696  31.841  58.683  1.00  0.00    -0.266 OA
ENDBRANCH   8  25
TORSDOF 4
ENDMDL
MODEL 8
REMARK VINA RESULT:      -8.0      3.977      7.200
REMARK  4 active torsions:
REMARK  status: ('A' for Active; 'I' for Inactive)
REMARK    1  A    between atoms: C_2  and  C_3 
REMARK    2  A    between atoms: C_10  and  C_11 
REMARK       I    between atoms: C_11  and  N_12 
REMARK    3  A    between atoms: N_12  and  C_13 
REMARK    4  A    between atoms: C_20  and  C_21 
REMARK       I    between atoms: C_21  and  N_22 
ROOT
HETATM    1  C   UNL     1       6.081  24.550  55.181  1.00  0.00     0.035 A 
HETATM    2  C   UNL     1       6.829  23.486  55.696  1.00  0.00     0.046 A 
HETATM    3  C   UNL     1       7.584  22.667  54.826  1.00  0.00     0.030 A 
HETATM    4  C   UNL     1       7.560  22.930  53.463  1.00  0.00     0.063 A 
HETATM    5  N   UNL     1       8.365  21.982  52.896  1.00  0.00    -0.277 N 
HETATM    6  H   UNL     1       8.579  21.867  51.912  1.00  0.00     0.189 HD
HETATM    7  N   UNL     1       8.921  21.128  53.772  1.00  0.00    -0.168 NA
HETATM    8  C   UNL     1       8.448  21.540  54.971  1.00  0.00     0.156 A 
HETATM    9  C   UNL     1       6.826  23.976  52.907  1.00  0.00     0.034 A 
HETATM   10  C   UNL     1       6.092  24.776  53.794  1.00  0.00     0.032 A 
ENDROOT
BRANCH   1  11
HETATM   11  N   UNL     1       5.302  25.443  55.941  1.00  0.00    -0.324 N 
HETATM   12  C   UNL     1       5.525  26.653  56.525  1.00  0.00     0.246 C 
HETATM   13  O   UNL     1       4.605  27.213  57.123  1.00  0.00    -0.268 OA
HETATM   14  H   UNL     1       4.350  25.149  56.129  1.00  0.00     0.169 HD
BRANCH  12  15
HETATM   15  C   UNL     1       6.835  27.316  56.419  1.00  0.00     0.082 C 
HETATM   16  C   UNL     1       7.111  28.255  55.494  1.00  0.00    -0.045 C 
HETATM   17  C   UNL     1       8.465  28.900  55.395  1.00  0.00     0.049 C 
BRANCH  16  18
HETATM   18  C   UNL     1       6.113  28.722  54.509  1.00  0.00    -0.008 A 
HETATM   19  C   UNL     1       5.147  29.701  54.794  1.00  0.00     0.044 A 
HETATM   20 CL   UNL     1       5.027  30.448  56.350  1.00  0.00    -0.083 Cl
HETATM   21  C   UNL     1       4.233  30.101  53.814  1.00  0.00     0.024 A 
HETATM   22  C   UNL     1       4.271  29.527  52.542  1.00  0.00     0.002 A 
HETATM   23  C   UNL     1       5.220  28.551  52.250  1.00  0.00     0.001 A 
HETATM   24  C   UNL     1       6.135  28.152  53.226  1.00  0.00     0.013 A 
ENDBRANCH  16  18
ENDBRANCH  12  15
ENDBRANCH   1  11
BRANCH   8  25
HETATM   25  C   UNL     1       8.831  20.867  56.219  1.00  0.00     0.270 C 
HETATM   26  N   UNL     1       9.800  19.913  56.064  1.00  0.00    -0.365 N 
HETATM   27  H   UNL     1      10.172  19.747  55.136  1.00  0.00     0.159 HD
HETATM   28  H   UNL     1      10.133  19.401  56.865  1.00  0.00     0.159 HD
HETATM   29  O   UNL     1       8.354  21.119  57.320  1.00  0.00    -0.266 OA
ENDBRANCH   8  25
TORSDOF 4
ENDMDL
MODEL 9
REMARK VINA RESULT:      -7.9      2.430      3.478
REMARK  4 active torsions:
REMARK  status: ('A' for Active; 'I' for Inactive)
REMARK    1  A    between atoms: C_2  and  C_3 
REMARK    2  A    between atoms: C_10  and  C_11 
REMARK       I    between atoms: C_11  and  N_12 
REMARK    3  A    between atoms: N_12  and  C_13 
REMARK    4  A    between atoms: C_20  and  C_21 
REMARK       I    between atoms: C_21  and  N_22 
ROOT
HETATM    1  C   UNL     1       4.472  28.547  56.234  1.00  0.00     0.035 A 
HETATM    2  C   UNL     1       4.980  29.456  57.167  1.00  0.00     0.046 A 
HETATM    3  C   UNL     1       5.061  30.830  56.844  1.00  0.00     0.030 A 
HETATM    4  C   UNL     1       4.640  31.252  55.591  1.00  0.00     0.063 A 
HETATM    5  N   UNL     1       4.845  32.604  55.576  1.00  0.00    -0.277 N 
HETATM    6  H   UNL     1       4.654  33.246  54.815  1.00  0.00     0.189 HD
HETATM    7  N   UNL     1       5.356  33.102  56.715  1.00  0.00    -0.168 NA
HETATM    8  C   UNL     1       5.493  32.016  57.510  1.00  0.00     0.156 A 
HETATM    9  C   UNL     1       4.132  30.381  54.629  1.00  0.00     0.034 A 
HETATM   10  C   UNL     1       4.057  29.027  54.980  1.00  0.00     0.032 A 
ENDROOT
BRANCH   1  11
HETATM   11  N   UNL     1       4.327  27.161  56.438  1.00  0.00    -0.324 N 
HETATM   12  C   UNL     1       5.143  26.168  56.889  1.00  0.00     0.246 C 
HETATM   13  O   UNL     1       4.704  25.021  56.979  1.00  0.00    -0.268 OA
HETATM   14  H   UNL     1       3.424  26.771  56.196  1.00  0.00     0.169 HD
BRANCH  12  15
HETATM   15  C   UNL     1       6.526  26.454  57.306  1.00  0.00     0.082 C 
HETATM   16  C   UNL     1       7.597  26.186  56.535  1.00  0.00    -0.045 C 
HETATM   17  C   UNL     1       9.000  26.468  56.996  1.00  0.00     0.049 C 
BRANCH  16  18
HETATM   18  C   UNL     1       7.481  25.594  55.186  1.00  0.00    -0.008 A 
HETATM   19  C   UNL     1       7.385  26.361  54.013  1.00  0.00     0.044 A 
HETATM   20 CL   UNL     1       7.380  28.090  54.044  1.00  0.00    -0.083 Cl
HETATM   21  C   UNL     1       7.280  25.737  52.765  1.00  0.00     0.024 A 
HETATM   22  C   UNL     1       7.267  24.344  52.675  1.00  0.00     0.002 A 
HETATM   23  C   UNL     1       7.355  23.574  53.832  1.00  0.00     0.001 A 
HETATM   24  C   UNL     1       7.462  24.194  55.078  1.00  0.00     0.013 A 
ENDBRANCH  16  18
ENDBRANCH  12  15
ENDBRANCH   1  11
BRANCH   8  25
HETATM   25  C   UNL     1       6.017  32.128  58.878  1.00  0.00     0.270 C 
HETATM   26  N   UNL     1       5.086  31.894  59.853  1.00  0.00    -0.365 N 
HETATM   27  H   UNL     1       4.139  31.666  59.575  1.00  0.00     0.159 HD
HETATM   28  H   UNL     1       5.353  31.942  60.823  1.00  0.00     0.159 HD
HETATM   29  O   UNL     1       7.181  32.395  59.157  1.00  0.00    -0.266 OA
ENDBRANCH   8  25
TORSDOF 4
ENDMDL
MODEL 10
REMARK VINA RESULT:      -7.8      4.257      7.105
REMARK  4 active torsions:
REMARK  status: ('A' for Active; 'I' for Inactive)
REMARK    1  A    between atoms: C_2  and  C_3 
REMARK    2  A    between atoms: C_10  and  C_11 
REMARK       I    between atoms: C_11  and  N_12 
REMARK    3  A    between atoms: N_12  and  C_13 
REMARK    4  A    between atoms: C_20  and  C_21 
REMARK       I    between atoms: C_21  and  N_22 
ROOT
HETATM    1  C   UNL     1       3.959  28.408  53.892  1.00  0.00     0.035 A 
HETATM    2  C   UNL     1       4.016  27.870  52.603  1.00  0.00     0.046 A 
HETATM    3  C   UNL     1       3.863  28.713  51.479  1.00  0.00     0.030 A 
HETATM    4  C   UNL     1       3.648  30.070  51.678  1.00  0.00     0.063 A 
HETATM    5  N   UNL     1       3.535  30.607  50.426  1.00  0.00    -0.277 N 
HETATM    6  H   UNL     1       3.369  31.578  50.187  1.00  0.00     0.189 HD
HETATM    7  N   UNL     1       3.667  29.719  49.426  1.00  0.00    -0.168 NA
HETATM    8  C   UNL     1       3.872  28.543  50.061  1.00  0.00     0.156 A 
HETATM    9  C   UNL     1       3.580  30.647  52.944  1.00  0.00     0.034 A 
HETATM   10  C   UNL     1       3.742  29.789  54.040  1.00  0.00     0.032 A 
ENDROOT
BRANCH   1  11
HETATM   11  N   UNL     1       4.109  27.680  55.088  1.00  0.00    -0.324 N 
HETATM   12  C   UNL     1       5.076  27.593  56.044  1.00  0.00     0.246 C 
HETATM   13  O   UNL     1       4.899  26.859  57.016  1.00  0.00    -0.268 OA
HETATM   14  H   UNL     1       3.346  27.056  55.324  1.00  0.00     0.169 HD
BRANCH  12  15
HETATM   15  C   UNL     1       6.309  28.392  55.949  1.00  0.00     0.082 C 
HETATM   16  C   UNL     1       7.415  27.965  55.310  1.00  0.00    -0.045 C 
HETATM   17  C   UNL     1       8.668  28.793  55.248  1.00  0.00     0.049 C 
BRANCH  16  18
HETATM   18  C   UNL     1       7.486  26.657  54.627  1.00  0.00    -0.008 A 
HETATM   19  C   UNL     1       7.716  25.446  55.302  1.00  0.00     0.044 A 
HETATM   20 CL   UNL     1       7.954  25.378  57.013  1.00  0.00    -0.083 Cl
HETATM   21  C   UNL     1       7.768  24.240  54.594  1.00  0.00     0.024 A 
HETATM   22  C   UNL     1       7.596  24.230  53.209  1.00  0.00     0.002 A 
HETATM   23  C   UNL     1       7.374  25.424  52.530  1.00  0.00     0.001 A 
HETATM   24  C   UNL     1       7.318  26.629  53.233  1.00  0.00     0.013 A 
ENDBRANCH  16  18
ENDBRANCH  12  15
ENDBRANCH   1  11
BRANCH   8  25
HETATM   25  C   UNL     1       4.081  27.295  49.316  1.00  0.00     0.270 C 
HETATM   26  N   UNL     1       5.330  26.757  49.468  1.00  0.00    -0.365 N 
HETATM   27  H   UNL     1       5.995  27.235  50.064  1.00  0.00     0.159 HD
HETATM   28  H   UNL     1       5.567  25.896  49.000  1.00  0.00     0.159 HD
HETATM   29  O   UNL     1       3.233  26.751  48.617  1.00  0.00    -0.266 OA
ENDBRANCH   8  25
TORSDOF 4
ENDMDL
