MODEL 1
REMARK VINA RESULT:     -10.9      0.000      0.000
REMARK  9 active torsions:
REMARK  status: ('A' for Active; 'I' for Inactive)
REMARK    1  A    between atoms: O_2  and  C_3 
REMARK    2  A    between atoms: C_6  and  C_7 
REMARK    3  A    between atoms: C_8  and  C_9 
REMARK    4  A    between atoms: C_9  and  O_10 
REMARK    5  A    between atoms: O_10  and  C_11 
REMARK    6  A    between atoms: C_14  and  C_15 
REMARK    7  A    between atoms: C_17  and  O_18 
REMARK    8  A    between atoms: N_26  and  C_28 
REMARK    9  A    between atoms: C_28  and  C_29 
ROOT
HETATM    1  C   UNL     1       5.228  30.853  56.259  1.00  0.00     0.243 C 
HETATM    2  N   UNL     1       4.048  29.980  56.498  1.00  0.00    -0.235 NA
HETATM    3  C   UNL     1       4.301  28.724  56.393  1.00  0.00     0.173 C 
HETATM    4  C   UNL     1       5.566  28.169  55.980  1.00  0.00     0.057 A 
HETATM    5  C   UNL     1       6.429  29.032  55.348  1.00  0.00     0.087 A 
HETATM    6  S   UNL     1       7.872  28.294  54.857  1.00  0.00    -0.074 SA
HETATM    7  C   UNL     1       7.410  26.823  55.582  1.00  0.00     0.018 A 
HETATM    8  C   UNL     1       6.142  26.875  56.142  1.00  0.00    -0.024 A 
HETATM    9  C   UNL     1       5.547  25.695  56.848  1.00  0.00     0.068 C 
HETATM   10  C   UNL     1       6.624  24.656  57.201  1.00  0.00     0.240 C 
HETATM   11  N   UNL     1       7.571  24.383  56.030  1.00  0.00    -0.063 N 
HETATM   12  H   UNL     1       8.273  23.722  56.377  1.00  0.00     0.280 HD
HETATM   13  C   UNL     1       8.324  25.648  55.638  1.00  0.00     0.282 C 
HETATM   14  N   UNL     1       6.120  30.339  55.208  1.00  0.00    -0.357 N 
HETATM   15  H   UNL     1       6.841  30.986  54.908  1.00  0.00     0.162 HD
ENDROOT
BRANCH   1  16
HETATM   16  C   UNL     1       6.035  31.092  57.554  1.00  0.00    -0.014 A 
HETATM   17  C   UNL     1       7.382  30.684  57.659  1.00  0.00     0.014 A 
HETATM   18  C   UNL     1       8.169  31.072  58.745  1.00  0.00     0.038 A 
HETATM   19  C   UNL     1       7.608  31.868  59.735  1.00  0.00     0.079 A 
HETATM   20  C   UNL     1       6.251  32.178  59.726  1.00  0.00     0.038 A 
HETATM   21  C   UNL     1       5.467  31.782  58.642  1.00  0.00     0.014 A 
BRANCH  19  22
HETATM   22  O   UNL     1       8.383  32.368  60.779  1.00  0.00    -0.276 OA
BRANCH  22  23
HETATM   23  C   UNL     1       8.557  31.442  61.792  1.00  0.00     0.288 C 
HETATM   24  O   UNL     1       9.151  30.371  61.739  1.00  0.00    -0.260 OA
BRANCH  23  25
HETATM   25  C   UNL     1       7.940  31.908  63.054  1.00  0.00     0.083 C 
HETATM   26  C   UNL     1       6.827  32.654  63.119  1.00  0.00     0.017 C 
BRANCH  26  27
HETATM   27  C   UNL     1       6.319  33.210  64.378  1.00  0.00    -0.036 A 
HETATM   28  C   UNL     1       7.236  33.567  65.372  1.00  0.00     0.014 A 
HETATM   29  C   UNL     1       6.792  34.094  66.587  1.00  0.00     0.037 A 
HETATM   30  C   UNL     1       5.430  34.288  66.823  1.00  0.00     0.068 A 
HETATM   31  C   UNL     1       4.512  33.950  65.830  1.00  0.00     0.037 A 
HETATM   32  C   UNL     1       4.955  33.417  64.611  1.00  0.00     0.014 A 
BRANCH  30  33
HETATM   33  O   UNL     1       5.135  34.807  68.052  1.00  0.00    -0.356 OA
HETATM   34  C   UNL     1       6.229  35.070  68.921  1.00  0.00     0.210 C 
ENDBRANCH  30  33
ENDBRANCH  26  27
ENDBRANCH  23  25
ENDBRANCH  22  23
ENDBRANCH  19  22
ENDBRANCH   1  16
BRANCH   3  35
HETATM   35  O   UNL     1       3.325  27.843  56.678  1.00  0.00    -0.344 OA
HETATM   36  H   UNL     1       3.744  26.965  56.701  1.00  0.00     0.219 HD
ENDBRANCH   3  35
BRANCH  11  37
HETATM   37  C   UNL     1       6.929  23.718  54.833  1.00  0.00     0.273 C 
BRANCH  37  38
HETATM   38  C   UNL     1       7.530  22.380  54.499  1.00  0.00    -0.033 A 
HETATM   39  C   UNL     1       7.846  21.472  55.523  1.00  0.00     0.009 A 
HETATM   40  C   UNL     1       8.439  20.246  55.222  1.00  0.00     0.001 A 
HETATM   41  C   UNL     1       8.720  19.912  53.899  1.00  0.00     0.000 A 
HETATM   42  C   UNL     1       8.401  20.800  52.873  1.00  0.00     0.001 A 
HETATM   43  C   UNL     1       7.807  22.028  53.169  1.00  0.00     0.009 A 
ENDBRANCH  37  38
ENDBRANCH  11  37
TORSDOF 9
ENDMDL
MODEL 2
REMARK VINA RESULT:     -10.2      4.984      8.744
REMARK  9 active torsions:
REMARK  status: ('A' for Active; 'I' for Inactive)
REMARK    1  A    between atoms: O_2  and  C_3 
REMARK    2  A    between atoms: C_6  and  C_7 
REMARK    3  A    between atoms: C_8  and  C_9 
REMARK    4  A    between atoms: C_9  and  O_10 
REMARK    5  A    between atoms: O_10  and  C_11 
REMARK    6  A    between atoms: C_14  and  C_15 
REMARK    7  A    between atoms: C_17  and  O_18 
REMARK    8  A    between atoms: N_26  and  C_28 
REMARK    9  A    between atoms: C_28  and  C_29 
ROOT
HETATM    1  C   UNL     1       7.572  29.663  58.015  1.00  0.00     0.243 C 
HETATM    2  N   UNL     1       8.503  30.049  56.922  1.00  0.00    -0.235 NA
HETATM    3  C   UNL     1       8.561  29.195  55.962  1.00  0.00     0.173 C 
HETATM    4  C   UNL     1       7.889  27.920  55.951  1.00  0.00     0.057 A 
HETATM    5  C   UNL     1       7.442  27.460  57.167  1.00  0.00     0.087 A 
HETATM    6  S   UNL     1       6.703  25.939  57.075  1.00  0.00    -0.074 SA
HETATM    7  C   UNL     1       6.873  25.917  55.380  1.00  0.00     0.018 A 
HETATM    8  C   UNL     1       7.540  27.032  54.892  1.00  0.00    -0.024 A 
HETATM    9  C   UNL     1       7.781  27.223  53.426  1.00  0.00     0.068 C 
HETATM   10  C   UNL     1       6.881  26.298  52.588  1.00  0.00     0.240 C 
HETATM   11  N   UNL     1       6.863  24.866  53.127  1.00  0.00    -0.063 N 
HETATM   12  H   UNL     1       6.206  24.347  52.537  1.00  0.00     0.280 HD
HETATM   13  C   UNL     1       6.299  24.828  54.541  1.00  0.00     0.282 C 
HETATM   14  N   UNL     1       7.564  28.216  58.279  1.00  0.00    -0.357 N 
HETATM   15  H   UNL     1       7.068  27.939  59.119  1.00  0.00     0.162 HD
ENDROOT
BRANCH   1  16
HETATM   16  C   UNL     1       6.132  30.147  57.738  1.00  0.00    -0.014 A 
HETATM   17  C   UNL     1       5.816  31.522  57.710  1.00  0.00     0.014 A 
HETATM   18  C   UNL     1       4.569  31.966  57.267  1.00  0.00     0.038 A 
HETATM   19  C   UNL     1       3.628  31.031  56.853  1.00  0.00     0.079 A 
HETATM   20  C   UNL     1       3.861  29.667  56.990  1.00  0.00     0.038 A 
HETATM   21  C   UNL     1       5.107  29.228  57.440  1.00  0.00     0.014 A 
BRANCH  19  22
HETATM   22  O   UNL     1       2.413  31.433  56.303  1.00  0.00    -0.276 OA
BRANCH  22  23
HETATM   23  C   UNL     1       2.571  32.023  55.061  1.00  0.00     0.288 C 
HETATM   24  O   UNL     1       2.347  33.187  54.747  1.00  0.00    -0.260 OA
BRANCH  23  25
HETATM   25  C   UNL     1       3.105  31.058  54.074  1.00  0.00     0.083 C 
HETATM   26  C   UNL     1       3.865  31.398  53.023  1.00  0.00     0.017 C 
BRANCH  26  27
HETATM   27  C   UNL     1       4.265  30.434  51.992  1.00  0.00    -0.036 A 
HETATM   28  C   UNL     1       3.756  29.134  52.055  1.00  0.00     0.014 A 
HETATM   29  C   UNL     1       4.117  28.185  51.095  1.00  0.00     0.037 A 
HETATM   30  C   UNL     1       4.978  28.523  50.049  1.00  0.00     0.068 A 
HETATM   31  C   UNL     1       5.477  29.823  49.971  1.00  0.00     0.037 A 
HETATM   32  C   UNL     1       5.118  30.775  50.936  1.00  0.00     0.014 A 
BRANCH  30  33
HETATM   33  O   UNL     1       5.250  27.501  49.185  1.00  0.00    -0.356 OA
HETATM   34  C   UNL     1       4.189  26.599  48.897  1.00  0.00     0.210 C 
ENDBRANCH  30  33
ENDBRANCH  26  27
ENDBRANCH  23  25
ENDBRANCH  22  23
ENDBRANCH  19  22
ENDBRANCH   1  16
BRANCH   3  35
HETATM   35  O   UNL     1       9.305  29.490  54.881  1.00  0.00    -0.344 OA
HETATM   36  H   UNL     1       9.992  28.803  54.822  1.00  0.00     0.219 HD
ENDBRANCH   3  35
BRANCH  11  37
HETATM   37  C   UNL     1       8.181  24.131  53.028  1.00  0.00     0.273 C 
BRANCH  37  38
HETATM   38  C   UNL     1       8.181  22.806  53.739  1.00  0.00    -0.033 A 
HETATM   39  C   UNL     1       8.631  22.715  55.065  1.00  0.00     0.009 A 
HETATM   40  C   UNL     1       8.670  21.482  55.717  1.00  0.00     0.001 A 
HETATM   41  C   UNL     1       8.258  20.329  55.053  1.00  0.00     0.000 A 
HETATM   42  C   UNL     1       7.799  20.407  53.740  1.00  0.00     0.001 A 
HETATM   43  C   UNL     1       7.757  21.639  53.084  1.00  0.00     0.009 A 
ENDBRANCH  37  38
ENDBRANCH  11  37
TORSDOF 9
ENDMDL
MODEL 3
REMARK VINA RESULT:     -10.1      1.940      2.409
REMARK  9 active torsions:
REMARK  status: ('A' for Active; 'I' for Inactive)
REMARK    1  A    between atoms: O_2  and  C_3 
REMARK    2  A    between atoms: C_6  and  C_7 
REMARK    3  A    between atoms: C_8  and  C_9 
REMARK    4  A    between atoms: C_9  and  O_10 
REMARK    5  A    between atoms: O_10  and  C_11 
REMARK    6  A    between atoms: C_14  and  C_15 
REMARK    7  A    between atoms: C_17  and  O_18 
REMARK    8  A    between atoms: N_26  and  C_28 
REMARK    9  A    between atoms: C_28  and  C_29 
ROOT
HETATM    1  C   UNL     1       5.076  31.330  56.050  1.00  0.00     0.243 C 
HETATM    2  N   UNL     1       4.124  30.418  55.362  1.00  0.00    -0.235 NA
HETATM    3  C   UNL     1       4.497  29.187  55.352  1.00  0.00     0.173 C 
HETATM    4  C   UNL     1       5.760  28.704  55.854  1.00  0.00     0.057 A 
HETATM    5  C   UNL     1       6.740  29.650  56.039  1.00  0.00     0.087 A 
HETATM    6  S   UNL     1       8.202  28.997  56.589  1.00  0.00    -0.074 SA
HETATM    7  C   UNL     1       7.514  27.442  56.691  1.00  0.00     0.018 A 
HETATM    8  C   UNL     1       6.198  27.408  56.254  1.00  0.00    -0.024 A 
HETATM    9  C   UNL     1       5.396  26.143  56.277  1.00  0.00     0.068 C 
HETATM   10  C   UNL     1       6.053  25.083  57.177  1.00  0.00     0.240 C 
HETATM   11  N   UNL     1       7.559  24.968  56.930  1.00  0.00    -0.063 N 
HETATM   12  H   UNL     1       7.908  24.280  57.604  1.00  0.00     0.280 HD
HETATM   13  C   UNL     1       8.261  26.282  57.251  1.00  0.00     0.282 C 
HETATM   14  N   UNL     1       6.484  30.960  55.835  1.00  0.00    -0.357 N 
HETATM   15  H   UNL     1       7.157  31.648  56.152  1.00  0.00     0.162 HD
ENDROOT
BRANCH   1  16
HETATM   16  C   UNL     1       4.789  31.419  57.565  1.00  0.00    -0.014 A 
HETATM   17  C   UNL     1       5.694  32.050  58.444  1.00  0.00     0.014 A 
HETATM   18  C   UNL     1       5.349  32.307  59.772  1.00  0.00     0.038 A 
HETATM   19  C   UNL     1       4.094  31.926  60.228  1.00  0.00     0.079 A 
HETATM   20  C   UNL     1       3.230  31.188  59.425  1.00  0.00     0.038 A 
HETATM   21  C   UNL     1       3.582  30.928  58.101  1.00  0.00     0.014 A 
BRANCH  19  22
HETATM   22  O   UNL     1       3.666  32.259  61.512  1.00  0.00    -0.276 OA
BRANCH  22  23
HETATM   23  C   UNL     1       3.544  33.626  61.685  1.00  0.00     0.288 C 
HETATM   24  O   UNL     1       3.284  34.472  60.837  1.00  0.00    -0.260 OA
BRANCH  23  25
HETATM   25  C   UNL     1       3.739  34.005  63.102  1.00  0.00     0.083 C 
HETATM   26  C   UNL     1       4.936  34.234  63.664  1.00  0.00     0.017 C 
BRANCH  26  27
HETATM   27  C   UNL     1       5.102  34.476  65.101  1.00  0.00    -0.036 A 
HETATM   28  C   UNL     1       6.262  34.013  65.730  1.00  0.00     0.014 A 
HETATM   29  C   UNL     1       6.455  34.218  67.098  1.00  0.00     0.037 A 
HETATM   30  C   UNL     1       5.503  34.901  67.856  1.00  0.00     0.068 A 
HETATM   31  C   UNL     1       4.352  35.380  67.232  1.00  0.00     0.037 A 
HETATM   32  C   UNL     1       4.154  35.172  65.860  1.00  0.00     0.014 A 
BRANCH  30  33
HETATM   33  O   UNL     1       5.816  35.029  69.180  1.00  0.00    -0.356 OA
HETATM   34  C   UNL     1       6.203  33.846  69.868  1.00  0.00     0.210 C 
ENDBRANCH  30  33
ENDBRANCH  26  27
ENDBRANCH  23  25
ENDBRANCH  22  23
ENDBRANCH  19  22
ENDBRANCH   1  16
BRANCH   3  35
HETATM   35  O   UNL     1       3.667  28.265  54.833  1.00  0.00    -0.344 OA
HETATM   36  H   UNL     1       4.097  27.927  54.029  1.00  0.00     0.219 HD
ENDBRANCH   3  35
BRANCH  11  37
HETATM   37  C   UNL     1       7.943  24.446  55.564  1.00  0.00     0.273 C 
BRANCH  37  38
HETATM   38  C   UNL     1       8.043  22.946  55.503  1.00  0.00    -0.033 A 
HETATM   39  C   UNL     1       8.443  22.219  56.635  1.00  0.00     0.009 A 
HETATM   40  C   UNL     1       8.574  20.831  56.573  1.00  0.00     0.001 A 
HETATM   41  C   UNL     1       8.305  20.157  55.385  1.00  0.00     0.000 A 
HETATM   42  C   UNL     1       7.896  20.866  54.258  1.00  0.00     0.001 A 
HETATM   43  C   UNL     1       7.762  22.255  54.314  1.00  0.00     0.009 A 
ENDBRANCH  37  38
ENDBRANCH  11  37
TORSDOF 9
ENDMDL
MODEL 4
REMARK VINA RESULT:     -10.1      3.614      5.183
REMARK  9 active torsions:
REMARK  status: ('A' for Active; 'I' for Inactive)
REMARK    1  A    between atoms: O_2  and  C_3 
REMARK    2  A    between atoms: C_6  and  C_7 
REMARK    3  A    between atoms: C_8  and  C_9 
REMARK    4  A    between atoms: C_9  and  O_10 
REMARK    5  A    between atoms: O_10  and  C_11 
REMARK    6  A    between atoms: C_14  and  C_15 
REMARK    7  A    between atoms: C_17  and  O_18 
REMARK    8  A    between atoms: N_26  and  C_28 
REMARK    9  A    between atoms: C_28  and  C_29 
ROOT
HETATM    1  C   UNL     1       6.497  27.495  57.408  1.00  0.00     0.243 C 
HETATM    2  N   UNL     1       7.180  26.767  56.305  1.00  0.00    -0.235 NA
HETATM    3  C   UNL     1       6.735  27.059  55.135  1.00  0.00     0.173 C 
HETATM    4  C   UNL     1       5.610  27.922  54.872  1.00  0.00     0.057 A 
HETATM    5  C   UNL     1       4.775  28.170  55.935  1.00  0.00     0.087 A 
HETATM    6  S   UNL     1       3.458  29.156  55.533  1.00  0.00    -0.074 SA
HETATM    7  C   UNL     1       4.044  29.357  53.946  1.00  0.00     0.018 A 
HETATM    8  C   UNL     1       5.202  28.633  53.705  1.00  0.00    -0.024 A 
HETATM    9  C   UNL     1       5.896  28.681  52.379  1.00  0.00     0.068 C 
HETATM   10  C   UNL     1       5.418  29.880  51.543  1.00  0.00     0.240 C 
HETATM   11  N   UNL     1       3.894  30.023  51.555  1.00  0.00    -0.063 N 
HETATM   12  H   UNL     1       3.681  30.869  51.017  1.00  0.00     0.280 HD
HETATM   13  C   UNL     1       3.387  30.271  52.970  1.00  0.00     0.282 C 
HETATM   14  N   UNL     1       5.059  27.689  57.164  1.00  0.00    -0.357 N 
HETATM   15  H   UNL     1       4.535  28.034  57.960  1.00  0.00     0.162 HD
ENDROOT
BRANCH   1  16
HETATM   16  C   UNL     1       7.162  28.859  57.691  1.00  0.00    -0.014 A 
HETATM   17  C   UNL     1       6.387  30.008  57.960  1.00  0.00     0.014 A 
HETATM   18  C   UNL     1       6.981  31.188  58.410  1.00  0.00     0.038 A 
HETATM   19  C   UNL     1       8.358  31.225  58.589  1.00  0.00     0.079 A 
HETATM   20  C   UNL     1       9.162  30.155  58.210  1.00  0.00     0.038 A 
HETATM   21  C   UNL     1       8.564  28.979  57.755  1.00  0.00     0.014 A 
BRANCH  19  22
HETATM   22  O   UNL     1       8.980  32.345  59.138  1.00  0.00    -0.276 OA
BRANCH  22  23
HETATM   23  C   UNL     1       9.349  32.144  60.456  1.00  0.00     0.288 C 
HETATM   24  O   UNL     1      10.384  31.641  60.879  1.00  0.00    -0.260 OA
BRANCH  23  25
HETATM   25  C   UNL     1       8.318  32.659  61.384  1.00  0.00     0.083 C 
HETATM   26  C   UNL     1       8.265  32.363  62.692  1.00  0.00     0.017 C 
BRANCH  26  27
HETATM   27  C   UNL     1       7.154  32.781  63.553  1.00  0.00    -0.036 A 
HETATM   28  C   UNL     1       7.446  33.432  64.756  1.00  0.00     0.014 A 
HETATM   29  C   UNL     1       6.417  33.841  65.607  1.00  0.00     0.037 A 
HETATM   30  C   UNL     1       5.081  33.622  65.264  1.00  0.00     0.068 A 
HETATM   31  C   UNL     1       4.783  32.989  64.059  1.00  0.00     0.037 A 
HETATM   32  C   UNL     1       5.815  32.574  63.205  1.00  0.00     0.014 A 
BRANCH  30  33
HETATM   33  O   UNL     1       4.177  34.069  66.186  1.00  0.00    -0.356 OA
HETATM   34  C   UNL     1       3.747  35.419  66.067  1.00  0.00     0.210 C 
ENDBRANCH  30  33
ENDBRANCH  26  27
ENDBRANCH  23  25
ENDBRANCH  22  23
ENDBRANCH  19  22
ENDBRANCH   1  16
BRANCH   3  35
HETATM   35  O   UNL     1       7.343  26.524  54.061  1.00  0.00    -0.344 OA
HETATM   36  H   UNL     1       7.097  25.583  54.044  1.00  0.00     0.219 HD
ENDBRANCH   3  35
BRANCH  11  37
HETATM   37  C   UNL     1       3.143  28.898  50.878  1.00  0.00     0.273 C 
BRANCH  37  38
HETATM   38  C   UNL     1       3.819  28.392  49.634  1.00  0.00    -0.033 A 
HETATM   39  C   UNL     1       4.104  29.272  48.577  1.00  0.00     0.009 A 
HETATM   40  C   UNL     1       4.696  28.801  47.405  1.00  0.00     0.001 A 
HETATM   41  C   UNL     1       5.011  27.450  47.276  1.00  0.00     0.000 A 
HETATM   42  C   UNL     1       4.743  26.569  48.322  1.00  0.00     0.001 A 
HETATM   43  C   UNL     1       4.152  27.036  49.497  1.00  0.00     0.009 A 
ENDBRANCH  37  38
ENDBRANCH  11  37
TORSDOF 9
ENDMDL
MODEL 5
REMARK VINA RESULT:      -9.9      2.124      3.381
REMARK  9 active torsions:
REMARK  status: ('A' for Active; 'I' for Inactive)
REMARK    1  A    between atoms: O_2  and  C_3 
REMARK    2  A    between atoms: C_6  and  C_7 
REMARK    3  A    between atoms: C_8  and  C_9 
REMARK    4  A    between atoms: C_9  and  O_10 
REMARK    5  A    between atoms: O_10  and  C_11 
REMARK    6  A    between atoms: C_14  and  C_15 
REMARK    7  A    between atoms: C_17  and  O_18 
REMARK    8  A    between atoms: N_26  and  C_28 
REMARK    9  A    between atoms: C_28  and  C_29 
ROOT
HETATM    1  C   UNL     1       4.516  32.577  58.173  1.00  0.00     0.243 C 
HETATM    2  N   UNL     1       3.358  31.847  57.591  1.00  0.00    -0.235 NA
HETATM    3  C   UNL     1       3.643  30.662  57.181  1.00  0.00     0.173 C 
HETATM    4  C   UNL     1       4.966  30.090  57.165  1.00  0.00     0.057 A 
HETATM    5  C   UNL     1       6.010  30.977  57.280  1.00  0.00     0.087 A 
HETATM    6  S   UNL     1       7.529  30.231  57.211  1.00  0.00    -0.074 SA
HETATM    7  C   UNL     1       6.811  28.689  57.132  1.00  0.00     0.018 A 
HETATM    8  C   UNL     1       5.425  28.743  57.100  1.00  0.00    -0.024 A 
HETATM    9  C   UNL     1       4.592  27.499  57.050  1.00  0.00     0.068 C 
HETATM   10  C   UNL     1       5.417  26.260  57.441  1.00  0.00     0.240 C 
HETATM   11  N   UNL     1       6.782  26.232  56.749  1.00  0.00    -0.063 N 
HETATM   12  H   UNL     1       7.268  25.405  57.108  1.00  0.00     0.280 HD
HETATM   13  C   UNL     1       7.619  27.437  57.158  1.00  0.00     0.282 C 
HETATM   14  N   UNL     1       5.782  32.293  57.479  1.00  0.00    -0.357 N 
HETATM   15  H   UNL     1       6.555  32.892  57.742  1.00  0.00     0.162 HD
ENDROOT
BRANCH   1  16
HETATM   16  C   UNL     1       4.676  32.287  59.681  1.00  0.00    -0.014 A 
HETATM   17  C   UNL     1       5.934  32.381  60.313  1.00  0.00     0.014 A 
HETATM   18  C   UNL     1       6.049  32.315  61.703  1.00  0.00     0.038 A 
HETATM   19  C   UNL     1       4.902  32.150  62.468  1.00  0.00     0.079 A 
HETATM   20  C   UNL     1       3.666  31.925  61.870  1.00  0.00     0.038 A 
HETATM   21  C   UNL     1       3.557  31.984  60.481  1.00  0.00     0.014 A 
BRANCH  19  22
HETATM   22  O   UNL     1       4.956  32.188  63.859  1.00  0.00    -0.276 OA
BRANCH  22  23
HETATM   23  C   UNL     1       4.875  33.478  64.351  1.00  0.00     0.288 C 
HETATM   24  O   UNL     1       4.251  34.424  63.884  1.00  0.00    -0.260 OA
BRANCH  23  25
HETATM   25  C   UNL     1       5.644  33.621  65.607  1.00  0.00     0.083 C 
HETATM   26  C   UNL     1       5.105  33.963  66.787  1.00  0.00     0.017 C 
BRANCH  26  27
HETATM   27  C   UNL     1       5.916  34.226  67.981  1.00  0.00    -0.036 A 
HETATM   28  C   UNL     1       5.334  34.049  69.240  1.00  0.00     0.014 A 
HETATM   29  C   UNL     1       6.071  34.294  70.401  1.00  0.00     0.037 A 
HETATM   30  C   UNL     1       7.403  34.704  70.324  1.00  0.00     0.068 A 
HETATM   31  C   UNL     1       7.995  34.867  69.073  1.00  0.00     0.037 A 
HETATM   32  C   UNL     1       7.256  34.625  67.906  1.00  0.00     0.014 A 
BRANCH  30  33
HETATM   33  O   UNL     1       8.004  34.912  71.534  1.00  0.00    -0.356 OA
HETATM   34  C   UNL     1       8.107  33.791  72.403  1.00  0.00     0.210 C 
ENDBRANCH  30  33
ENDBRANCH  26  27
ENDBRANCH  23  25
ENDBRANCH  22  23
ENDBRANCH  19  22
ENDBRANCH   1  16
BRANCH   3  35
HETATM   35  O   UNL     1       2.648  29.883  56.719  1.00  0.00    -0.344 OA
HETATM   36  H   UNL     1       1.866  30.083  57.262  1.00  0.00     0.219 HD
ENDBRANCH   3  35
BRANCH  11  37
HETATM   37  C   UNL     1       6.732  26.067  55.247  1.00  0.00     0.273 C 
BRANCH  37  38
HETATM   38  C   UNL     1       7.151  24.700  54.782  1.00  0.00    -0.033 A 
HETATM   39  C   UNL     1       7.243  23.640  55.697  1.00  0.00     0.009 A 
HETATM   40  C   UNL     1       7.668  22.379  55.279  1.00  0.00     0.001 A 
HETATM   41  C   UNL     1       8.003  22.163  53.944  1.00  0.00     0.000 A 
HETATM   42  C   UNL     1       7.906  23.203  53.023  1.00  0.00     0.001 A 
HETATM   43  C   UNL     1       7.480  24.467  53.437  1.00  0.00     0.009 A 
ENDBRANCH  37  38
ENDBRANCH  11  37
TORSDOF 9
ENDMDL
MODEL 6
REMARK VINA RESULT:      -9.9      4.908      9.842
REMARK  9 active torsions:
REMARK  status: ('A' for Active; 'I' for Inactive)
REMARK    1  A    between atoms: O_2  and  C_3 
REMARK    2  A    between atoms: C_6  and  C_7 
REMARK    3  A    between atoms: C_8  and  C_9 
REMARK    4  A    between atoms: C_9  and  O_10 
REMARK    5  A    between atoms: O_10  and  C_11 
REMARK    6  A    between atoms: C_14  and  C_15 
REMARK    7  A    between atoms: C_17  and  O_18 
REMARK    8  A    between atoms: N_26  and  C_28 
REMARK    9  A    between atoms: C_28  and  C_29 
ROOT
HETATM    1  C   UNL     1       5.112  30.928  57.869  1.00  0.00     0.243 C 
HETATM    2  N   UNL     1       6.598  30.981  57.841  1.00  0.00    -0.235 NA
HETATM    3  C   UNL     1       7.143  29.977  57.253  1.00  0.00     0.173 C 
HETATM    4  C   UNL     1       6.430  28.830  56.747  1.00  0.00     0.057 A 
HETATM    5  C   UNL     1       5.151  28.655  57.219  1.00  0.00     0.087 A 
HETATM    6  S   UNL     1       4.399  27.265  56.611  1.00  0.00    -0.074 SA
HETATM    7  C   UNL     1       5.741  26.929  55.616  1.00  0.00     0.018 A 
HETATM    8  C   UNL     1       6.778  27.834  55.789  1.00  0.00    -0.024 A 
HETATM    9  C   UNL     1       8.046  27.734  54.998  1.00  0.00     0.068 C 
HETATM   10  C   UNL     1       7.869  26.821  53.773  1.00  0.00     0.240 C 
HETATM   11  N   UNL     1       7.142  25.520  54.122  1.00  0.00    -0.063 N 
HETATM   12  H   UNL     1       7.031  25.009  53.241  1.00  0.00     0.280 HD
HETATM   13  C   UNL     1       5.737  25.807  54.636  1.00  0.00     0.282 C 
HETATM   14  N   UNL     1       4.589  29.564  58.044  1.00  0.00    -0.357 N 
HETATM   15  H   UNL     1       3.594  29.511  58.229  1.00  0.00     0.162 HD
ENDROOT
BRANCH   1  16
HETATM   16  C   UNL     1       4.493  31.562  56.604  1.00  0.00    -0.014 A 
HETATM   17  C   UNL     1       5.103  32.662  55.964  1.00  0.00     0.014 A 
HETATM   18  C   UNL     1       4.660  33.108  54.719  1.00  0.00     0.038 A 
HETATM   19  C   UNL     1       3.596  32.455  54.107  1.00  0.00     0.079 A 
HETATM   20  C   UNL     1       2.892  31.454  54.768  1.00  0.00     0.038 A 
HETATM   21  C   UNL     1       3.335  31.016  56.016  1.00  0.00     0.014 A 
BRANCH  19  22
HETATM   22  O   UNL     1       3.191  32.795  52.819  1.00  0.00    -0.276 OA
BRANCH  22  23
HETATM   23  C   UNL     1       4.202  32.622  51.889  1.00  0.00     0.288 C 
HETATM   24  O   UNL     1       5.121  33.389  51.625  1.00  0.00    -0.260 OA
BRANCH  23  25
HETATM   25  C   UNL     1       4.084  31.313  51.210  1.00  0.00     0.083 C 
HETATM   26  C   UNL     1       5.102  30.685  50.602  1.00  0.00     0.017 C 
BRANCH  26  27
HETATM   27  C   UNL     1       4.920  29.454  49.824  1.00  0.00    -0.036 A 
HETATM   28  C   UNL     1       4.823  29.549  48.432  1.00  0.00     0.014 A 
HETATM   29  C   UNL     1       4.644  28.401  47.656  1.00  0.00     0.037 A 
HETATM   30  C   UNL     1       4.576  27.141  48.254  1.00  0.00     0.068 A 
HETATM   31  C   UNL     1       4.688  27.039  49.640  1.00  0.00     0.037 A 
HETATM   32  C   UNL     1       4.864  28.190  50.421  1.00  0.00     0.014 A 
BRANCH  30  33
HETATM   33  O   UNL     1       4.396  26.107  47.380  1.00  0.00    -0.356 OA
HETATM   34  C   UNL     1       3.233  25.308  47.557  1.00  0.00     0.210 C 
ENDBRANCH  30  33
ENDBRANCH  26  27
ENDBRANCH  23  25
ENDBRANCH  22  23
ENDBRANCH  19  22
ENDBRANCH   1  16
BRANCH   3  35
HETATM   35  O   UNL     1       8.479  29.970  57.093  1.00  0.00    -0.344 OA
HETATM   36  H   UNL     1       8.651  30.271  56.184  1.00  0.00     0.219 HD
ENDBRANCH   3  35
BRANCH  11  37
HETATM   37  C   UNL     1       7.900  24.595  55.048  1.00  0.00     0.273 C 
BRANCH  37  38
HETATM   38  C   UNL     1       7.873  23.156  54.609  1.00  0.00    -0.033 A 
HETATM   39  C   UNL     1       7.793  22.129  55.562  1.00  0.00     0.009 A 
HETATM   40  C   UNL     1       7.806  20.792  55.163  1.00  0.00     0.001 A 
HETATM   41  C   UNL     1       7.896  20.468  53.811  1.00  0.00     0.000 A 
HETATM   42  C   UNL     1       7.965  21.479  52.855  1.00  0.00     0.001 A 
HETATM   43  C   UNL     1       7.951  22.818  53.249  1.00  0.00     0.009 A 
ENDBRANCH  37  38
ENDBRANCH  11  37
TORSDOF 9
ENDMDL
MODEL 7
REMARK VINA RESULT:      -9.8      4.329      6.503
REMARK  9 active torsions:
REMARK  status: ('A' for Active; 'I' for Inactive)
REMARK    1  A    between atoms: O_2  and  C_3 
REMARK    2  A    between atoms: C_6  and  C_7 
REMARK    3  A    between atoms: C_8  and  C_9 
REMARK    4  A    between atoms: C_9  and  O_10 
REMARK    5  A    between atoms: O_10  and  C_11 
REMARK    6  A    between atoms: C_14  and  C_15 
REMARK    7  A    between atoms: C_17  and  O_18 
REMARK    8  A    between atoms: N_26  and  C_28 
REMARK    9  A    between atoms: C_28  and  C_29 
ROOT
HETATM    1  C   UNL     1       5.100  27.336  56.702  1.00  0.00     0.243 C 
HETATM    2  N   UNL     1       5.392  26.357  55.621  1.00  0.00    -0.235 NA
HETATM    3  C   UNL     1       5.237  26.828  54.436  1.00  0.00     0.173 C 
HETATM    4  C   UNL     1       4.729  28.143  54.130  1.00  0.00     0.057 A 
HETATM    5  C   UNL     1       4.065  28.787  55.147  1.00  0.00     0.087 A 
HETATM    6  S   UNL     1       3.463  30.304  54.696  1.00  0.00    -0.074 SA
HETATM    7  C   UNL     1       4.177  30.170  53.155  1.00  0.00     0.018 A 
HETATM    8  C   UNL     1       4.818  28.956  52.963  1.00  0.00    -0.024 A 
HETATM    9  C   UNL     1       5.530  28.638  51.684  1.00  0.00     0.068 C 
HETATM   10  C   UNL     1       5.786  29.909  50.857  1.00  0.00     0.240 C 
HETATM   11  N   UNL     1       4.549  30.807  50.781  1.00  0.00    -0.063 N 
HETATM   12  H   UNL     1       4.833  31.641  50.257  1.00  0.00     0.280 HD
HETATM   13  C   UNL     1       4.143  31.286  52.168  1.00  0.00     0.282 C 
HETATM   14  N   UNL     1       3.980  28.234  56.376  1.00  0.00    -0.357 N 
HETATM   15  H   UNL     1       3.652  28.801  57.150  1.00  0.00     0.162 HD
ENDROOT
BRANCH   1  16
HETATM   16  C   UNL     1       6.345  28.173  57.067  1.00  0.00    -0.014 A 
HETATM   17  C   UNL     1       6.221  29.437  57.683  1.00  0.00     0.014 A 
HETATM   18  C   UNL     1       7.337  30.103  58.192  1.00  0.00     0.038 A 
HETATM   19  C   UNL     1       8.587  29.507  58.082  1.00  0.00     0.079 A 
HETATM   20  C   UNL     1       8.760  28.326  57.367  1.00  0.00     0.038 A 
HETATM   21  C   UNL     1       7.643  27.667  56.854  1.00  0.00     0.014 A 
BRANCH  19  22
HETATM   22  O   UNL     1       9.711  30.083  58.670  1.00  0.00    -0.276 OA
BRANCH  22  23
HETATM   23  C   UNL     1       9.603  31.459  58.766  1.00  0.00     0.288 C 
HETATM   24  O   UNL     1      10.222  32.308  58.134  1.00  0.00    -0.260 OA
BRANCH  23  25
HETATM   25  C   UNL     1       8.573  31.847  59.755  1.00  0.00     0.083 C 
HETATM   26  C   UNL     1       8.806  31.998  61.068  1.00  0.00     0.017 C 
BRANCH  26  27
HETATM   27  C   UNL     1       7.735  32.252  62.037  1.00  0.00    -0.036 A 
HETATM   28  C   UNL     1       8.076  32.753  63.298  1.00  0.00     0.014 A 
HETATM   29  C   UNL     1       7.086  33.002  64.251  1.00  0.00     0.037 A 
HETATM   30  C   UNL     1       5.741  32.771  63.957  1.00  0.00     0.068 A 
HETATM   31  C   UNL     1       5.393  32.287  62.697  1.00  0.00     0.037 A 
HETATM   32  C   UNL     1       6.385  32.033  61.740  1.00  0.00     0.014 A 
BRANCH  30  33
HETATM   33  O   UNL     1       4.879  33.054  64.979  1.00  0.00    -0.356 OA
HETATM   34  C   UNL     1       5.340  33.953  65.981  1.00  0.00     0.210 C 
ENDBRANCH  30  33
ENDBRANCH  26  27
ENDBRANCH  23  25
ENDBRANCH  22  23
ENDBRANCH  19  22
ENDBRANCH   1  16
BRANCH   3  35
HETATM   35  O   UNL     1       5.561  26.053  53.385  1.00  0.00    -0.344 OA
HETATM   36  H   UNL     1       6.086  26.608  52.783  1.00  0.00     0.219 HD
ENDBRANCH   3  35
BRANCH  11  37
HETATM   37  C   UNL     1       3.379  30.219  50.025  1.00  0.00     0.273 C 
BRANCH  37  38
HETATM   38  C   UNL     1       3.392  30.542  48.556  1.00  0.00    -0.033 A 
HETATM   39  C   UNL     1       2.339  30.118  47.730  1.00  0.00     0.009 A 
HETATM   40  C   UNL     1       2.365  30.382  46.360  1.00  0.00     0.001 A 
HETATM   41  C   UNL     1       3.439  31.072  45.803  1.00  0.00     0.000 A 
HETATM   42  C   UNL     1       4.485  31.507  46.613  1.00  0.00     0.001 A 
HETATM   43  C   UNL     1       4.463  31.247  47.985  1.00  0.00     0.009 A 
ENDBRANCH  37  38
ENDBRANCH  11  37
TORSDOF 9
ENDMDL
MODEL 8
REMARK VINA RESULT:      -9.7      2.924      3.222
REMARK  9 active torsions:
REMARK  status: ('A' for Active; 'I' for Inactive)
REMARK    1  A    between atoms: O_2  and  C_3 
REMARK    2  A    between atoms: C_6  and  C_7 
REMARK    3  A    between atoms: C_8  and  C_9 
REMARK    4  A    between atoms: C_9  and  O_10 
REMARK    5  A    between atoms: O_10  and  C_11 
REMARK    6  A    between atoms: C_14  and  C_15 
REMARK    7  A    between atoms: C_17  and  O_18 
REMARK    8  A    between atoms: N_26  and  C_28 
REMARK    9  A    between atoms: C_28  and  C_29 
ROOT
HETATM    1  C   UNL     1       5.203  31.572  56.798  1.00  0.00     0.243 C 
HETATM    2  N   UNL     1       3.955  30.784  56.615  1.00  0.00    -0.235 NA
HETATM    3  C   UNL     1       4.155  29.528  56.430  1.00  0.00     0.173 C 
HETATM    4  C   UNL     1       5.451  28.909  56.298  1.00  0.00     0.057 A 
HETATM    5  C   UNL     1       6.499  29.753  56.021  1.00  0.00     0.087 A 
HETATM    6  S   UNL     1       7.976  28.945  55.839  1.00  0.00    -0.074 SA
HETATM    7  C   UNL     1       7.253  27.455  56.237  1.00  0.00     0.018 A 
HETATM    8  C   UNL     1       5.887  27.560  56.449  1.00  0.00    -0.024 A 
HETATM    9  C   UNL     1       5.057  26.373  56.829  1.00  0.00     0.068 C 
HETATM   10  C   UNL     1       5.938  25.213  57.325  1.00  0.00     0.240 C 
HETATM   11  N   UNL     1       7.148  24.978  56.417  1.00  0.00    -0.063 N 
HETATM   12  H   UNL     1       7.692  24.227  56.854  1.00  0.00     0.280 HD
HETATM   13  C   UNL     1       8.050  26.205  56.389  1.00  0.00     0.282 C 
HETATM   14  N   UNL     1       6.314  31.090  55.962  1.00  0.00    -0.357 N 
HETATM   15  H   UNL     1       7.125  31.698  55.940  1.00  0.00     0.162 HD
ENDROOT
BRANCH   1  16
HETATM   16  C   UNL     1       5.645  31.608  58.277  1.00  0.00    -0.014 A 
HETATM   17  C   UNL     1       6.976  31.324  58.648  1.00  0.00     0.014 A 
HETATM   18  C   UNL     1       7.424  31.549  59.951  1.00  0.00     0.038 A 
HETATM   19  C   UNL     1       6.537  32.056  60.892  1.00  0.00     0.079 A 
HETATM   20  C   UNL     1       5.189  32.224  60.591  1.00  0.00     0.038 A 
HETATM   21  C   UNL     1       4.744  31.992  59.290  1.00  0.00     0.014 A 
BRANCH  19  22
HETATM   22  O   UNL     1       6.967  32.397  62.172  1.00  0.00    -0.276 OA
BRANCH  22  23
HETATM   23  C   UNL     1       5.939  32.893  62.955  1.00  0.00     0.288 C 
HETATM   24  O   UNL     1       4.989  32.279  63.426  1.00  0.00    -0.260 OA
BRANCH  23  25
HETATM   25  C   UNL     1       6.118  34.338  63.219  1.00  0.00     0.083 C 
HETATM   26  C   UNL     1       5.430  35.309  62.601  1.00  0.00     0.017 C 
BRANCH  26  27
HETATM   27  C   UNL     1       5.726  36.733  62.790  1.00  0.00    -0.036 A 
HETATM   28  C   UNL     1       5.486  37.308  64.042  1.00  0.00     0.014 A 
HETATM   29  C   UNL     1       5.750  38.662  64.261  1.00  0.00     0.037 A 
HETATM   30  C   UNL     1       6.272  39.459  63.241  1.00  0.00     0.068 A 
HETATM   31  C   UNL     1       6.529  38.889  61.995  1.00  0.00     0.037 A 
HETATM   32  C   UNL     1       6.261  37.531  61.772  1.00  0.00     0.014 A 
BRANCH  30  33
HETATM   33  O   UNL     1       6.479  40.764  63.589  1.00  0.00    -0.356 OA
HETATM   34  C   UNL     1       7.423  41.496  62.818  1.00  0.00     0.210 C 
ENDBRANCH  30  33
ENDBRANCH  26  27
ENDBRANCH  23  25
ENDBRANCH  22  23
ENDBRANCH  19  22
ENDBRANCH   1  16
BRANCH   3  35
HETATM   35  O   UNL     1       3.089  28.711  56.343  1.00  0.00    -0.344 OA
HETATM   36  H   UNL     1       3.051  28.404  55.421  1.00  0.00     0.219 HD
ENDBRANCH   3  35
BRANCH  11  37
HETATM   37  C   UNL     1       6.815  24.494  55.024  1.00  0.00     0.273 C 
BRANCH  37  38
HETATM   38  C   UNL     1       7.334  23.113  54.731  1.00  0.00    -0.033 A 
HETATM   39  C   UNL     1       7.604  22.725  53.409  1.00  0.00     0.009 A 
HETATM   40  C   UNL     1       8.049  21.433  53.128  1.00  0.00     0.001 A 
HETATM   41  C   UNL     1       8.231  20.517  54.161  1.00  0.00     0.000 A 
HETATM   42  C   UNL     1       7.977  20.893  55.479  1.00  0.00     0.001 A 
HETATM   43  C   UNL     1       7.533  22.185  55.765  1.00  0.00     0.009 A 
ENDBRANCH  37  38
ENDBRANCH  11  37
TORSDOF 9
ENDMDL
MODEL 9
REMARK VINA RESULT:      -9.3      5.553      9.033
REMARK  9 active torsions:
REMARK  status: ('A' for Active; 'I' for Inactive)
REMARK    1  A    between atoms: O_2  and  C_3 
REMARK    2  A    between atoms: C_6  and  C_7 
REMARK    3  A    between atoms: C_8  and  C_9 
REMARK    4  A    between atoms: C_9  and  O_10 
REMARK    5  A    between atoms: O_10  and  C_11 
REMARK    6  A    between atoms: C_14  and  C_15 
REMARK    7  A    between atoms: C_17  and  O_18 
REMARK    8  A    between atoms: N_26  and  C_28 
REMARK    9  A    between atoms: C_28  and  C_29 
ROOT
HETATM    1  C   UNL     1       5.487  30.773  57.772  1.00  0.00     0.243 C 
HETATM    2  N   UNL     1       6.907  30.931  57.359  1.00  0.00    -0.235 NA
HETATM    3  C   UNL     1       7.373  29.928  56.703  1.00  0.00     0.173 C 
HETATM    4  C   UNL     1       6.659  28.699  56.459  1.00  0.00     0.057 A 
HETATM    5  C   UNL     1       5.561  28.468  57.253  1.00  0.00     0.087 A 
HETATM    6  S   UNL     1       4.806  26.987  56.932  1.00  0.00    -0.074 SA
HETATM    7  C   UNL     1       5.877  26.676  55.644  1.00  0.00     0.018 A 
HETATM    8  C   UNL     1       6.840  27.663  55.496  1.00  0.00    -0.024 A 
HETATM    9  C   UNL     1       7.870  27.598  54.411  1.00  0.00     0.068 C 
HETATM   10  C   UNL     1       7.471  26.588  53.323  1.00  0.00     0.240 C 
HETATM   11  N   UNL     1       6.974  25.267  53.914  1.00  0.00    -0.063 N 
HETATM   12  H   UNL     1       6.689  24.686  53.120  1.00  0.00     0.280 HD
HETATM   13  C   UNL     1       5.724  25.488  54.758  1.00  0.00     0.282 C 
HETATM   14  N   UNL     1       5.148  29.392  58.147  1.00  0.00    -0.357 N 
HETATM   15  H   UNL     1       4.240  29.280  58.585  1.00  0.00     0.162 HD
ENDROOT
BRANCH   1  16
HETATM   16  C   UNL     1       4.515  31.267  56.678  1.00  0.00    -0.014 A 
HETATM   17  C   UNL     1       3.257  30.655  56.489  1.00  0.00     0.014 A 
HETATM   18  C   UNL     1       2.302  31.220  55.643  1.00  0.00     0.038 A 
HETATM   19  C   UNL     1       2.604  32.401  54.976  1.00  0.00     0.079 A 
HETATM   20  C   UNL     1       3.877  32.957  55.040  1.00  0.00     0.038 A 
HETATM   21  C   UNL     1       4.831  32.385  55.882  1.00  0.00     0.014 A 
BRANCH  19  22
HETATM   22  O   UNL     1       1.644  33.056  54.208  1.00  0.00    -0.276 OA
BRANCH  22  23
HETATM   23  C   UNL     1       0.661  33.641  54.986  1.00  0.00     0.288 C 
HETATM   24  O   UNL     1       0.803  34.277  56.024  1.00  0.00    -0.260 OA
BRANCH  23  25
HETATM   25  C   UNL     1      -0.680  33.443  54.393  1.00  0.00     0.083 C 
HETATM   26  C   UNL     1      -1.797  33.237  55.105  1.00  0.00     0.017 C 
BRANCH  26  27
HETATM   27  C   UNL     1      -3.084  32.911  54.482  1.00  0.00    -0.036 A 
HETATM   28  C   UNL     1      -4.240  33.532  54.965  1.00  0.00     0.014 A 
HETATM   29  C   UNL     1      -5.486  33.243  54.402  1.00  0.00     0.037 A 
HETATM   30  C   UNL     1      -5.596  32.344  53.340  1.00  0.00     0.068 A 
HETATM   31  C   UNL     1      -4.445  31.734  52.843  1.00  0.00     0.037 A 
HETATM   32  C   UNL     1      -3.195  32.019  53.409  1.00  0.00     0.014 A 
BRANCH  30  33
HETATM   33  O   UNL     1      -6.871  32.152  52.888  1.00  0.00    -0.356 OA
HETATM   34  C   UNL     1      -7.457  33.211  52.141  1.00  0.00     0.210 C 
ENDBRANCH  30  33
ENDBRANCH  26  27
ENDBRANCH  23  25
ENDBRANCH  22  23
ENDBRANCH  19  22
ENDBRANCH   1  16
BRANCH   3  35
HETATM   35  O   UNL     1       8.620  30.006  56.205  1.00  0.00    -0.344 OA
HETATM   36  H   UNL     1       9.202  29.565  56.848  1.00  0.00     0.219 HD
ENDBRANCH   3  35
BRANCH  11  37
HETATM   37  C   UNL     1       8.020  24.468  54.660  1.00  0.00     0.273 C 
BRANCH  37  38
HETATM   38  C   UNL     1       7.994  23.000  54.336  1.00  0.00    -0.033 A 
HETATM   39  C   UNL     1       8.012  22.571  52.999  1.00  0.00     0.009 A 
HETATM   40  C   UNL     1       7.950  21.212  52.692  1.00  0.00     0.001 A 
HETATM   41  C   UNL     1       7.871  20.268  53.713  1.00  0.00     0.000 A 
HETATM   42  C   UNL     1       7.863  20.680  55.044  1.00  0.00     0.001 A 
HETATM   43  C   UNL     1       7.927  22.039  55.357  1.00  0.00     0.009 A 
ENDBRANCH  37  38
ENDBRANCH  11  37
TORSDOF 9
ENDMDL
MODEL 10
REMARK VINA RESULT:      -9.3      4.929      9.480
REMARK  9 active torsions:
REMARK  status: ('A' for Active; 'I' for Inactive)
REMARK    1  A    between atoms: O_2  and  C_3 
REMARK    2  A    between atoms: C_6  and  C_7 
REMARK    3  A    between atoms: C_8  and  C_9 
REMARK    4  A    between atoms: C_9  and  O_10 
REMARK    5  A    between atoms: O_10  and  C_11 
REMARK    6  A    between atoms: C_14  and  C_15 
REMARK    7  A    between atoms: C_17  and  O_18 
REMARK    8  A    between atoms: N_26  and  C_28 
REMARK    9  A    between atoms: C_28  and  C_29 
ROOT
HETATM    1  C   UNL     1       5.191  30.940  57.887  1.00  0.00     0.243 C 
HETATM    2  N   UNL     1       6.663  31.048  57.704  1.00  0.00    -0.235 NA
HETATM    3  C   UNL     1       7.185  30.051  57.083  1.00  0.00     0.173 C 
HETATM    4  C   UNL     1       6.470  28.866  56.677  1.00  0.00     0.057 A 
HETATM    5  C   UNL     1       5.254  28.655  57.282  1.00  0.00     0.087 A 
HETATM    6  S   UNL     1       4.499  27.224  56.782  1.00  0.00    -0.074 SA
HETATM    7  C   UNL     1       5.744  26.914  55.661  1.00  0.00     0.018 A 
HETATM    8  C   UNL     1       6.756  27.861  55.707  1.00  0.00    -0.024 A 
HETATM    9  C   UNL     1       7.940  27.790  54.791  1.00  0.00     0.068 C 
HETATM   10  C   UNL     1       7.674  26.842  53.610  1.00  0.00     0.240 C 
HETATM   11  N   UNL     1       7.039  25.524  54.058  1.00  0.00    -0.063 N 
HETATM   12  H   UNL     1       6.858  24.988  53.204  1.00  0.00     0.280 HD
HETATM   13  C   UNL     1       5.684  25.770  54.709  1.00  0.00     0.282 C 
HETATM   14  N   UNL     1       4.743  29.562  58.142  1.00  0.00    -0.357 N 
HETATM   15  H   UNL     1       3.775  29.476  58.431  1.00  0.00     0.162 HD
ENDROOT
BRANCH   1  16
HETATM   16  C   UNL     1       4.421  31.520  56.680  1.00  0.00    -0.014 A 
HETATM   17  C   UNL     1       5.033  32.429  55.792  1.00  0.00     0.014 A 
HETATM   18  C   UNL     1       4.412  32.799  54.598  1.00  0.00     0.038 A 
HETATM   19  C   UNL     1       3.168  32.261  54.290  1.00  0.00     0.079 A 
HETATM   20  C   UNL     1       2.483  31.466  55.203  1.00  0.00     0.038 A 
HETATM   21  C   UNL     1       3.105  31.105  56.398  1.00  0.00     0.014 A 
BRANCH  19  22
HETATM   22  O   UNL     1       2.561  32.517  53.062  1.00  0.00    -0.276 OA
BRANCH  22  23
HETATM   23  C   UNL     1       3.098  31.750  52.043  1.00  0.00     0.288 C 
HETATM   24  O   UNL     1       2.964  30.546  51.857  1.00  0.00    -0.260 OA
BRANCH  23  25
HETATM   25  C   UNL     1       3.885  32.582  51.106  1.00  0.00     0.083 C 
HETATM   26  C   UNL     1       5.172  32.362  50.801  1.00  0.00     0.017 C 
BRANCH  26  27
HETATM   27  C   UNL     1       5.958  33.283  49.973  1.00  0.00    -0.036 A 
HETATM   28  C   UNL     1       6.488  32.816  48.767  1.00  0.00     0.014 A 
HETATM   29  C   UNL     1       7.246  33.660  47.953  1.00  0.00     0.037 A 
HETATM   30  C   UNL     1       7.475  34.987  48.322  1.00  0.00     0.068 A 
HETATM   31  C   UNL     1       6.935  35.464  49.515  1.00  0.00     0.037 A 
HETATM   32  C   UNL     1       6.177  34.617  50.335  1.00  0.00     0.014 A 
BRANCH  30  33
HETATM   33  O   UNL     1       8.234  35.700  47.437  1.00  0.00    -0.356 OA
HETATM   34  C   UNL     1       7.578  36.196  46.277  1.00  0.00     0.210 C 
ENDBRANCH  30  33
ENDBRANCH  26  27
ENDBRANCH  23  25
ENDBRANCH  22  23
ENDBRANCH  19  22
ENDBRANCH   1  16
BRANCH   3  35
HETATM   35  O   UNL     1       8.497  30.090  56.786  1.00  0.00    -0.344 OA
HETATM   36  H   UNL     1       8.974  29.964  57.625  1.00  0.00     0.219 HD
ENDBRANCH   3  35
BRANCH  11  37
HETATM   37  C   UNL     1       7.924  24.650  54.919  1.00  0.00     0.273 C 
BRANCH  37  38
HETATM   38  C   UNL     1       7.919  23.204  54.505  1.00  0.00    -0.033 A 
HETATM   39  C   UNL     1       8.018  22.856  53.148  1.00  0.00     0.009 A 
HETATM   40  C   UNL     1       7.975  21.519  52.756  1.00  0.00     0.001 A 
HETATM   41  C   UNL     1       7.836  20.515  53.712  1.00  0.00     0.000 A 
HETATM   42  C   UNL     1       7.748  20.846  55.062  1.00  0.00     0.001 A 
HETATM   43  C   UNL     1       7.792  22.183  55.460  1.00  0.00     0.009 A 
ENDBRANCH  37  38
ENDBRANCH  11  37
TORSDOF 9
ENDMDL
