MODEL 1
REMARK VINA RESULT:      -9.6      0.000      0.000
REMARK  10 active torsions:
REMARK  status: ('A' for Active; 'I' for Inactive)
REMARK    1  A    between atoms: C_1  and  C_17 
REMARK    2  A    between atoms: C_4  and  C_5 
REMARK    3  A    between atoms: C_5  and  O_18 
REMARK    4  A    between atoms: C_6  and  C_11 
REMARK    5  A    between atoms: C_6  and  C_14 
REMARK    6  A    between atoms: C_6  and  N_15 
REMARK    7  A    between atoms: C_8  and  O_20 
REMARK    8  A    between atoms: C_11  and  O_34 
REMARK    9  A    between atoms: C_13  and  C_14 
REMARK       I    between atoms: N_15  and  C_16 
REMARK   10  A    between atoms: C_16  and  C_17 
ROOT
HETATM    1  C           1       7.182  27.161  56.449  0.00  0.00     0.056 C 
HETATM    2  C           1       5.959  26.897  55.502  0.00  0.00    -0.030 C 
HETATM    3  C           1       4.703  26.673  56.373  0.00  0.00     0.016 C 
HETATM    4  C           1       4.981  27.952  53.216  0.00  0.00     0.008 C 
HETATM    5  C           1       5.811  28.119  54.536  0.00  0.00     0.012 C 
HETATM    6  C           1       5.369  26.616  52.550  0.00  0.00     0.128 C 
HETATM    7  C           1       6.245  25.620  54.675  0.00  0.00     0.013 C 
HETATM    8  C           1       7.974  30.763  59.397  0.00  0.00     0.017 A 
HETATM    9  C           1       5.378  29.090  52.234  0.00  0.00     0.020 C 
HETATM   10  C           1       5.290  25.424  53.495  0.00  0.00     0.033 C 
HETATM   11  C           1       5.489  29.414  55.315  0.00  0.00     0.054 C 
HETATM   12  C           1       6.350  29.541  56.538  0.00  0.00     0.010 A 
HETATM   13  C           1       7.088  28.546  57.034  0.00  0.00     0.054 A 
HETATM   14  N           1       7.701  28.903  58.076  0.00  0.00    -0.244 NA
HETATM   15  C           1       7.437  30.116  58.337  0.00  0.00     0.110 A 
HETATM   16  C           1       8.847  30.143  60.222  0.00  0.00     0.130 A 
HETATM   17  N           1       9.401  30.649  61.241  0.00  0.00    -0.272 NA
HETATM   18  C           1       9.127  31.850  61.526  0.00  0.00     0.116 A 
HETATM   19  C           1       8.284  32.597  60.801  0.00  0.00     0.020 A 
HETATM   20  C           1       7.705  32.043  59.725  0.00  0.00     0.017 A 
HETATM   21  S           1       6.492  30.728  57.384  0.00  0.00    -0.072 SA
ENDROOT
BRANCH   1  22
HETATM   22  C           1       7.415  26.101  57.549  0.00  0.00     0.114 C 
BRANCH  22  23
HETATM   23  C           1       8.308  24.924  57.179  0.00  0.00     0.218 C 
HETATM   24  N           1       7.626  23.884  56.605  0.00  0.00    -0.354 N 
HETATM   25  H           1       6.612  23.967  56.536  0.00  0.00     0.162 HD
HETATM   26  O           1       9.500  24.916  57.360  0.00  0.00    -0.274 OA
BRANCH  24  27
HETATM   27  C           1       8.240  22.612  56.202  0.00  0.00     0.108 C 
BRANCH  27  28
HETATM   28  C           1       8.370  21.609  57.353  0.00  0.00     0.189 C 
BRANCH  28  29
HETATM   29  O           1       8.975  20.420  56.884  0.00  0.00    -0.399 OA
HETATM   30  H           1       9.580  20.631  56.169  0.00  0.00     0.209 HD
ENDBRANCH  28  29
ENDBRANCH  27  28
BRANCH  27  31
HETATM   31  C           1       7.547  22.000  54.971  0.00  0.00     0.031 C 
BRANCH  31  32
HETATM   32  C           1       8.366  21.931  53.664  0.00  0.00    -0.021 C 
HETATM   33  C           1       8.046  23.103  52.720  0.00  0.00     0.009 C 
HETATM   34  C           1       8.245  20.597  52.910  0.00  0.00     0.009 C 
ENDBRANCH  31  32
ENDBRANCH  27  31
ENDBRANCH  24  27
ENDBRANCH  22  23
ENDBRANCH   1  22
BRANCH   4  35
HETATM   35  C           1       3.455  28.041  53.423  0.00  0.00     0.176 C 
BRANCH  35  36
HETATM   36  O           1       2.785  28.416  52.233  0.00  0.00    -0.400 OA
HETATM   37  H           1       1.844  28.497  52.398  0.00  0.00     0.209 HD
ENDBRANCH  35  36
ENDBRANCH   4  35
BRANCH   6  38
HETATM   38  O           1       4.551  26.346  51.437  0.00  0.00    -0.395 OA
HETATM   39  H           1       5.072  25.962  50.731  0.00  0.00     0.210 HD
ENDBRANCH   6  38
TORSDOF 10
ENDMDL
MODEL 2
REMARK VINA RESULT:      -9.3      2.856      6.567
REMARK  10 active torsions:
REMARK  status: ('A' for Active; 'I' for Inactive)
REMARK    1  A    between atoms: C_1  and  C_17 
REMARK    2  A    between atoms: C_4  and  C_5 
REMARK    3  A    between atoms: C_5  and  O_18 
REMARK    4  A    between atoms: C_6  and  C_11 
REMARK    5  A    between atoms: C_6  and  C_14 
REMARK    6  A    between atoms: C_6  and  N_15 
REMARK    7  A    between atoms: C_8  and  O_20 
REMARK    8  A    between atoms: C_11  and  O_34 
REMARK    9  A    between atoms: C_13  and  C_14 
REMARK       I    between atoms: N_15  and  C_16 
REMARK   10  A    between atoms: C_16  and  C_17 
ROOT
HETATM    1  C           1       6.906  28.259  56.222  0.00  0.00     0.056 C 
HETATM    2  C           1       6.469  26.871  55.634  0.00  0.00    -0.030 C 
HETATM    3  C           1       5.247  26.363  56.433  0.00  0.00     0.016 C 
HETATM    4  C           1       6.130  25.793  53.181  0.00  0.00     0.008 C 
HETATM    5  C           1       6.158  27.055  54.112  0.00  0.00     0.012 C 
HETATM    6  C           1       7.346  24.904  53.514  0.00  0.00     0.128 C 
HETATM    7  C           1       7.642  25.875  55.803  0.00  0.00     0.013 C 
HETATM    8  C           1       4.587  32.372  56.248  0.00  0.00     0.017 A 
HETATM    9  C           1       6.290  26.261  51.707  0.00  0.00     0.020 C 
HETATM   10  C           1       7.475  24.585  54.997  0.00  0.00     0.033 C 
HETATM   11  C           1       4.967  28.015  53.895  0.00  0.00     0.054 C 
HETATM   12  C           1       5.077  29.226  54.777  0.00  0.00     0.010 A 
HETATM   13  C           1       5.929  29.325  55.800  0.00  0.00     0.054 A 
HETATM   14  N           1       5.808  30.431  56.392  0.00  0.00    -0.244 NA
HETATM   15  C           1       4.913  31.128  55.825  0.00  0.00     0.110 A 
HETATM   16  C           1       5.228  32.942  57.292  0.00  0.00     0.130 A 
HETATM   17  N           1       5.000  34.092  57.772  0.00  0.00    -0.272 NA
HETATM   18  C           1       4.093  34.787  57.232  0.00  0.00     0.116 A 
HETATM   19  C           1       3.373  34.360  56.185  0.00  0.00     0.020 A 
HETATM   20  C           1       3.628  33.139  55.691  0.00  0.00     0.017 A 
HETATM   21  S           1       4.272  30.446  54.687  0.00  0.00    -0.072 SA
ENDROOT
BRANCH   1  22
HETATM   22  C           1       7.150  28.292  57.747  0.00  0.00     0.114 C 
BRANCH  22  23
HETATM   23  C           1       8.289  29.179  58.233  0.00  0.00     0.218 C 
HETATM   24  N           1       8.005  29.838  59.398  0.00  0.00    -0.354 N 
HETATM   25  H           1       7.069  29.725  59.789  0.00  0.00     0.162 HD
HETATM   26  O           1       9.342  29.279  57.653  0.00  0.00    -0.274 OA
BRANCH  24  27
HETATM   27  C           1       8.909  30.793  60.053  0.00  0.00     0.108 C 
BRANCH  27  28
HETATM   28  C           1       8.997  32.141  59.329  0.00  0.00     0.189 C 
BRANCH  28  29
HETATM   29  O           1      10.161  32.177  58.527  0.00  0.00    -0.399 OA
HETATM   30  H           1      10.348  31.295  58.197  0.00  0.00     0.209 HD
ENDBRANCH  28  29
ENDBRANCH  27  28
BRANCH  27  31
HETATM   31  C           1       8.593  30.957  61.550  0.00  0.00     0.031 C 
BRANCH  31  32
HETATM   32  C           1       7.845  32.239  61.975  0.00  0.00    -0.021 C 
HETATM   33  C           1       8.067  32.571  63.462  0.00  0.00     0.009 C 
HETATM   34  C           1       6.341  32.231  61.654  0.00  0.00     0.009 C 
ENDBRANCH  31  32
ENDBRANCH  27  31
ENDBRANCH  24  27
ENDBRANCH  22  23
ENDBRANCH   1  22
BRANCH   4  35
HETATM   35  C           1       4.819  24.986  53.262  0.00  0.00     0.176 C 
BRANCH  35  36
HETATM   36  O           1       4.426  24.494  51.994  0.00  0.00    -0.400 OA
HETATM   37  H           1       4.162  25.221  51.428  0.00  0.00     0.209 HD
ENDBRANCH  35  36
ENDBRANCH   4  35
BRANCH   6  38
HETATM   38  O           1       7.294  23.687  52.808  0.00  0.00    -0.395 OA
HETATM   39  H           1       7.721  23.782  51.955  0.00  0.00     0.210 HD
ENDBRANCH   6  38
TORSDOF 10
ENDMDL
MODEL 3
REMARK VINA RESULT:      -9.1      3.167      7.314
REMARK  10 active torsions:
REMARK  status: ('A' for Active; 'I' for Inactive)
REMARK    1  A    between atoms: C_1  and  C_17 
REMARK    2  A    between atoms: C_4  and  C_5 
REMARK    3  A    between atoms: C_5  and  O_18 
REMARK    4  A    between atoms: C_6  and  C_11 
REMARK    5  A    between atoms: C_6  and  C_14 
REMARK    6  A    between atoms: C_6  and  N_15 
REMARK    7  A    between atoms: C_8  and  O_20 
REMARK    8  A    between atoms: C_11  and  O_34 
REMARK    9  A    between atoms: C_13  and  C_14 
REMARK       I    between atoms: N_15  and  C_16 
REMARK   10  A    between atoms: C_16  and  C_17 
ROOT
HETATM    1  C           1       6.470  24.350  53.448  0.00  0.00     0.056 C 
HETATM    2  C           1       7.623  23.312  53.689  0.00  0.00    -0.030 C 
HETATM    3  C           1       8.975  24.056  53.613  0.00  0.00     0.016 C 
HETATM    4  C           1       8.103  21.266  55.385  0.00  0.00     0.008 C 
HETATM    5  C           1       7.389  22.628  55.076  0.00  0.00     0.012 C 
HETATM    6  C           1       7.972  20.346  54.154  0.00  0.00     0.128 C 
HETATM    7  C           1       7.562  22.243  52.571  0.00  0.00     0.013 C 
HETATM    8  C           1       5.155  28.040  56.084  0.00  0.00     0.017 A 
HETATM    9  C           1       7.359  20.572  56.561  0.00  0.00     0.020 C 
HETATM   10  C           1       8.416  21.006  52.855  0.00  0.00     0.033 C 
HETATM   11  C           1       7.476  23.653  56.229  0.00  0.00     0.054 C 
HETATM   12  C           1       6.732  24.913  55.894  0.00  0.00     0.010 A 
HETATM   13  C           1       6.296  25.215  54.669  0.00  0.00     0.054 A 
HETATM   14  N           1       5.722  26.337  54.650  0.00  0.00    -0.244 NA
HETATM   15  C           1       5.721  26.841  55.814  0.00  0.00     0.110 A 
HETATM   16  C           1       4.534  28.751  55.117  0.00  0.00     0.130 A 
HETATM   17  N           1       3.980  29.880  55.258  0.00  0.00    -0.272 NA
HETATM   18  C           1       3.995  30.405  56.408  0.00  0.00     0.116 A 
HETATM   19  C           1       4.567  29.820  57.469  0.00  0.00     0.020 A 
HETATM   20  C           1       5.150  28.624  57.300  0.00  0.00     0.017 A 
HETATM   21  S           1       6.401  26.001  56.817  0.00  0.00    -0.072 SA
ENDROOT
BRANCH   1  22
HETATM   22  C           1       6.598  25.205  52.168  0.00  0.00     0.114 C 
BRANCH  22  23
HETATM   23  C           1       5.321  25.413  51.362  0.00  0.00     0.218 C 
HETATM   24  N           1       5.408  26.442  50.464  0.00  0.00    -0.354 N 
HETATM   25  H           1       6.267  26.992  50.458  0.00  0.00     0.162 HD
HETATM   26  O           1       4.337  24.728  51.494  0.00  0.00    -0.274 OA
BRANCH  24  27
HETATM   27  C           1       4.305  26.884  49.600  0.00  0.00     0.108 C 
BRANCH  27  28
HETATM   28  C           1       3.924  28.354  49.807  0.00  0.00     0.189 C 
BRANCH  28  29
HETATM   29  O           1       2.702  28.436  50.512  0.00  0.00    -0.399 OA
HETATM   30  H           1       2.864  28.782  51.392  0.00  0.00     0.209 HD
ENDBRANCH  28  29
ENDBRANCH  27  28
BRANCH  27  31
HETATM   31  C           1       4.561  26.552  48.119  0.00  0.00     0.031 C 
BRANCH  31  32
HETATM   32  C           1       3.471  25.745  47.380  0.00  0.00    -0.021 C 
HETATM   33  C           1       2.248  26.612  47.030  0.00  0.00     0.009 C 
HETATM   34  C           1       3.023  24.469  48.112  0.00  0.00     0.009 C 
ENDBRANCH  31  32
ENDBRANCH  27  31
ENDBRANCH  24  27
ENDBRANCH  22  23
ENDBRANCH   1  22
BRANCH   4  35
HETATM   35  C           1       9.579  21.416  55.806  0.00  0.00     0.176 C 
BRANCH  35  36
HETATM   36  O           1      10.103  20.208  56.326  0.00  0.00    -0.400 OA
HETATM   37  H           1      10.852  20.393  56.894  0.00  0.00     0.209 HD
ENDBRANCH  35  36
ENDBRANCH   4  35
BRANCH   6  38
HETATM   38  O           1       8.718  19.164  54.321  0.00  0.00    -0.395 OA
HETATM   39  H           1       9.630  19.376  54.526  0.00  0.00     0.210 HD
ENDBRANCH   6  38
TORSDOF 10
ENDMDL
MODEL 4
REMARK VINA RESULT:      -9.1      2.702      7.532
REMARK  10 active torsions:
REMARK  status: ('A' for Active; 'I' for Inactive)
REMARK    1  A    between atoms: C_1  and  C_17 
REMARK    2  A    between atoms: C_4  and  C_5 
REMARK    3  A    between atoms: C_5  and  O_18 
REMARK    4  A    between atoms: C_6  and  C_11 
REMARK    5  A    between atoms: C_6  and  C_14 
REMARK    6  A    between atoms: C_6  and  N_15 
REMARK    7  A    between atoms: C_8  and  O_20 
REMARK    8  A    between atoms: C_11  and  O_34 
REMARK    9  A    between atoms: C_13  and  C_14 
REMARK       I    between atoms: N_15  and  C_16 
REMARK   10  A    between atoms: C_16  and  C_17 
ROOT
HETATM    1  C           1       7.297  27.604  56.342  0.00  0.00     0.056 C 
HETATM    2  C           1       7.341  26.038  56.427  0.00  0.00    -0.030 C 
HETATM    3  C           1       6.071  25.551  57.160  0.00  0.00     0.016 C 
HETATM    4  C           1       7.952  23.997  54.768  0.00  0.00     0.008 C 
HETATM    5  C           1       7.452  25.469  54.974  0.00  0.00     0.012 C 
HETATM    6  C           1       9.175  23.756  55.677  0.00  0.00     0.128 C 
HETATM    7  C           1       8.593  25.625  57.238  0.00  0.00     0.013 C 
HETATM    8  C           1       4.280  30.402  54.024  0.00  0.00     0.017 A 
HETATM    9  C           1       8.432  23.837  53.298  0.00  0.00     0.020 C 
HETATM   10  C           1       8.933  24.138  57.131  0.00  0.00     0.033 C 
HETATM   11  C           1       6.205  25.825  54.134  0.00  0.00     0.054 C 
HETATM   12  C           1       5.806  27.259  54.335  0.00  0.00     0.010 A 
HETATM   13  C           1       6.286  28.034  55.310  0.00  0.00     0.054 A 
HETATM   14  N           1       5.777  29.187  55.273  0.00  0.00    -0.244 NA
HETATM   15  C           1       4.961  29.267  54.306  0.00  0.00     0.110 A 
HETATM   16  C           1       4.462  31.522  54.757  0.00  0.00     0.130 A 
HETATM   17  N           1       3.875  32.632  54.585  0.00  0.00    -0.272 NA
HETATM   18  C           1       3.041  32.717  53.640  0.00  0.00     0.116 A 
HETATM   19  C           1       2.757  31.693  52.823  0.00  0.00     0.020 A 
HETATM   20  C           1       3.388  30.526  53.020  0.00  0.00     0.017 A 
HETATM   21  S           1       4.830  28.011  53.544  0.00  0.00    -0.072 SA
ENDROOT
BRANCH   1  22
HETATM   22  C           1       7.077  28.340  57.683  0.00  0.00     0.114 C 
BRANCH  22  23
HETATM   23  C           1       8.245  29.171  58.199  0.00  0.00     0.218 C 
HETATM   24  N           1       7.972  29.822  59.372  0.00  0.00    -0.354 N 
HETATM   25  H           1       7.027  29.741  59.747  0.00  0.00     0.162 HD
HETATM   26  O           1       9.310  29.236  57.636  0.00  0.00    -0.274 OA
BRANCH  24  27
HETATM   27  C           1       8.906  30.727  60.055  0.00  0.00     0.108 C 
BRANCH  27  28
HETATM   28  C           1       9.096  32.063  59.330  0.00  0.00     0.189 C 
BRANCH  28  29
HETATM   29  O           1      10.299  32.037  58.587  0.00  0.00    -0.399 OA
HETATM   30  H           1      10.716  31.178  58.686  0.00  0.00     0.209 HD
ENDBRANCH  28  29
ENDBRANCH  27  28
BRANCH  27  31
HETATM   31  C           1       8.547  30.916  61.540  0.00  0.00     0.031 C 
BRANCH  31  32
HETATM   32  C           1       7.853  32.238  61.933  0.00  0.00    -0.021 C 
HETATM   33  C           1       8.071  32.586  63.416  0.00  0.00     0.009 C 
HETATM   34  C           1       6.355  32.293  61.592  0.00  0.00     0.009 C 
ENDBRANCH  31  32
ENDBRANCH  27  31
ENDBRANCH  24  27
ENDBRANCH  22  23
ENDBRANCH   1  22
BRANCH   4  35
HETATM   35  C           1       6.867  22.928  55.011  0.00  0.00     0.176 C 
BRANCH  35  36
HETATM   36  O           1       7.250  21.665  54.498  0.00  0.00    -0.400 OA
HETATM   37  H           1       6.638  20.990  54.798  0.00  0.00     0.209 HD
ENDBRANCH  35  36
ENDBRANCH   4  35
BRANCH   6  38
HETATM   38  O           1       9.579  22.407  55.640  0.00  0.00    -0.395 OA
HETATM   39  H           1       9.194  21.969  54.880  0.00  0.00     0.210 HD
ENDBRANCH   6  38
TORSDOF 10
ENDMDL
MODEL 5
REMARK VINA RESULT:      -8.7      3.012      8.066
REMARK  10 active torsions:
REMARK  status: ('A' for Active; 'I' for Inactive)
REMARK    1  A    between atoms: C_1  and  C_17 
REMARK    2  A    between atoms: C_4  and  C_5 
REMARK    3  A    between atoms: C_5  and  O_18 
REMARK    4  A    between atoms: C_6  and  C_11 
REMARK    5  A    between atoms: C_6  and  C_14 
REMARK    6  A    between atoms: C_6  and  N_15 
REMARK    7  A    between atoms: C_8  and  O_20 
REMARK    8  A    between atoms: C_11  and  O_34 
REMARK    9  A    between atoms: C_13  and  C_14 
REMARK       I    between atoms: N_15  and  C_16 
REMARK   10  A    between atoms: C_16  and  C_17 
ROOT
HETATM    1  C           1       7.160  26.486  54.836  0.00  0.00     0.056 C 
HETATM    2  C           1       7.158  24.983  55.289  0.00  0.00    -0.030 C 
HETATM    3  C           1       5.705  24.571  55.614  0.00  0.00     0.016 C 
HETATM    4  C           1       8.317  22.684  54.475  0.00  0.00     0.008 C 
HETATM    5  C           1       7.787  24.122  54.145  0.00  0.00     0.012 C 
HETATM    6  C           1       9.123  22.741  55.790  0.00  0.00     0.128 C 
HETATM    7  C           1       8.026  24.855  56.565  0.00  0.00     0.013 C 
HETATM    8  C           1       5.217  28.472  51.019  0.00  0.00     0.017 A 
HETATM    9  C           1       9.299  22.247  53.351  0.00  0.00     0.020 C 
HETATM   10  C           1       8.370  23.410  56.932  0.00  0.00     0.033 C 
HETATM   11  C           1       6.934  24.191  52.858  0.00  0.00     0.054 C 
HETATM   12  C           1       6.501  25.599  52.568  0.00  0.00     0.010 A 
HETATM   13  C           1       6.598  26.602  53.443  0.00  0.00     0.054 A 
HETATM   14  N           1       6.146  27.676  52.963  0.00  0.00    -0.244 NA
HETATM   15  C           1       5.739  27.481  51.778  0.00  0.00     0.110 A 
HETATM   16  C           1       5.127  29.735  51.489  0.00  0.00     0.130 A 
HETATM   17  N           1       4.651  30.732  50.869  0.00  0.00    -0.272 NA
HETATM   18  C           1       4.219  30.545  49.696  0.00  0.00     0.116 A 
HETATM   19  C           1       4.246  29.350  49.091  0.00  0.00     0.020 A 
HETATM   20  C           1       4.752  28.306  49.763  0.00  0.00     0.017 A 
HETATM   21  S           1       5.885  26.084  51.330  0.00  0.00    -0.072 SA
ENDROOT
BRANCH   1  22
HETATM   22  C           1       6.473  27.476  55.803  0.00  0.00     0.114 C 
BRANCH  22  23
HETATM   23  C           1       7.315  28.652  56.281  0.00  0.00     0.218 C 
HETATM   24  N           1       6.793  29.283  57.378  0.00  0.00    -0.354 N 
HETATM   25  H           1       5.891  28.957  57.725  0.00  0.00     0.162 HD
HETATM   26  O           1       8.347  28.984  55.752  0.00  0.00    -0.274 OA
BRANCH  24  27
HETATM   27  C           1       7.380  30.474  58.006  0.00  0.00     0.108 C 
BRANCH  27  28
HETATM   28  C           1       6.356  31.577  58.293  0.00  0.00     0.189 C 
BRANCH  28  29
HETATM   29  O           1       6.026  31.576  59.668  0.00  0.00    -0.399 OA
HETATM   30  H           1       5.907  32.481  59.967  0.00  0.00     0.209 HD
ENDBRANCH  28  29
ENDBRANCH  27  28
BRANCH  27  31
HETATM   31  C           1       8.217  30.120  59.249  0.00  0.00     0.031 C 
BRANCH  31  32
HETATM   32  C           1       9.577  30.833  59.409  0.00  0.00    -0.021 C 
HETATM   33  C           1       9.489  32.037  60.363  0.00  0.00     0.009 C 
HETATM   34  C           1      10.230  31.255  58.083  0.00  0.00     0.009 C 
ENDBRANCH  31  32
ENDBRANCH  27  31
ENDBRANCH  24  27
ENDBRANCH  22  23
ENDBRANCH   1  22
BRANCH   4  35
HETATM   35  C           1       7.210  21.613  54.555  0.00  0.00     0.176 C 
BRANCH  35  36
HETATM   36  O           1       7.652  20.363  54.057  0.00  0.00    -0.400 OA
HETATM   37  H           1       8.587  20.404  53.851  0.00  0.00     0.209 HD
ENDBRANCH  35  36
ENDBRANCH   4  35
BRANCH   6  38
HETATM   38  O           1       9.502  21.453  56.211  0.00  0.00    -0.395 OA
HETATM   39  H           1       9.729  21.464  57.142  0.00  0.00     0.210 HD
ENDBRANCH   6  38
TORSDOF 10
ENDMDL
MODEL 6
REMARK VINA RESULT:      -8.6      3.519      7.170
REMARK  10 active torsions:
REMARK  status: ('A' for Active; 'I' for Inactive)
REMARK    1  A    between atoms: C_1  and  C_17 
REMARK    2  A    between atoms: C_4  and  C_5 
REMARK    3  A    between atoms: C_5  and  O_18 
REMARK    4  A    between atoms: C_6  and  C_11 
REMARK    5  A    between atoms: C_6  and  C_14 
REMARK    6  A    between atoms: C_6  and  N_15 
REMARK    7  A    between atoms: C_8  and  O_20 
REMARK    8  A    between atoms: C_11  and  O_34 
REMARK    9  A    between atoms: C_13  and  C_14 
REMARK       I    between atoms: N_15  and  C_16 
REMARK   10  A    between atoms: C_16  and  C_17 
ROOT
HETATM    1  C           1       6.548  26.364  53.602  0.00  0.00     0.056 C 
HETATM    2  C           1       7.223  27.282  54.682  0.00  0.00    -0.030 C 
HETATM    3  C           1       8.354  28.086  54.004  0.00  0.00     0.016 C 
HETATM    4  C           1       6.396  28.891  56.686  0.00  0.00     0.008 C 
HETATM    5  C           1       6.121  28.200  55.306  0.00  0.00     0.012 C 
HETATM    6  C           1       7.026  27.857  57.643  0.00  0.00     0.128 C 
HETATM    7  C           1       7.826  26.379  55.786  0.00  0.00     0.013 C 
HETATM    8  C           1       4.072  27.564  49.766  0.00  0.00     0.017 A 
HETATM    9  C           1       5.036  29.323  57.304  0.00  0.00     0.020 C 
HETATM   10  C           1       8.231  27.141  57.050  0.00  0.00     0.033 C 
HETATM   11  C           1       5.514  29.147  54.246  0.00  0.00     0.054 C 
HETATM   12  C           1       5.227  28.417  52.966  0.00  0.00     0.010 A 
HETATM   13  C           1       5.688  27.195  52.687  0.00  0.00     0.054 A 
HETATM   14  N           1       5.322  26.817  51.542  0.00  0.00    -0.244 NA
HETATM   15  C           1       4.611  27.714  50.998  0.00  0.00     0.110 A 
HETATM   16  C           1       4.251  26.424  49.062  0.00  0.00     0.130 A 
HETATM   17  N           1       3.799  26.181  47.904  0.00  0.00    -0.272 NA
HETATM   18  C           1       3.109  27.078  47.340  0.00  0.00     0.116 A 
HETATM   19  C           1       2.840  28.259  47.913  0.00  0.00     0.020 A 
HETATM   20  C           1       3.328  28.499  49.140  0.00  0.00     0.017 A 
HETATM   21  S           1       4.448  28.919  51.832  0.00  0.00    -0.072 SA
ENDROOT
BRANCH   1  22
HETATM   22  C           1       7.510  25.459  52.800  0.00  0.00     0.114 C 
BRANCH  22  23
HETATM   23  C           1       7.339  23.957  52.983  0.00  0.00     0.218 C 
HETATM   24  N           1       8.410  23.358  53.591  0.00  0.00    -0.354 N 
HETATM   25  H           1       9.219  23.942  53.803  0.00  0.00     0.162 HD
HETATM   26  O           1       6.350  23.357  52.639  0.00  0.00    -0.274 OA
BRANCH  24  27
HETATM   27  C           1       8.522  21.915  53.840  0.00  0.00     0.108 C 
BRANCH  27  28
HETATM   28  C           1       8.919  21.112  52.596  0.00  0.00     0.189 C 
BRANCH  28  29
HETATM   29  O           1       8.165  19.918  52.538  0.00  0.00    -0.399 OA
HETATM   30  H           1       7.651  19.904  51.728  0.00  0.00     0.209 HD
ENDBRANCH  28  29
ENDBRANCH  27  28
BRANCH  27  31
HETATM   31  C           1       9.427  21.604  55.046  0.00  0.00     0.031 C 
BRANCH  31  32
HETATM   32  C           1       8.733  21.364  56.404  0.00  0.00    -0.021 C 
HETATM   33  C           1       7.535  20.406  56.278  0.00  0.00     0.009 C 
HETATM   34  C           1       8.308  22.648  57.134  0.00  0.00     0.009 C 
ENDBRANCH  31  32
ENDBRANCH  27  31
ENDBRANCH  24  27
ENDBRANCH  22  23
ENDBRANCH   1  22
BRANCH   4  35
HETATM   35  C           1       7.273  30.156  56.589  0.00  0.00     0.176 C 
BRANCH  35  36
HETATM   36  O           1       7.177  30.953  57.755  0.00  0.00    -0.400 OA
HETATM   37  H           1       6.390  31.500  57.715  0.00  0.00     0.209 HD
ENDBRANCH  35  36
ENDBRANCH   4  35
BRANCH   6  38
HETATM   38  O           1       7.426  28.460  58.851  0.00  0.00    -0.395 OA
HETATM   39  H           1       7.888  29.280  58.672  0.00  0.00     0.210 HD
ENDBRANCH   6  38
TORSDOF 10
ENDMDL
MODEL 7
REMARK VINA RESULT:      -8.5      4.010      7.272
REMARK  10 active torsions:
REMARK  status: ('A' for Active; 'I' for Inactive)
REMARK    1  A    between atoms: C_1  and  C_17 
REMARK    2  A    between atoms: C_4  and  C_5 
REMARK    3  A    between atoms: C_5  and  O_18 
REMARK    4  A    between atoms: C_6  and  C_11 
REMARK    5  A    between atoms: C_6  and  C_14 
REMARK    6  A    between atoms: C_6  and  N_15 
REMARK    7  A    between atoms: C_8  and  O_20 
REMARK    8  A    between atoms: C_11  and  O_34 
REMARK    9  A    between atoms: C_13  and  C_14 
REMARK       I    between atoms: N_15  and  C_16 
REMARK   10  A    between atoms: C_16  and  C_17 
ROOT
HETATM    1  C           1       5.040  28.192  53.403  0.00  0.00     0.056 C 
HETATM    2  C           1       6.141  27.369  54.159  0.00  0.00    -0.030 C 
HETATM    3  C           1       7.405  28.248  54.292  0.00  0.00     0.016 C 
HETATM    4  C           1       6.248  25.752  56.319  0.00  0.00     0.008 C 
HETATM    5  C           1       5.564  26.932  55.546  0.00  0.00     0.012 C 
HETATM    6  C           1       6.539  24.609  55.324  0.00  0.00     0.128 C 
HETATM    7  C           1       6.476  26.111  53.322  0.00  0.00     0.013 C 
HETATM    8  C           1       2.778  32.117  54.736  0.00  0.00     0.017 A 
HETATM    9  C           1       5.246  25.202  57.373  0.00  0.00     0.020 C 
HETATM   10  C           1       7.293  25.065  54.082  0.00  0.00     0.033 C 
HETATM   11  C           1       5.247  28.157  56.433  0.00  0.00     0.054 C 
HETATM   12  C           1       4.548  29.230  55.650  0.00  0.00     0.010 A 
HETATM   13  C           1       4.465  29.242  54.317  0.00  0.00     0.054 A 
HETATM   14  N           1       3.846  30.261  53.905  0.00  0.00    -0.244 NA
HETATM   15  C           1       3.477  30.969  54.891  0.00  0.00     0.110 A 
HETATM   16  C           1       2.417  32.552  53.509  0.00  0.00     0.130 A 
HETATM   17  N           1       1.770  33.610  53.251  0.00  0.00    -0.272 NA
HETATM   18  C           1       1.419  34.338  54.223  0.00  0.00     0.116 A 
HETATM   19  C           1       1.699  34.037  55.498  0.00  0.00     0.020 A 
HETATM   20  C           1       2.385  32.912  55.752  0.00  0.00     0.017 A 
HETATM   21  S           1       3.894  30.421  56.195  0.00  0.00    -0.072 SA
ENDROOT
BRANCH   1  22
HETATM   22  C           1       5.473  28.802  52.051  0.00  0.00     0.114 C 
BRANCH  22  23
HETATM   23  C           1       4.577  28.505  50.855  0.00  0.00     0.218 C 
HETATM   24  N           1       5.249  27.955  49.796  0.00  0.00    -0.354 N 
HETATM   25  H           1       6.260  27.853  49.881  0.00  0.00     0.162 HD
HETATM   26  O           1       3.390  28.721  50.848  0.00  0.00    -0.274 OA
BRANCH  24  27
HETATM   27  C           1       4.631  27.621  48.506  0.00  0.00     0.108 C 
BRANCH  27  28
HETATM   28  C           1       5.513  27.971  47.302  0.00  0.00     0.189 C 
BRANCH  28  29
HETATM   29  O           1       6.196  26.816  46.858  0.00  0.00    -0.399 OA
HETATM   30  H           1       5.819  26.523  46.025  0.00  0.00     0.209 HD
ENDBRANCH  28  29
ENDBRANCH  27  28
BRANCH  27  31
HETATM   31  C           1       4.137  26.164  48.461  0.00  0.00     0.031 C 
BRANCH  31  32
HETATM   32  C           1       2.677  25.929  48.016  0.00  0.00    -0.021 C 
HETATM   33  C           1       2.594  25.326  46.603  0.00  0.00     0.009 C 
HETATM   34  C           1       1.778  27.172  48.113  0.00  0.00     0.009 C 
ENDBRANCH  31  32
ENDBRANCH  27  31
ENDBRANCH  24  27
ENDBRANCH  22  23
ENDBRANCH   1  22
BRANCH   4  35
HETATM   35  C           1       7.527  26.160  57.078  0.00  0.00     0.176 C 
BRANCH  35  36
HETATM   36  O           1       7.649  25.473  58.310  0.00  0.00    -0.400 OA
HETATM   37  H           1       8.407  25.803  58.796  0.00  0.00     0.209 HD
ENDBRANCH  35  36
ENDBRANCH   4  35
BRANCH   6  38
HETATM   38  O           1       7.283  23.581  55.934  0.00  0.00    -0.395 OA
HETATM   39  H           1       7.777  23.929  56.678  0.00  0.00     0.210 HD
ENDBRANCH   6  38
TORSDOF 10
ENDMDL
MODEL 8
REMARK VINA RESULT:      -8.4      3.100      7.087
REMARK  10 active torsions:
REMARK  status: ('A' for Active; 'I' for Inactive)
REMARK    1  A    between atoms: C_1  and  C_17 
REMARK    2  A    between atoms: C_4  and  C_5 
REMARK    3  A    between atoms: C_5  and  O_18 
REMARK    4  A    between atoms: C_6  and  C_11 
REMARK    5  A    between atoms: C_6  and  C_14 
REMARK    6  A    between atoms: C_6  and  N_15 
REMARK    7  A    between atoms: C_8  and  O_20 
REMARK    8  A    between atoms: C_11  and  O_34 
REMARK    9  A    between atoms: C_13  and  C_14 
REMARK       I    between atoms: N_15  and  C_16 
REMARK   10  A    between atoms: C_16  and  C_17 
ROOT
HETATM    1  C           1       4.342  28.481  52.731  0.00  0.00     0.056 C 
HETATM    2  C           1       4.016  29.294  51.428  0.00  0.00    -0.030 C 
HETATM    3  C           1       5.316  29.963  50.930  0.00  0.00     0.016 C 
HETATM    4  C           1       2.586  28.898  49.172  0.00  0.00     0.008 C 
HETATM    5  C           1       3.403  28.312  50.376  0.00  0.00     0.012 C 
HETATM    6  C           1       1.635  29.991  49.701  0.00  0.00     0.128 C 
HETATM    7  C           1       2.977  30.386  51.778  0.00  0.00     0.013 C 
HETATM    8  C           1       7.100  24.691  53.293  0.00  0.00     0.017 A 
HETATM    9  C           1       1.702  27.766  48.575  0.00  0.00     0.020 C 
HETATM   10  C           1       2.335  31.041  50.553  0.00  0.00     0.033 C 
HETATM   11  C           1       4.419  27.222  49.967  0.00  0.00     0.054 C 
HETATM   12  C           1       5.130  26.665  51.166  0.00  0.00     0.010 A 
HETATM   13  C           1       5.096  27.226  52.377  0.00  0.00     0.054 A 
HETATM   14  N           1       5.793  26.577  53.204  0.00  0.00    -0.244 NA
HETATM   15  C           1       6.313  25.571  52.633  0.00  0.00     0.110 A 
HETATM   16  C           1       7.349  24.833  54.613  0.00  0.00     0.130 A 
HETATM   17  N           1       8.073  24.075  55.324  0.00  0.00    -0.272 NA
HETATM   18  C           1       8.618  23.083  54.761  0.00  0.00     0.116 A 
HETATM   19  C           1       8.461  22.806  53.460  0.00  0.00     0.020 A 
HETATM   20  C           1       7.691  23.621  52.722  0.00  0.00     0.017 A 
HETATM   21  S           1       5.982  25.474  51.200  0.00  0.00    -0.072 SA
ENDROOT
BRANCH   1  22
HETATM   22  C           1       5.059  29.271  53.849  0.00  0.00     0.114 C 
BRANCH  22  23
HETATM   23  C           1       4.871  28.756  55.270  0.00  0.00     0.218 C 
HETATM   24  N           1       6.004  28.197  55.798  0.00  0.00    -0.354 N 
HETATM   25  H           1       6.822  28.126  55.193  0.00  0.00     0.162 HD
HETATM   26  O           1       3.831  28.845  55.874  0.00  0.00    -0.274 OA
BRANCH  24  27
HETATM   27  C           1       6.081  27.580  57.130  0.00  0.00     0.108 C 
BRANCH  27  28
HETATM   28  C           1       5.552  26.142  57.164  0.00  0.00     0.189 C 
BRANCH  28  29
HETATM   29  O           1       6.515  25.294  57.758  0.00  0.00    -0.399 OA
HETATM   30  H           1       6.119  24.834  58.502  0.00  0.00     0.209 HD
ENDBRANCH  28  29
ENDBRANCH  27  28
BRANCH  27  31
HETATM   31  C           1       7.488  27.698  57.742  0.00  0.00     0.031 C 
BRANCH  31  32
HETATM   32  C           1       8.203  29.060  57.606  0.00  0.00    -0.021 C 
HETATM   33  C           1       9.622  28.912  57.029  0.00  0.00     0.009 C 
HETATM   34  C           1       8.243  29.886  58.902  0.00  0.00     0.009 C 
ENDBRANCH  31  32
ENDBRANCH  27  31
ENDBRANCH  24  27
ENDBRANCH  22  23
ENDBRANCH   1  22
BRANCH   4  35
HETATM   35  C           1       3.464  29.440  48.026  0.00  0.00     0.176 C 
BRANCH  35  36
HETATM   36  O           1       2.762  29.475  46.797  0.00  0.00    -0.400 OA
HETATM   37  H           1       3.296  29.905  46.127  0.00  0.00     0.209 HD
ENDBRANCH  35  36
ENDBRANCH   4  35
BRANCH   6  38
HETATM   38  O           1       0.980  30.651  48.644  0.00  0.00    -0.395 OA
HETATM   39  H           1       1.465  30.525  47.827  0.00  0.00     0.210 HD
ENDBRANCH   6  38
TORSDOF 10
ENDMDL
MODEL 9
REMARK VINA RESULT:      -8.3      2.261      3.055
REMARK  10 active torsions:
REMARK  status: ('A' for Active; 'I' for Inactive)
REMARK    1  A    between atoms: C_1  and  C_17 
REMARK    2  A    between atoms: C_4  and  C_5 
REMARK    3  A    between atoms: C_5  and  O_18 
REMARK    4  A    between atoms: C_6  and  C_11 
REMARK    5  A    between atoms: C_6  and  C_14 
REMARK    6  A    between atoms: C_6  and  N_15 
REMARK    7  A    between atoms: C_8  and  O_20 
REMARK    8  A    between atoms: C_11  and  O_34 
REMARK    9  A    between atoms: C_13  and  C_14 
REMARK       I    between atoms: N_15  and  C_16 
REMARK   10  A    between atoms: C_16  and  C_17 
ROOT
HETATM    1  C           1       5.932  29.537  56.092  0.00  0.00     0.056 C 
HETATM    2  C           1       4.563  29.852  55.391  0.00  0.00    -0.030 C 
HETATM    3  C           1       3.419  29.398  56.324  0.00  0.00     0.016 C 
HETATM    4  C           1       3.492  31.907  54.005  0.00  0.00     0.008 C 
HETATM    5  C           1       4.512  31.383  55.075  0.00  0.00     0.012 C 
HETATM    6  C           1       3.534  30.972  52.779  0.00  0.00     0.128 C 
HETATM    7  C           1       4.495  29.051  54.068  0.00  0.00     0.013 C 
HETATM    8  C           1       7.766  31.353  60.046  0.00  0.00     0.017 A 
HETATM    9  C           1       3.954  33.313  53.528  0.00  0.00     0.020 C 
HETATM   10  C           1       3.368  29.500  53.135  0.00  0.00     0.033 C 
HETATM   11  C           1       4.542  32.224  56.371  0.00  0.00     0.054 C 
HETATM   12  C           1       5.571  31.705  57.333  0.00  0.00     0.010 A 
HETATM   13  C           1       6.175  30.521  57.207  0.00  0.00     0.054 A 
HETATM   14  N           1       6.979  30.313  58.156  0.00  0.00    -0.244 NA
HETATM   15  C           1       6.980  31.305  58.945  0.00  0.00     0.110 A 
HETATM   16  C           1       8.614  30.344  60.341  0.00  0.00     0.130 A 
HETATM   17  N           1       9.386  30.284  61.343  0.00  0.00    -0.272 NA
HETATM   18  C           1       9.378  31.256  62.152  0.00  0.00     0.116 A 
HETATM   19  C           1       8.596  32.331  61.992  0.00  0.00     0.020 A 
HETATM   20  C           1       7.784  32.377  60.925  0.00  0.00     0.017 A 
HETATM   21  S           1       6.043  32.371  58.549  0.00  0.00    -0.072 SA
ENDROOT
BRANCH   1  22
HETATM   22  C           1       6.114  28.082  56.578  0.00  0.00     0.114 C 
BRANCH  22  23
HETATM   23  C           1       7.001  27.188  55.721  0.00  0.00     0.218 C 
HETATM   24  N           1       6.953  25.868  56.082  0.00  0.00    -0.354 N 
HETATM   25  H           1       6.393  25.623  56.899  0.00  0.00     0.162 HD
HETATM   26  O           1       7.670  27.601  54.806  0.00  0.00    -0.274 OA
BRANCH  24  27
HETATM   27  C           1       7.749  24.806  55.453  0.00  0.00     0.108 C 
BRANCH  27  28
HETATM   28  C           1       8.711  24.112  56.423  0.00  0.00     0.189 C 
BRANCH  28  29
HETATM   29  O           1       8.360  22.748  56.549  0.00  0.00    -0.399 OA
HETATM   30  H           1       7.590  22.668  57.116  0.00  0.00     0.209 HD
ENDBRANCH  28  29
ENDBRANCH  27  28
BRANCH  27  31
HETATM   31  C           1       6.870  23.801  54.686  0.00  0.00     0.031 C 
BRANCH  31  32
HETATM   32  C           1       7.223  23.545  53.205  0.00  0.00    -0.021 C 
HETATM   33  C           1       8.008  22.234  53.016  0.00  0.00     0.009 C 
HETATM   34  C           1       7.961  24.706  52.519  0.00  0.00     0.009 C 
ENDBRANCH  31  32
ENDBRANCH  27  31
ENDBRANCH  24  27
ENDBRANCH  22  23
ENDBRANCH   1  22
BRANCH   4  35
HETATM   35  C           1       2.052  32.056  54.535  0.00  0.00     0.176 C 
BRANCH  35  36
HETATM   36  O           1       1.268  32.888  53.699  0.00  0.00    -0.400 OA
HETATM   37  H           1       0.985  33.666  54.183  0.00  0.00     0.209 HD
ENDBRANCH  35  36
ENDBRANCH   4  35
BRANCH   6  38
HETATM   38  O           1       2.536  31.311  51.846  0.00  0.00    -0.395 OA
HETATM   39  H           1       2.605  32.238  51.613  0.00  0.00     0.210 HD
ENDBRANCH   6  38
TORSDOF 10
ENDMDL
MODEL 10
REMARK VINA RESULT:      -8.3      3.515      7.831
REMARK  10 active torsions:
REMARK  status: ('A' for Active; 'I' for Inactive)
REMARK    1  A    between atoms: C_1  and  C_17 
REMARK    2  A    between atoms: C_4  and  C_5 
REMARK    3  A    between atoms: C_5  and  O_18 
REMARK    4  A    between atoms: C_6  and  C_11 
REMARK    5  A    between atoms: C_6  and  C_14 
REMARK    6  A    between atoms: C_6  and  N_15 
REMARK    7  A    between atoms: C_8  and  O_20 
REMARK    8  A    between atoms: C_11  and  O_34 
REMARK    9  A    between atoms: C_13  and  C_14 
REMARK       I    between atoms: N_15  and  C_16 
REMARK   10  A    between atoms: C_16  and  C_17 
ROOT
HETATM    1  C           1       5.795  28.143  54.045  0.00  0.00     0.056 C 
HETATM    2  C           1       5.035  29.070  55.057  0.00  0.00    -0.030 C 
HETATM    3  C           1       3.799  28.309  55.586  0.00  0.00     0.016 C 
HETATM    4  C           1       5.698  30.720  57.089  0.00  0.00     0.008 C 
HETATM    5  C           1       6.027  29.474  56.197  0.00  0.00     0.012 C 
HETATM    6  C           1       5.221  31.871  56.179  0.00  0.00     0.128 C 
HETATM    7  C           1       4.572  30.342  54.305  0.00  0.00     0.013 C 
HETATM    8  C           1       8.023  24.051  54.813  0.00  0.00     0.017 A 
HETATM    9  C           1       7.007  31.193  57.783  0.00  0.00     0.020 C 
HETATM   10  C           1       4.102  31.466  55.229  0.00  0.00     0.033 C 
HETATM   11  C           1       6.490  28.237  57.001  0.00  0.00     0.054 C 
HETATM   12  C           1       6.839  27.096  56.090  0.00  0.00     0.010 A 
HETATM   13  C           1       6.527  27.059  54.792  0.00  0.00     0.054 A 
HETATM   14  N           1       6.912  25.984  54.258  0.00  0.00    -0.244 NA
HETATM   15  C           1       7.496  25.259  55.120  0.00  0.00     0.110 A 
HETATM   16  C           1       7.972  23.569  53.552  0.00  0.00     0.130 A 
HETATM   17  N           1       8.427  22.455  53.158  0.00  0.00    -0.272 NA
HETATM   18  C           1       8.988  21.712  54.013  0.00  0.00     0.116 A 
HETATM   19  C           1       9.120  22.054  55.302  0.00  0.00     0.020 A 
HETATM   20  C           1       8.632  23.238  55.701  0.00  0.00     0.017 A 
HETATM   21  S           1       7.526  25.859  56.467  0.00  0.00    -0.072 SA
ENDROOT
BRANCH   1  22
HETATM   22  C           1       4.936  27.555  52.902  0.00  0.00     0.114 C 
BRANCH  22  23
HETATM   23  C           1       5.171  28.132  51.512  0.00  0.00     0.218 C 
HETATM   24  N           1       4.486  27.473  50.528  0.00  0.00    -0.354 N 
HETATM   25  H           1       3.948  26.649  50.798  0.00  0.00     0.162 HD
HETATM   26  O           1       5.880  29.086  51.303  0.00  0.00    -0.274 OA
BRANCH  24  27
HETATM   27  C           1       4.575  27.794  49.097  0.00  0.00     0.108 C 
BRANCH  27  28
HETATM   28  C           1       4.636  26.554  48.198  0.00  0.00     0.189 C 
BRANCH  28  29
HETATM   29  O           1       5.678  26.700  47.254  0.00  0.00    -0.399 OA
HETATM   30  H           1       5.977  27.612  47.247  0.00  0.00     0.209 HD
ENDBRANCH  28  29
ENDBRANCH  27  28
BRANCH  27  31
HETATM   31  C           1       3.478  28.779  48.655  0.00  0.00     0.031 C 
BRANCH  31  32
HETATM   32  C           1       2.029  28.457  49.082  0.00  0.00    -0.021 C 
HETATM   33  C           1       1.095  28.285  47.871  0.00  0.00     0.009 C 
HETATM   34  C           1       1.425  29.459  50.079  0.00  0.00     0.009 C 
ENDBRANCH  31  32
ENDBRANCH  27  31
ENDBRANCH  24  27
ENDBRANCH  22  23
ENDBRANCH   1  22
BRANCH   4  35
HETATM   35  C           1       4.669  30.437  58.203  0.00  0.00     0.176 C 
BRANCH  35  36
HETATM   36  O           1       4.752  31.389  59.249  0.00  0.00    -0.400 OA
HETATM   37  H           1       4.782  32.275  58.884  0.00  0.00     0.209 HD
ENDBRANCH  35  36
ENDBRANCH   4  35
BRANCH   6  38
HETATM   38  O           1       4.775  32.969  56.938  0.00  0.00    -0.395 OA
HETATM   39  H           1       4.450  33.660  56.359  0.00  0.00     0.210 HD
ENDBRANCH   6  38
TORSDOF 10
ENDMDL
