MODEL 1
REMARK VINA RESULT:     -10.2      0.000      0.000
REMARK  5 active torsions:
REMARK  status: ('A' for Active; 'I' for Inactive)
REMARK    1  A    between atoms: C_7  and  N_8 
REMARK       I    between atoms: N_8  and  C_9 
REMARK       I    between atoms: C_9  and  N_10 
REMARK    2  A    between atoms: N_10  and  C_11 
REMARK    3  A    between atoms: C_18  and  C_19 
REMARK       I    between atoms: C_19  and  N_20 
REMARK    4  A    between atoms: N_20  and  C_21 
REMARK    5  A    between atoms: C_21  and  C_22 
ROOT
HETATM    1  C   UNL     1       5.828  29.752  57.462  1.00  0.00     0.104 C 
HETATM    2  C   UNL     1       5.651  30.143  55.969  1.00  0.00     0.150 C 
HETATM    3  N   UNL     1       5.618  28.974  55.095  1.00  0.00    -0.354 N 
HETATM    4  C   UNL     1       4.301  28.502  54.692  1.00  0.00     0.152 C 
HETATM    5  C   UNL     1       6.741  28.266  54.716  1.00  0.00     0.220 C 
HETATM    6  O   UNL     1       6.683  27.234  54.041  1.00  0.00    -0.273 OA
HETATM    7  C   UNL     1       8.102  28.747  55.180  1.00  0.00     0.117 C 
HETATM    8  C   UNL     1       8.693  28.100  56.442  1.00  0.00     0.086 C 
HETATM    9  C   UNL     1       9.150  29.166  57.477  1.00  0.00     0.014 C 
HETATM   10  C   UNL     1       8.182  29.717  58.539  1.00  0.00     0.003 C 
HETATM   11  C   UNL     1       6.985  30.562  58.087  1.00  0.00     0.027 C 
ENDROOT
BRANCH   1  12
HETATM   12  N   UNL     1       4.550  29.940  58.164  1.00  0.00    -0.337 N 
HETATM   13  C   UNL     1       3.906  31.046  58.628  1.00  0.00     0.321 C 
HETATM   14  N   UNL     1       4.469  32.248  58.337  1.00  0.00    -0.305 N 
HETATM   15  O   UNL     1       2.860  30.849  59.235  1.00  0.00    -0.247 OA
HETATM   16  H   UNL     1       5.432  32.244  58.044  1.00  0.00     0.171 HD
HETATM   17  H   UNL     1       4.045  29.114  58.467  1.00  0.00     0.164 HD
BRANCH  14  18
HETATM   18  C   UNL     1       3.888  33.503  58.487  1.00  0.00     0.094 A 
HETATM   19  C   UNL     1       4.012  34.329  59.646  1.00  0.00     0.087 A 
HETATM   20  C   UNL     1       4.759  34.065  60.896  1.00  0.00     0.075 C 
HETATM   21  N   UNL     1       3.371  35.492  59.495  1.00  0.00    -0.131 NA
HETATM   22  O   UNL     1       2.817  35.449  58.237  1.00  0.00    -0.216 OA
HETATM   23  C   UNL     1       3.128  34.269  57.627  1.00  0.00     0.103 A 
HETATM   24  C   UNL     1       2.586  34.138  56.261  1.00  0.00     0.081 C 
ENDBRANCH  14  18
ENDBRANCH   1  12
BRANCH   8  25
HETATM   25  C   UNL     1       7.991  26.895  57.089  1.00  0.00     0.222 C 
HETATM   26  N   UNL     1       7.855  25.776  56.307  1.00  0.00    -0.356 N 
HETATM   27  H   UNL     1       7.986  25.835  55.299  1.00  0.00     0.162 HD
HETATM   28  O   UNL     1       7.661  26.897  58.275  1.00  0.00    -0.273 OA
BRANCH  26  29
HETATM   29  C   UNL     1       7.251  24.559  56.803  1.00  0.00     0.161 C 
BRANCH  29  30
HETATM   30  C   UNL     1       7.690  23.340  56.033  1.00  0.00    -0.035 A 
HETATM   31  C   UNL     1       7.366  23.181  54.679  1.00  0.00     0.051 A 
HETATM   32  C   UNL     1       7.773  22.035  53.995  1.00  0.00     0.119 A 
HETATM   33  F   UNL     1       7.449  21.896  52.703  1.00  0.00    -0.206 F 
HETATM   34  C   UNL     1       8.496  21.035  54.628  1.00  0.00     0.084 A 
HETATM   35  C   UNL     1       8.811  21.189  55.970  1.00  0.00     0.119 A 
HETATM   36  F   UNL     1       9.507  20.236  56.600  1.00  0.00    -0.206 F 
HETATM   37  C   UNL     1       8.415  22.324  56.674  1.00  0.00     0.051 A 
ENDBRANCH  29  30
ENDBRANCH  26  29
ENDBRANCH   8  25
TORSDOF 5
ENDMDL
MODEL 2
REMARK VINA RESULT:     -10.2      0.094      1.410
REMARK  5 active torsions:
REMARK  status: ('A' for Active; 'I' for Inactive)
REMARK    1  A    between atoms: C_7  and  N_8 
REMARK       I    between atoms: N_8  and  C_9 
REMARK       I    between atoms: C_9  and  N_10 
REMARK    2  A    between atoms: N_10  and  C_11 
REMARK    3  A    between atoms: C_18  and  C_19 
REMARK       I    between atoms: C_19  and  N_20 
REMARK    4  A    between atoms: N_20  and  C_21 
REMARK    5  A    between atoms: C_21  and  C_22 
ROOT
HETATM    1  C   UNL     1       5.821  29.729  57.437  1.00  0.00     0.104 C 
HETATM    2  C   UNL     1       5.639  30.104  55.941  1.00  0.00     0.150 C 
HETATM    3  N   UNL     1       5.609  28.927  55.078  1.00  0.00    -0.354 N 
HETATM    4  C   UNL     1       4.293  28.446  54.682  1.00  0.00     0.152 C 
HETATM    5  C   UNL     1       6.733  28.219  54.704  1.00  0.00     0.220 C 
HETATM    6  O   UNL     1       6.678  27.180  54.039  1.00  0.00    -0.273 OA
HETATM    7  C   UNL     1       8.094  28.709  55.161  1.00  0.00     0.117 C 
HETATM    8  C   UNL     1       8.690  28.077  56.429  1.00  0.00     0.086 C 
HETATM    9  C   UNL     1       9.145  29.154  57.452  1.00  0.00     0.014 C 
HETATM   10  C   UNL     1       8.176  29.712  58.510  1.00  0.00     0.003 C 
HETATM   11  C   UNL     1       6.975  30.549  58.052  1.00  0.00     0.027 C 
ENDROOT
BRANCH   1  12
HETATM   12  N   UNL     1       4.543  29.919  58.139  1.00  0.00    -0.337 N 
HETATM   13  C   UNL     1       3.885  31.029  58.573  1.00  0.00     0.321 C 
HETATM   14  N   UNL     1       4.428  32.229  58.242  1.00  0.00    -0.305 N 
HETATM   15  O   UNL     1       2.844  30.835  59.190  1.00  0.00    -0.247 OA
HETATM   16  H   UNL     1       5.390  32.231  57.946  1.00  0.00     0.171 HD
HETATM   17  H   UNL     1       4.052  29.095  58.470  1.00  0.00     0.164 HD
BRANCH  14  18
HETATM   18  C   UNL     1       3.830  33.479  58.358  1.00  0.00     0.094 A 
HETATM   19  C   UNL     1       3.925  34.332  59.500  1.00  0.00     0.087 A 
HETATM   20  C   UNL     1       4.656  34.103  60.767  1.00  0.00     0.075 C 
HETATM   21  N   UNL     1       3.272  35.483  59.316  1.00  0.00    -0.131 NA
HETATM   22  O   UNL     1       2.738  35.406  58.050  1.00  0.00    -0.216 OA
HETATM   23  C   UNL     1       3.073  34.218  57.470  1.00  0.00     0.103 A 
HETATM   24  C   UNL     1       2.554  34.052  56.099  1.00  0.00     0.081 C 
ENDBRANCH  14  18
ENDBRANCH   1  12
BRANCH   8  25
HETATM   25  C   UNL     1       7.993  26.875  57.088  1.00  0.00     0.222 C 
HETATM   26  N   UNL     1       7.845  25.754  56.312  1.00  0.00    -0.356 N 
HETATM   27  H   UNL     1       7.964  25.809  55.303  1.00  0.00     0.162 HD
HETATM   28  O   UNL     1       7.676  26.883  58.277  1.00  0.00    -0.273 OA
BRANCH  26  29
HETATM   29  C   UNL     1       7.245  24.540  56.820  1.00  0.00     0.161 C 
BRANCH  29  30
HETATM   30  C   UNL     1       7.675  23.317  56.052  1.00  0.00    -0.035 A 
HETATM   31  C   UNL     1       8.389  22.283  56.673  1.00  0.00     0.051 A 
HETATM   32  C   UNL     1       8.788  21.169  55.934  1.00  0.00     0.119 A 
HETATM   33  F   UNL     1       9.476  20.194  56.541  1.00  0.00    -0.206 F 
HETATM   34  C   UNL     1       8.494  21.057  54.582  1.00  0.00     0.084 A 
HETATM   35  C   UNL     1       7.793  22.082  53.966  1.00  0.00     0.119 A 
HETATM   36  F   UNL     1       7.500  21.994  52.664  1.00  0.00    -0.206 F 
HETATM   37  C   UNL     1       7.385  23.205  54.683  1.00  0.00     0.051 A 
ENDBRANCH  29  30
ENDBRANCH  26  29
ENDBRANCH   8  25
TORSDOF 5
ENDMDL
MODEL 3
REMARK VINA RESULT:      -9.6      4.886      8.650
REMARK  5 active torsions:
REMARK  status: ('A' for Active; 'I' for Inactive)
REMARK    1  A    between atoms: C_7  and  N_8 
REMARK       I    between atoms: N_8  and  C_9 
REMARK       I    between atoms: C_9  and  N_10 
REMARK    2  A    between atoms: N_10  and  C_11 
REMARK    3  A    between atoms: C_18  and  C_19 
REMARK       I    between atoms: C_19  and  N_20 
REMARK    4  A    between atoms: N_20  and  C_21 
REMARK    5  A    between atoms: C_21  and  C_22 
ROOT
HETATM    1  C   UNL     1       5.846  28.291  53.233  1.00  0.00     0.104 C 
HETATM    2  C   UNL     1       4.421  28.319  53.849  1.00  0.00     0.150 C 
HETATM    3  N   UNL     1       4.379  29.060  55.106  1.00  0.00    -0.354 N 
HETATM    4  C   UNL     1       3.917  30.438  55.032  1.00  0.00     0.152 C 
HETATM    5  C   UNL     1       4.827  28.556  56.311  1.00  0.00     0.220 C 
HETATM    6  O   UNL     1       4.856  29.228  57.346  1.00  0.00    -0.273 OA
HETATM    7  C   UNL     1       5.345  27.132  56.362  1.00  0.00     0.117 C 
HETATM    8  C   UNL     1       6.863  26.921  56.244  1.00  0.00     0.086 C 
HETATM    9  C   UNL     1       7.218  25.877  55.149  1.00  0.00     0.014 C 
HETATM   10  C   UNL     1       7.432  26.296  53.684  1.00  0.00     0.003 C 
HETATM   11  C   UNL     1       6.243  26.841  52.884  1.00  0.00     0.027 C 
ENDROOT
BRANCH   1  12
HETATM   12  N   UNL     1       5.886  29.193  52.073  1.00  0.00    -0.337 N 
HETATM   13  C   UNL     1       5.327  29.128  50.834  1.00  0.00     0.321 C 
HETATM   14  N   UNL     1       4.485  28.089  50.598  1.00  0.00    -0.305 N 
HETATM   15  O   UNL     1       5.611  30.037  50.063  1.00  0.00    -0.247 OA
HETATM   16  H   UNL     1       4.533  27.307  51.230  1.00  0.00     0.171 HD
HETATM   17  H   UNL     1       6.507  29.995  52.112  1.00  0.00     0.164 HD
BRANCH  14  18
HETATM   18  C   UNL     1       3.622  27.940  49.517  1.00  0.00     0.094 A 
HETATM   19  C   UNL     1       2.312  28.502  49.431  1.00  0.00     0.087 A 
HETATM   20  C   UNL     1       1.599  29.344  50.418  1.00  0.00     0.075 C 
HETATM   21  N   UNL     1       1.726  28.216  48.264  1.00  0.00    -0.131 NA
HETATM   22  O   UNL     1       2.641  27.463  47.565  1.00  0.00    -0.216 OA
HETATM   23  C   UNL     1       3.776  27.301  48.303  1.00  0.00     0.103 A 
HETATM   24  C   UNL     1       4.825  26.515  47.625  1.00  0.00     0.081 C 
ENDBRANCH  14  18
ENDBRANCH   1  12
BRANCH   8  25
HETATM   25  C   UNL     1       7.809  28.133  56.250  1.00  0.00     0.222 C 
HETATM   26  N   UNL     1       8.153  28.632  57.481  1.00  0.00    -0.356 N 
HETATM   27  H   UNL     1       7.620  28.372  58.308  1.00  0.00     0.162 HD
HETATM   28  O   UNL     1       8.311  28.568  55.214  1.00  0.00    -0.273 OA
BRANCH  26  29
HETATM   29  C   UNL     1       9.068  29.743  57.632  1.00  0.00     0.161 C 
BRANCH  29  30
HETATM   30  C   UNL     1       8.656  30.685  58.734  1.00  0.00    -0.035 A 
HETATM   31  C   UNL     1       7.395  31.295  58.734  1.00  0.00     0.051 A 
HETATM   32  C   UNL     1       7.047  32.175  59.759  1.00  0.00     0.119 A 
HETATM   33  F   UNL     1       5.840  32.756  59.741  1.00  0.00    -0.206 F 
HETATM   34  C   UNL     1       7.928  32.467  60.791  1.00  0.00     0.084 A 
HETATM   35  C   UNL     1       9.178  31.867  60.788  1.00  0.00     0.119 A 
HETATM   36  F   UNL     1      10.043  32.135  61.772  1.00  0.00    -0.206 F 
HETATM   37  C   UNL     1       9.549  30.986  59.774  1.00  0.00     0.051 A 
ENDBRANCH  29  30
ENDBRANCH  26  29
ENDBRANCH   8  25
TORSDOF 5
ENDMDL
MODEL 4
REMARK VINA RESULT:      -9.4      4.488      9.602
REMARK  5 active torsions:
REMARK  status: ('A' for Active; 'I' for Inactive)
REMARK    1  A    between atoms: C_7  and  N_8 
REMARK       I    between atoms: N_8  and  C_9 
REMARK       I    between atoms: C_9  and  N_10 
REMARK    2  A    between atoms: N_10  and  C_11 
REMARK    3  A    between atoms: C_18  and  C_19 
REMARK       I    between atoms: C_19  and  N_20 
REMARK    4  A    between atoms: N_20  and  C_21 
REMARK    5  A    between atoms: C_21  and  C_22 
ROOT
HETATM    1  C   UNL     1       4.880  29.071  57.152  1.00  0.00     0.104 C 
HETATM    2  C   UNL     1       6.305  29.536  56.748  1.00  0.00     0.150 C 
HETATM    3  N   UNL     1       6.967  30.275  57.819  1.00  0.00    -0.354 N 
HETATM    4  C   UNL     1       7.903  29.525  58.644  1.00  0.00     0.152 C 
HETATM    5  C   UNL     1       6.689  31.591  58.130  1.00  0.00     0.220 C 
HETATM    6  O   UNL     1       7.203  32.173  59.090  1.00  0.00    -0.273 OA
HETATM    7  C   UNL     1       5.681  32.346  57.287  1.00  0.00     0.117 C 
HETATM    8  C   UNL     1       4.231  32.409  57.796  1.00  0.00     0.086 C 
HETATM    9  C   UNL     1       3.216  31.971  56.704  1.00  0.00     0.014 C 
HETATM   10  C   UNL     1       2.810  30.496  56.535  1.00  0.00     0.003 C 
HETATM   11  C   UNL     1       3.862  29.483  56.068  1.00  0.00     0.027 C 
ENDROOT
BRANCH   1  12
HETATM   12  N   UNL     1       4.899  27.622  57.402  1.00  0.00    -0.337 N 
HETATM   13  C   UNL     1       5.215  26.555  56.618  1.00  0.00     0.321 C 
HETATM   14  N   UNL     1       5.697  26.830  55.377  1.00  0.00    -0.305 N 
HETATM   15  O   UNL     1       5.067  25.449  57.123  1.00  0.00    -0.247 OA
HETATM   16  H   UNL     1       5.542  27.758  55.020  1.00  0.00     0.171 HD
HETATM   17  H   UNL     1       4.531  27.284  58.285  1.00  0.00     0.164 HD
BRANCH  14  18
HETATM   18  C   UNL     1       6.304  25.939  54.499  1.00  0.00     0.094 A 
HETATM   19  C   UNL     1       5.998  25.821  53.109  1.00  0.00     0.087 A 
HETATM   20  C   UNL     1       5.017  26.589  52.308  1.00  0.00     0.075 C 
HETATM   21  N   UNL     1       6.759  24.901  52.509  1.00  0.00    -0.131 NA
HETATM   22  O   UNL     1       7.578  24.400  53.495  1.00  0.00    -0.216 OA
HETATM   23  C   UNL     1       7.318  25.020  54.681  1.00  0.00     0.103 A 
HETATM   24  C   UNL     1       8.162  24.555  55.799  1.00  0.00     0.081 C 
ENDBRANCH  14  18
ENDBRANCH   1  12
BRANCH   8  25
HETATM   25  C   UNL     1       3.884  31.868  59.193  1.00  0.00     0.222 C 
HETATM   26  N   UNL     1       4.463  32.512  60.258  1.00  0.00    -0.356 N 
HETATM   27  H   UNL     1       5.253  33.136  60.112  1.00  0.00     0.162 HD
HETATM   28  O   UNL     1       3.055  30.973  59.353  1.00  0.00    -0.273 OA
BRANCH  26  29
HETATM   29  C   UNL     1       4.190  32.133  61.626  1.00  0.00     0.161 C 
BRANCH  29  30
HETATM   30  C   UNL     1       5.337  32.443  62.552  1.00  0.00    -0.035 A 
HETATM   31  C   UNL     1       5.120  33.022  63.810  1.00  0.00     0.051 A 
HETATM   32  C   UNL     1       6.203  33.313  64.640  1.00  0.00     0.119 A 
HETATM   33  F   UNL     1       5.978  33.873  65.836  1.00  0.00    -0.206 F 
HETATM   34  C   UNL     1       7.506  33.041  64.249  1.00  0.00     0.084 A 
HETATM   35  C   UNL     1       7.722  32.474  63.002  1.00  0.00     0.119 A 
HETATM   36  F   UNL     1       8.970  32.205  62.604  1.00  0.00    -0.206 F 
HETATM   37  C   UNL     1       6.657  32.176  62.155  1.00  0.00     0.051 A 
ENDBRANCH  29  30
ENDBRANCH  26  29
ENDBRANCH   8  25
TORSDOF 5
ENDMDL
MODEL 5
REMARK VINA RESULT:      -9.3      1.725      2.938
REMARK  5 active torsions:
REMARK  status: ('A' for Active; 'I' for Inactive)
REMARK    1  A    between atoms: C_7  and  N_8 
REMARK       I    between atoms: N_8  and  C_9 
REMARK       I    between atoms: C_9  and  N_10 
REMARK    2  A    between atoms: N_10  and  C_11 
REMARK    3  A    between atoms: C_18  and  C_19 
REMARK       I    between atoms: C_19  and  N_20 
REMARK    4  A    between atoms: N_20  and  C_21 
REMARK    5  A    between atoms: C_21  and  C_22 
ROOT
HETATM    1  C   UNL     1       7.608  30.582  58.946  1.00  0.00     0.104 C 
HETATM    2  C   UNL     1       6.548  31.279  58.051  1.00  0.00     0.150 C 
HETATM    3  N   UNL     1       5.621  30.324  57.451  1.00  0.00    -0.354 N 
HETATM    4  C   UNL     1       4.337  30.159  58.116  1.00  0.00     0.152 C 
HETATM    5  C   UNL     1       5.932  29.531  56.364  1.00  0.00     0.220 C 
HETATM    6  O   UNL     1       5.162  28.674  55.922  1.00  0.00    -0.273 OA
HETATM    7  C   UNL     1       7.290  29.686  55.708  1.00  0.00     0.117 C 
HETATM    8  C   UNL     1       8.404  28.719  56.140  1.00  0.00     0.086 C 
HETATM    9  C   UNL     1       9.701  29.474  56.543  1.00  0.00     0.014 C 
HETATM   10  C   UNL     1       9.930  29.958  57.986  1.00  0.00     0.003 C 
HETATM   11  C   UNL     1       9.024  31.057  58.555  1.00  0.00     0.027 C 
ENDROOT
BRANCH   1  12
HETATM   12  N   UNL     1       7.287  30.834  60.359  1.00  0.00    -0.337 N 
HETATM   13  C   UNL     1       6.650  31.857  60.991  1.00  0.00     0.321 C 
HETATM   14  N   UNL     1       6.108  32.821  60.202  1.00  0.00    -0.305 N 
HETATM   15  O   UNL     1       6.598  31.789  62.214  1.00  0.00    -0.247 OA
HETATM   16  H   UNL     1       6.430  32.868  59.249  1.00  0.00     0.171 HD
HETATM   17  H   UNL     1       7.665  30.200  61.055  1.00  0.00     0.164 HD
BRANCH  14  18
HETATM   18  C   UNL     1       5.220  33.818  60.589  1.00  0.00     0.094 A 
HETATM   19  C   UNL     1       4.038  34.185  59.876  1.00  0.00     0.087 A 
HETATM   20  C   UNL     1       3.498  33.614  58.622  1.00  0.00     0.075 C 
HETATM   21  N   UNL     1       3.364  35.156  60.500  1.00  0.00    -0.131 NA
HETATM   22  O   UNL     1       4.091  35.442  61.632  1.00  0.00    -0.216 OA
HETATM   23  C   UNL     1       5.194  34.643  61.696  1.00  0.00     0.103 A 
HETATM   24  C   UNL     1       6.031  34.868  62.891  1.00  0.00     0.081 C 
ENDBRANCH  14  18
ENDBRANCH   1  12
BRANCH   8  25
HETATM   25  C   UNL     1       8.079  27.540  57.073  1.00  0.00     0.222 C 
HETATM   26  N   UNL     1       8.010  26.301  56.489  1.00  0.00    -0.356 N 
HETATM   27  H   UNL     1       7.933  26.213  55.478  1.00  0.00     0.162 HD
HETATM   28  O   UNL     1       7.985  27.685  58.291  1.00  0.00    -0.273 OA
BRANCH  26  29
HETATM   29  C   UNL     1       7.754  25.102  57.256  1.00  0.00     0.161 C 
BRANCH  29  30
HETATM   30  C   UNL     1       7.841  23.851  56.421  1.00  0.00    -0.035 A 
HETATM   31  C   UNL     1       8.330  22.652  56.957  1.00  0.00     0.051 A 
HETATM   32  C   UNL     1       8.414  21.513  56.156  1.00  0.00     0.119 A 
HETATM   33  F   UNL     1       8.891  20.377  56.682  1.00  0.00    -0.206 F 
HETATM   34  C   UNL     1       8.022  21.536  54.825  1.00  0.00     0.084 A 
HETATM   35  C   UNL     1       7.543  22.723  54.293  1.00  0.00     0.119 A 
HETATM   36  F   UNL     1       7.161  22.768  53.011  1.00  0.00    -0.206 F 
HETATM   37  C   UNL     1       7.451  23.874  55.072  1.00  0.00     0.051 A 
ENDBRANCH  29  30
ENDBRANCH  26  29
ENDBRANCH   8  25
TORSDOF 5
ENDMDL
MODEL 6
REMARK VINA RESULT:      -8.6      5.119      8.918
REMARK  5 active torsions:
REMARK  status: ('A' for Active; 'I' for Inactive)
REMARK    1  A    between atoms: C_7  and  N_8 
REMARK       I    between atoms: N_8  and  C_9 
REMARK       I    between atoms: C_9  and  N_10 
REMARK    2  A    between atoms: N_10  and  C_11 
REMARK    3  A    between atoms: C_18  and  C_19 
REMARK       I    between atoms: C_19  and  N_20 
REMARK    4  A    between atoms: N_20  and  C_21 
REMARK    5  A    between atoms: C_21  and  C_22 
ROOT
HETATM    1  C   UNL     1       5.243  28.941  53.190  1.00  0.00     0.104 C 
HETATM    2  C   UNL     1       3.868  29.614  53.448  1.00  0.00     0.150 C 
HETATM    3  N   UNL     1       3.932  30.603  54.520  1.00  0.00    -0.354 N 
HETATM    4  C   UNL     1       4.062  31.994  54.113  1.00  0.00     0.152 C 
HETATM    5  C   UNL     1       3.961  30.281  55.862  1.00  0.00     0.220 C 
HETATM    6  O   UNL     1       4.095  31.128  56.749  1.00  0.00    -0.273 OA
HETATM    7  C   UNL     1       3.866  28.823  56.268  1.00  0.00     0.117 C 
HETATM    8  C   UNL     1       5.180  28.072  56.539  1.00  0.00     0.086 C 
HETATM    9  C   UNL     1       5.258  26.739  55.745  1.00  0.00     0.014 C 
HETATM   10  C   UNL     1       5.836  26.689  54.319  1.00  0.00     0.003 C 
HETATM   11  C   UNL     1       5.089  27.405  53.187  1.00  0.00     0.027 C 
ENDROOT
BRANCH   1  12
HETATM   12  N   UNL     1       5.807  29.464  51.936  1.00  0.00    -0.337 N 
HETATM   13  C   UNL     1       5.430  29.342  50.634  1.00  0.00     0.321 C 
HETATM   14  N   UNL     1       4.261  28.692  50.394  1.00  0.00    -0.305 N 
HETATM   15  O   UNL     1       6.167  29.864  49.805  1.00  0.00    -0.247 OA
HETATM   16  H   UNL     1       3.893  28.122  51.137  1.00  0.00     0.171 HD
HETATM   17  H   UNL     1       6.700  29.943  51.976  1.00  0.00     0.164 HD
BRANCH  14  18
HETATM   18  C   UNL     1       3.556  28.651  49.196  1.00  0.00     0.094 A 
HETATM   19  C   UNL     1       3.362  27.481  48.399  1.00  0.00     0.087 A 
HETATM   20  C   UNL     1       3.832  26.100  48.652  1.00  0.00     0.075 C 
HETATM   21  N   UNL     1       2.621  27.736  47.317  1.00  0.00    -0.131 NA
HETATM   22  O   UNL     1       2.316  29.076  47.385  1.00  0.00    -0.216 OA
HETATM   23  C   UNL     1       2.863  29.626  48.506  1.00  0.00     0.103 A 
HETATM   24  C   UNL     1       2.576  31.063  48.672  1.00  0.00     0.081 C 
ENDBRANCH  14  18
ENDBRANCH   1  12
BRANCH   8  25
HETATM   25  C   UNL     1       6.512  28.839  56.560  1.00  0.00     0.222 C 
HETATM   26  N   UNL     1       6.755  29.612  57.668  1.00  0.00    -0.356 N 
HETATM   27  H   UNL     1       5.996  29.849  58.304  1.00  0.00     0.162 HD
HETATM   28  O   UNL     1       7.360  28.691  55.680  1.00  0.00    -0.273 OA
BRANCH  26  29
HETATM   29  C   UNL     1       7.986  30.352  57.836  1.00  0.00     0.161 C 
BRANCH  29  30
HETATM   30  C   UNL     1       8.056  31.063  59.162  1.00  0.00    -0.035 A 
HETATM   31  C   UNL     1       6.898  31.526  59.801  1.00  0.00     0.051 A 
HETATM   32  C   UNL     1       6.994  32.195  61.021  1.00  0.00     0.119 A 
HETATM   33  F   UNL     1       5.878  32.638  61.615  1.00  0.00    -0.206 F 
HETATM   34  C   UNL     1       8.223  32.420  61.626  1.00  0.00     0.084 A 
HETATM   35  C   UNL     1       9.370  31.967  60.992  1.00  0.00     0.119 A 
HETATM   36  F   UNL     1      10.565  32.173  61.557  1.00  0.00    -0.206 F 
HETATM   37  C   UNL     1       9.299  31.297  59.772  1.00  0.00     0.051 A 
ENDBRANCH  29  30
ENDBRANCH  26  29
ENDBRANCH   8  25
TORSDOF 5
ENDMDL
MODEL 7
REMARK VINA RESULT:      -8.6      4.627      8.801
REMARK  5 active torsions:
REMARK  status: ('A' for Active; 'I' for Inactive)
REMARK    1  A    between atoms: C_7  and  N_8 
REMARK       I    between atoms: N_8  and  C_9 
REMARK       I    between atoms: C_9  and  N_10 
REMARK    2  A    between atoms: N_10  and  C_11 
REMARK    3  A    between atoms: C_18  and  C_19 
REMARK       I    between atoms: C_19  and  N_20 
REMARK    4  A    between atoms: N_20  and  C_21 
REMARK    5  A    between atoms: C_21  and  C_22 
ROOT
HETATM    1  C   UNL     1       7.861  26.430  57.057  1.00  0.00     0.104 C 
HETATM    2  C   UNL     1       6.521  26.706  57.791  1.00  0.00     0.150 C 
HETATM    3  N   UNL     1       5.371  26.593  56.898  1.00  0.00    -0.354 N 
HETATM    4  C   UNL     1       4.644  25.332  56.933  1.00  0.00     0.152 C 
HETATM    5  C   UNL     1       5.006  27.564  55.988  1.00  0.00     0.220 C 
HETATM    6  O   UNL     1       4.078  27.414  55.188  1.00  0.00    -0.273 OA
HETATM    7  C   UNL     1       5.800  28.855  55.935  1.00  0.00     0.117 C 
HETATM    8  C   UNL     1       6.921  28.959  54.889  1.00  0.00     0.086 C 
HETATM    9  C   UNL     1       8.265  29.408  55.526  1.00  0.00     0.014 C 
HETATM   10  C   UNL     1       9.261  28.385  56.099  1.00  0.00     0.003 C 
HETATM   11  C   UNL     1       8.863  27.571  57.336  1.00  0.00     0.027 C 
ENDROOT
BRANCH   1  12
HETATM   12  N   UNL     1       8.367  25.109  57.460  1.00  0.00    -0.337 N 
HETATM   13  C   UNL     1       8.285  23.877  56.889  1.00  0.00     0.321 C 
HETATM   14  N   UNL     1       7.709  23.809  55.660  1.00  0.00    -0.305 N 
HETATM   15  O   UNL     1       8.774  22.951  57.526  1.00  0.00    -0.247 OA
HETATM   16  H   UNL     1       7.151  24.596  55.372  1.00  0.00     0.171 HD
HETATM   17  H   UNL     1       8.791  25.020  58.377  1.00  0.00     0.164 HD
BRANCH  14  18
HETATM   18  C   UNL     1       7.726  22.728  54.786  1.00  0.00     0.094 A 
HETATM   19  C   UNL     1       7.842  22.824  53.365  1.00  0.00     0.087 A 
HETATM   20  C   UNL     1       7.975  24.037  52.527  1.00  0.00     0.075 C 
HETATM   21  N   UNL     1       7.859  21.619  52.787  1.00  0.00    -0.131 NA
HETATM   22  O   UNL     1       7.755  20.713  53.817  1.00  0.00    -0.216 OA
HETATM   23  C   UNL     1       7.684  21.367  55.011  1.00  0.00     0.103 A 
HETATM   24  C   UNL     1       7.585  20.472  56.180  1.00  0.00     0.081 C 
ENDBRANCH  14  18
ENDBRANCH   1  12
BRANCH   8  25
HETATM   25  C   UNL     1       7.094  27.852  53.836  1.00  0.00     0.222 C 
HETATM   26  N   UNL     1       6.098  27.739  52.899  1.00  0.00    -0.356 N 
HETATM   27  H   UNL     1       5.200  28.193  53.048  1.00  0.00     0.162 HD
HETATM   28  O   UNL     1       8.117  27.170  53.775  1.00  0.00    -0.273 OA
BRANCH  26  29
HETATM   29  C   UNL     1       6.155  26.769  51.828  1.00  0.00     0.161 C 
BRANCH  29  30
HETATM   30  C   UNL     1       5.329  27.175  50.635  1.00  0.00    -0.035 A 
HETATM   31  C   UNL     1       5.201  28.520  50.264  1.00  0.00     0.051 A 
HETATM   32  C   UNL     1       4.417  28.868  49.164  1.00  0.00     0.119 A 
HETATM   33  F   UNL     1       4.300  30.159  48.827  1.00  0.00    -0.206 F 
HETATM   34  C   UNL     1       3.750  27.906  48.419  1.00  0.00     0.084 A 
HETATM   35  C   UNL     1       3.872  26.575  48.789  1.00  0.00     0.119 A 
HETATM   36  F   UNL     1       3.237  25.631  48.086  1.00  0.00    -0.206 F 
HETATM   37  C   UNL     1       4.648  26.203  49.885  1.00  0.00     0.051 A 
ENDBRANCH  29  30
ENDBRANCH  26  29
ENDBRANCH   8  25
TORSDOF 5
ENDMDL
MODEL 8
REMARK VINA RESULT:      -8.4      4.635      6.501
REMARK  5 active torsions:
REMARK  status: ('A' for Active; 'I' for Inactive)
REMARK    1  A    between atoms: C_7  and  N_8 
REMARK       I    between atoms: N_8  and  C_9 
REMARK       I    between atoms: C_9  and  N_10 
REMARK    2  A    between atoms: N_10  and  C_11 
REMARK    3  A    between atoms: C_18  and  C_19 
REMARK       I    between atoms: C_19  and  N_20 
REMARK    4  A    between atoms: N_20  and  C_21 
REMARK    5  A    between atoms: C_21  and  C_22 
ROOT
HETATM    1  C   UNL     1       3.998  31.434  49.806  1.00  0.00     0.104 C 
HETATM    2  C   UNL     1       2.821  31.325  48.799  1.00  0.00     0.150 C 
HETATM    3  N   UNL     1       1.822  30.349  49.223  1.00  0.00    -0.354 N 
HETATM    4  C   UNL     1       0.644  30.876  49.896  1.00  0.00     0.152 C 
HETATM    5  C   UNL     1       1.980  28.984  49.097  1.00  0.00     0.220 C 
HETATM    6  O   UNL     1       1.158  28.173  49.535  1.00  0.00    -0.273 OA
HETATM    7  C   UNL     1       3.233  28.449  48.431  1.00  0.00     0.117 C 
HETATM    8  C   UNL     1       4.399  28.028  49.341  1.00  0.00     0.086 C 
HETATM    9  C   UNL     1       5.737  28.687  48.907  1.00  0.00     0.014 C 
HETATM   10  C   UNL     1       6.164  30.064  49.448  1.00  0.00     0.003 C 
HETATM   11  C   UNL     1       5.344  31.301  49.063  1.00  0.00     0.027 C 
ENDROOT
BRANCH   1  12
HETATM   12  N   UNL     1       3.876  32.695  50.554  1.00  0.00    -0.337 N 
HETATM   13  C   UNL     1       3.347  32.997  51.771  1.00  0.00     0.321 C 
HETATM   14  N   UNL     1       2.909  31.955  52.523  1.00  0.00    -0.305 N 
HETATM   15  O   UNL     1       3.351  34.182  52.084  1.00  0.00    -0.247 OA
HETATM   16  H   UNL     1       2.753  31.081  52.049  1.00  0.00     0.171 HD
HETATM   17  H   UNL     1       4.141  33.555  50.087  1.00  0.00     0.164 HD
BRANCH  14  18
HETATM   18  C   UNL     1       2.559  31.982  53.869  1.00  0.00     0.094 A 
HETATM   19  C   UNL     1       3.184  31.209  54.895  1.00  0.00     0.087 A 
HETATM   20  C   UNL     1       4.304  30.248  54.778  1.00  0.00     0.075 C 
HETATM   21  N   UNL     1       2.658  31.463  56.097  1.00  0.00    -0.131 NA
HETATM   22  O   UNL     1       1.681  32.407  55.881  1.00  0.00    -0.216 OA
HETATM   23  C   UNL     1       1.622  32.727  54.557  1.00  0.00     0.103 A 
HETATM   24  C   UNL     1       0.607  33.748  54.231  1.00  0.00     0.081 C 
ENDBRANCH  14  18
ENDBRANCH   1  12
BRANCH   8  25
HETATM   25  C   UNL     1       4.210  27.997  50.867  1.00  0.00     0.222 C 
HETATM   26  N   UNL     1       4.603  26.849  51.507  1.00  0.00    -0.356 N 
HETATM   27  H   UNL     1       4.771  25.998  50.977  1.00  0.00     0.162 HD
HETATM   28  O   UNL     1       3.822  28.984  51.492  1.00  0.00    -0.273 OA
BRANCH  26  29
HETATM   29  C   UNL     1       4.520  26.703  52.943  1.00  0.00     0.161 C 
BRANCH  29  30
HETATM   30  C   UNL     1       5.478  25.669  53.476  1.00  0.00    -0.035 A 
HETATM   31  C   UNL     1       5.621  25.452  54.853  1.00  0.00     0.051 A 
HETATM   32  C   UNL     1       6.527  24.499  55.319  1.00  0.00     0.119 A 
HETATM   33  F   UNL     1       6.657  24.309  56.638  1.00  0.00    -0.206 F 
HETATM   34  C   UNL     1       7.302  23.751  54.443  1.00  0.00     0.084 A 
HETATM   35  C   UNL     1       7.165  23.970  53.081  1.00  0.00     0.119 A 
HETATM   36  F   UNL     1       7.904  23.262  52.219  1.00  0.00    -0.206 F 
HETATM   37  C   UNL     1       6.268  24.917  52.592  1.00  0.00     0.051 A 
ENDBRANCH  29  30
ENDBRANCH  26  29
ENDBRANCH   8  25
TORSDOF 5
ENDMDL
MODEL 9
REMARK VINA RESULT:      -8.2      4.032      6.149
REMARK  5 active torsions:
REMARK  status: ('A' for Active; 'I' for Inactive)
REMARK    1  A    between atoms: C_7  and  N_8 
REMARK       I    between atoms: N_8  and  C_9 
REMARK       I    between atoms: C_9  and  N_10 
REMARK    2  A    between atoms: N_10  and  C_11 
REMARK    3  A    between atoms: C_18  and  C_19 
REMARK       I    between atoms: C_19  and  N_20 
REMARK    4  A    between atoms: N_20  and  C_21 
REMARK    5  A    between atoms: C_21  and  C_22 
ROOT
HETATM    1  C   UNL     1       6.830  29.057  57.228  1.00  0.00     0.104 C 
HETATM    2  C   UNL     1       6.940  27.730  58.028  1.00  0.00     0.150 C 
HETATM    3  N   UNL     1       7.252  26.593  57.167  1.00  0.00    -0.354 N 
HETATM    4  C   UNL     1       8.648  26.185  57.112  1.00  0.00     0.152 C 
HETATM    5  C   UNL     1       6.326  25.963  56.362  1.00  0.00     0.220 C 
HETATM    6  O   UNL     1       6.628  25.054  55.582  1.00  0.00    -0.273 OA
HETATM    7  C   UNL     1       4.883  26.428  56.400  1.00  0.00     0.117 C 
HETATM    8  C   UNL     1       4.432  27.437  55.331  1.00  0.00     0.086 C 
HETATM    9  C   UNL     1       3.728  28.670  55.961  1.00  0.00     0.014 C 
HETATM   10  C   UNL     1       4.528  29.907  56.407  1.00  0.00     0.003 C 
HETATM   11  C   UNL     1       5.510  29.777  57.577  1.00  0.00     0.027 C 
ENDROOT
BRANCH   1  12
HETATM   12  N   UNL     1       8.021  29.879  57.493  1.00  0.00    -0.337 N 
HETATM   13  C   UNL     1       8.341  30.743  58.495  1.00  0.00     0.321 C 
HETATM   14  N   UNL     1       7.459  30.838  59.524  1.00  0.00    -0.305 N 
HETATM   15  O   UNL     1       9.413  31.325  58.386  1.00  0.00    -0.247 OA
HETATM   16  H   UNL     1       6.529  30.488  59.365  1.00  0.00     0.171 HD
HETATM   17  H   UNL     1       8.742  29.919  56.781  1.00  0.00     0.164 HD
BRANCH  14  18
HETATM   18  C   UNL     1       7.671  31.456  60.753  1.00  0.00     0.094 A 
HETATM   19  C   UNL     1       6.907  32.550  61.262  1.00  0.00     0.087 A 
HETATM   20  C   UNL     1       5.758  33.247  60.640  1.00  0.00     0.075 C 
HETATM   21  N   UNL     1       7.318  32.917  62.480  1.00  0.00    -0.131 NA
HETATM   22  O   UNL     1       8.358  32.070  62.789  1.00  0.00    -0.216 OA
HETATM   23  C   UNL     1       8.567  31.191  61.768  1.00  0.00     0.103 A 
HETATM   24  C   UNL     1       9.659  30.230  62.018  1.00  0.00     0.081 C 
ENDBRANCH  14  18
ENDBRANCH   1  12
BRANCH   8  25
HETATM   25  C   UNL     1       5.378  27.808  54.177  1.00  0.00     0.222 C 
HETATM   26  N   UNL     1       5.528  26.871  53.186  1.00  0.00    -0.356 N 
HETATM   27  H   UNL     1       5.230  25.910  53.338  1.00  0.00     0.162 HD
HETATM   28  O   UNL     1       5.893  28.922  54.094  1.00  0.00    -0.273 OA
BRANCH  26  29
HETATM   29  C   UNL     1       6.355  27.107  52.023  1.00  0.00     0.161 C 
BRANCH  29  30
HETATM   30  C   UNL     1       5.546  27.258  50.760  1.00  0.00    -0.035 A 
HETATM   31  C   UNL     1       5.444  28.494  50.107  1.00  0.00     0.051 A 
HETATM   32  C   UNL     1       4.676  28.609  48.948  1.00  0.00     0.119 A 
HETATM   33  F   UNL     1       4.583  29.799  48.340  1.00  0.00    -0.206 F 
HETATM   34  C   UNL     1       4.001  27.518  48.418  1.00  0.00     0.084 A 
HETATM   35  C   UNL     1       4.098  26.297  49.067  1.00  0.00     0.119 A 
HETATM   36  F   UNL     1       3.454  25.232  48.574  1.00  0.00    -0.206 F 
HETATM   37  C   UNL     1       4.857  26.158  50.227  1.00  0.00     0.051 A 
ENDBRANCH  29  30
ENDBRANCH  26  29
ENDBRANCH   8  25
TORSDOF 5
ENDMDL
MODEL 10
REMARK VINA RESULT:      -8.2      5.204      8.487
REMARK  5 active torsions:
REMARK  status: ('A' for Active; 'I' for Inactive)
REMARK    1  A    between atoms: C_7  and  N_8 
REMARK       I    between atoms: N_8  and  C_9 
REMARK       I    between atoms: C_9  and  N_10 
REMARK    2  A    between atoms: N_10  and  C_11 
REMARK    3  A    between atoms: C_18  and  C_19 
REMARK       I    between atoms: C_19  and  N_20 
REMARK    4  A    between atoms: N_20  and  C_21 
REMARK    5  A    between atoms: C_21  and  C_22 
ROOT
HETATM    1  C   UNL     1       5.061  29.014  56.247  1.00  0.00     0.104 C 
HETATM    2  C   UNL     1       4.756  28.089  55.038  1.00  0.00     0.150 C 
HETATM    3  N   UNL     1       5.202  28.669  53.775  1.00  0.00    -0.354 N 
HETATM    4  C   UNL     1       6.485  28.208  53.266  1.00  0.00     0.152 C 
HETATM    5  C   UNL     1       4.524  29.669  53.107  1.00  0.00     0.220 C 
HETATM    6  O   UNL     1       4.960  30.201  52.082  1.00  0.00    -0.273 OA
HETATM    7  C   UNL     1       3.210  30.169  53.673  1.00  0.00     0.117 C 
HETATM    8  C   UNL     1       3.247  31.427  54.556  1.00  0.00     0.086 C 
HETATM    9  C   UNL     1       2.518  31.204  55.910  1.00  0.00     0.014 C 
HETATM   10  C   UNL     1       3.262  30.648  57.137  1.00  0.00     0.003 C 
HETATM   11  C   UNL     1       3.789  29.208  57.099  1.00  0.00     0.027 C 
ENDROOT
BRANCH   1  12
HETATM   12  N   UNL     1       6.184  28.451  57.012  1.00  0.00    -0.337 N 
HETATM   13  C   UNL     1       7.256  29.019  57.630  1.00  0.00     0.321 C 
HETATM   14  N   UNL     1       7.301  30.377  57.650  1.00  0.00    -0.305 N 
HETATM   15  O   UNL     1       8.059  28.247  58.141  1.00  0.00    -0.247 OA
HETATM   16  H   UNL     1       6.710  30.865  56.997  1.00  0.00     0.171 HD
HETATM   17  H   UNL     1       6.282  27.442  57.045  1.00  0.00     0.164 HD
BRANCH  14  18
HETATM   18  C   UNL     1       8.148  31.176  58.411  1.00  0.00     0.094 A 
HETATM   19  C   UNL     1       7.728  32.038  59.470  1.00  0.00     0.087 A 
HETATM   20  C   UNL     1       6.362  32.268  59.991  1.00  0.00     0.075 C 
HETATM   21  N   UNL     1       8.764  32.660  60.042  1.00  0.00    -0.131 NA
HETATM   22  O   UNL     1       9.879  32.217  59.369  1.00  0.00    -0.216 OA
HETATM   23  C   UNL     1       9.520  31.325  58.401  1.00  0.00     0.103 A 
HETATM   24  C   UNL     1      10.657  30.783  57.634  1.00  0.00     0.081 C 
ENDBRANCH  14  18
ENDBRANCH   1  12
BRANCH   8  25
HETATM   25  C   UNL     1       4.552  32.227  54.699  1.00  0.00     0.222 C 
HETATM   26  N   UNL     1       4.685  33.327  53.890  1.00  0.00    -0.356 N 
HETATM   27  H   UNL     1       4.073  33.450  53.086  1.00  0.00     0.162 HD
HETATM   28  O   UNL     1       5.387  31.955  55.561  1.00  0.00    -0.273 OA
BRANCH  26  29
HETATM   29  C   UNL     1       5.843  34.191  53.951  1.00  0.00     0.161 C 
BRANCH  29  30
HETATM   30  C   UNL     1       6.235  34.729  52.599  1.00  0.00    -0.035 A 
HETATM   31  C   UNL     1       5.854  34.076  51.419  1.00  0.00     0.051 A 
HETATM   32  C   UNL     1       6.244  34.589  50.181  1.00  0.00     0.119 A 
HETATM   33  F   UNL     1       5.877  33.948  49.063  1.00  0.00    -0.206 F 
HETATM   34  C   UNL     1       7.011  35.741  50.086  1.00  0.00     0.084 A 
HETATM   35  C   UNL     1       7.393  36.384  51.254  1.00  0.00     0.119 A 
HETATM   36  F   UNL     1       8.134  37.496  51.185  1.00  0.00    -0.206 F 
HETATM   37  C   UNL     1       7.017  35.891  52.501  1.00  0.00     0.051 A 
ENDBRANCH  29  30
ENDBRANCH  26  29
ENDBRANCH   8  25
TORSDOF 5
ENDMDL
