MODEL 1
REMARK VINA RESULT:     -10.2      0.000      0.000
REMARK  4 active torsions:
REMARK  status: ('A' for Active; 'I' for Inactive)
REMARK    1  A    between atoms: C_9  and  C_10 
REMARK    2  A    between atoms: C_20  and  C_21 
REMARK       I    between atoms: C_21  and  N_22 
REMARK    3  A    between atoms: N_22  and  C_23 
REMARK    4  A    between atoms: C_24  and  O_25 
ROOT
HETATM    1  C   UNL     1       3.801  30.405  55.683  1.00  0.00     0.070 C 
HETATM    2  C   UNL     1       5.127  29.692  55.778  1.00  0.00     0.037 C 
HETATM    3  N   UNL     1       5.933  30.052  56.856  1.00  0.00    -0.192 N 
HETATM    4  C   UNL     1       7.253  29.774  56.893  1.00  0.00     0.725 A 
HETATM    5  N   UNL     1       7.782  28.904  55.977  1.00  0.00    -0.084 N 
HETATM    6  N   UNL     1       9.124  28.825  56.094  1.00  0.00    -0.149 NA
HETATM    7  C   UNL     1       9.327  29.634  57.140  1.00  0.00     0.275 A 
HETATM    8  N   UNL     1       8.207  30.233  57.662  1.00  0.00    -0.054 NA
HETATM    9  C   UNL     1       6.986  28.197  54.963  1.00  0.00     0.203 C 
HETATM   10  C   UNL     1       5.596  28.810  54.857  1.00  0.00     0.062 C 
HETATM   11  H   UNL     1       5.596  30.803  57.455  1.00  0.00     0.184 HD
ENDROOT
BRANCH  10  12
HETATM   12  C   UNL     1       4.882  28.529  53.590  1.00  0.00     0.256 C 
HETATM   13  N   UNL     1       5.619  28.811  52.468  1.00  0.00    -0.321 N 
HETATM   14  H   UNL     1       6.479  29.342  52.568  1.00  0.00     0.169 HD
HETATM   15  O   UNL     1       3.735  28.100  53.643  1.00  0.00    -0.267 OA
BRANCH  13  16
HETATM   16  C   UNL     1       5.350  28.403  51.141  1.00  0.00     0.068 A 
HETATM   17  C   UNL     1       5.629  29.326  50.111  1.00  0.00     0.095 A 
HETATM   18  C   UNL     1       5.461  28.950  48.774  1.00  0.00     0.039 A 
HETATM   19  C   UNL     1       5.003  27.671  48.458  1.00  0.00     0.003 A 
HETATM   20  C   UNL     1       4.710  26.764  49.474  1.00  0.00     0.002 A 
HETATM   21  C   UNL     1       4.882  27.128  50.811  1.00  0.00     0.032 A 
BRANCH  17  22
HETATM   22  O   UNL     1       6.091  30.557  50.520  1.00  0.00    -0.354 OA
HETATM   23  C   UNL     1       6.111  31.575  49.524  1.00  0.00     0.210 C 
ENDBRANCH  17  22
ENDBRANCH  13  16
ENDBRANCH  10  12
BRANCH   9  24
HETATM   24  C   UNL     1       6.935  26.699  55.307  1.00  0.00    -0.017 A 
HETATM   25  C   UNL     1       7.274  25.678  54.366  1.00  0.00    -0.017 A 
HETATM   26  C   UNL     1       7.264  24.325  54.802  1.00  0.00    -0.025 A 
HETATM   27  C   UNL     1       7.630  25.911  53.014  1.00  0.00     0.013 A 
HETATM   28  C   UNL     1       7.620  23.290  53.922  1.00  0.00     0.012 A 
HETATM   29  C   UNL     1       6.907  24.006  56.118  1.00  0.00     0.012 A 
HETATM   30  C   UNL     1       7.977  23.558  52.604  1.00  0.00     0.001 A 
HETATM   31  C   UNL     1       7.977  24.867  52.149  1.00  0.00     0.001 A 
HETATM   32  C   UNL     1       6.553  24.998  57.023  1.00  0.00     0.002 A 
HETATM   33  C   UNL     1       6.566  26.328  56.622  1.00  0.00     0.010 A 
ENDBRANCH   9  24
TORSDOF 4
ENDMDL
MODEL 2
REMARK VINA RESULT:      -9.5      1.712      2.083
REMARK  4 active torsions:
REMARK  status: ('A' for Active; 'I' for Inactive)
REMARK    1  A    between atoms: C_9  and  C_10 
REMARK    2  A    between atoms: C_20  and  C_21 
REMARK       I    between atoms: C_21  and  N_22 
REMARK    3  A    between atoms: N_22  and  C_23 
REMARK    4  A    between atoms: C_24  and  O_25 
ROOT
HETATM    1  C   UNL     1       4.831  30.595  57.695  1.00  0.00     0.070 C 
HETATM    2  C   UNL     1       6.118  29.948  57.248  1.00  0.00     0.037 C 
HETATM    3  N   UNL     1       7.253  30.284  57.983  1.00  0.00    -0.192 N 
HETATM    4  C   UNL     1       8.502  30.074  57.517  1.00  0.00     0.725 A 
HETATM    5  N   UNL     1       8.682  29.289  56.409  1.00  0.00    -0.084 N 
HETATM    6  N   UNL     1       9.975  29.273  56.023  1.00  0.00    -0.149 NA
HETATM    7  C   UNL     1      10.525  30.028  56.982  1.00  0.00     0.275 A 
HETATM    8  N   UNL     1       9.659  30.534  57.918  1.00  0.00    -0.054 NA
HETATM    9  C   UNL     1       7.589  28.603  55.703  1.00  0.00     0.203 C 
HETATM   10  C   UNL     1       6.240  29.149  56.157  1.00  0.00     0.062 C 
HETATM   11  H   UNL     1       7.139  30.979  58.718  1.00  0.00     0.184 HD
ENDROOT
BRANCH  10  12
HETATM   12  C   UNL     1       5.119  28.908  55.219  1.00  0.00     0.256 C 
HETATM   13  N   UNL     1       5.240  29.583  54.031  1.00  0.00    -0.321 N 
HETATM   14  H   UNL     1       5.945  30.310  53.950  1.00  0.00     0.169 HD
HETATM   15  O   UNL     1       4.207  28.169  55.569  1.00  0.00    -0.267 OA
BRANCH  13  16
HETATM   16  C   UNL     1       4.511  29.360  52.840  1.00  0.00     0.068 A 
HETATM   17  C   UNL     1       3.447  30.242  52.557  1.00  0.00     0.095 A 
HETATM   18  C   UNL     1       2.743  30.121  51.354  1.00  0.00     0.039 A 
HETATM   19  C   UNL     1       3.081  29.121  50.442  1.00  0.00     0.003 A 
HETATM   20  C   UNL     1       4.120  28.238  50.727  1.00  0.00     0.002 A 
HETATM   21  C   UNL     1       4.832  28.356  51.922  1.00  0.00     0.032 A 
BRANCH  17  22
HETATM   22  O   UNL     1       3.200  31.205  53.509  1.00  0.00    -0.354 OA
HETATM   23  C   UNL     1       2.643  32.425  53.029  1.00  0.00     0.210 C 
ENDBRANCH  17  22
ENDBRANCH  13  16
ENDBRANCH  10  12
BRANCH   9  24
HETATM   24  C   UNL     1       7.706  27.087  55.929  1.00  0.00    -0.017 A 
HETATM   25  C   UNL     1       7.682  26.143  54.857  1.00  0.00    -0.017 A 
HETATM   26  C   UNL     1       7.870  24.766  55.163  1.00  0.00    -0.025 A 
HETATM   27  C   UNL     1       7.487  26.472  53.493  1.00  0.00     0.013 A 
HETATM   28  C   UNL     1       7.885  23.804  54.140  1.00  0.00     0.012 A 
HETATM   29  C   UNL     1       8.052  24.352  56.488  1.00  0.00     0.012 A 
HETATM   30  C   UNL     1       7.703  24.168  52.809  1.00  0.00     0.001 A 
HETATM   31  C   UNL     1       7.500  25.501  52.487  1.00  0.00     0.001 A 
HETATM   32  C   UNL     1       8.049  25.270  57.530  1.00  0.00     0.002 A 
HETATM   33  C   UNL     1       7.878  26.621  57.255  1.00  0.00     0.010 A 
ENDBRANCH   9  24
TORSDOF 4
ENDMDL
MODEL 3
REMARK VINA RESULT:      -9.5      2.891      6.545
REMARK  4 active torsions:
REMARK  status: ('A' for Active; 'I' for Inactive)
REMARK    1  A    between atoms: C_9  and  C_10 
REMARK    2  A    between atoms: C_20  and  C_21 
REMARK       I    between atoms: C_21  and  N_22 
REMARK    3  A    between atoms: N_22  and  C_23 
REMARK    4  A    between atoms: C_24  and  O_25 
ROOT
HETATM    1  C   UNL     1       4.690  24.208  51.793  1.00  0.00     0.070 C 
HETATM    2  C   UNL     1       5.101  25.604  52.186  1.00  0.00     0.037 C 
HETATM    3  N   UNL     1       4.261  26.628  51.753  1.00  0.00    -0.192 N 
HETATM    4  C   UNL     1       4.655  27.919  51.721  1.00  0.00     0.725 A 
HETATM    5  N   UNL     1       5.813  28.283  52.355  1.00  0.00    -0.084 N 
HETATM    6  N   UNL     1       6.106  29.581  52.132  1.00  0.00    -0.149 NA
HETATM    7  C   UNL     1       5.049  29.950  51.400  1.00  0.00     0.275 A 
HETATM    8  N   UNL     1       4.135  28.963  51.128  1.00  0.00    -0.054 NA
HETATM    9  C   UNL     1       6.652  27.355  53.128  1.00  0.00     0.203 C 
HETATM   10  C   UNL     1       6.247  25.914  52.845  1.00  0.00     0.062 C 
HETATM   11  H   UNL     1       3.478  26.364  51.159  1.00  0.00     0.184 HD
ENDROOT
BRANCH  10  12
HETATM   12  C   UNL     1       7.279  24.900  53.163  1.00  0.00     0.256 C 
HETATM   13  N   UNL     1       6.906  24.024  54.151  1.00  0.00    -0.321 N 
HETATM   14  H   UNL     1       6.078  24.233  54.703  1.00  0.00     0.169 HD
HETATM   15  O   UNL     1       8.342  24.931  52.555  1.00  0.00    -0.267 OA
BRANCH  13  16
HETATM   16  C   UNL     1       7.522  22.798  54.488  1.00  0.00     0.068 A 
HETATM   17  C   UNL     1       7.884  22.604  55.838  1.00  0.00     0.095 A 
HETATM   18  C   UNL     1       8.422  21.378  56.246  1.00  0.00     0.039 A 
HETATM   19  C   UNL     1       8.616  20.355  55.318  1.00  0.00     0.003 A 
HETATM   20  C   UNL     1       8.277  20.550  53.982  1.00  0.00     0.002 A 
HETATM   21  C   UNL     1       7.733  21.767  53.567  1.00  0.00     0.032 A 
BRANCH  17  22
HETATM   22  O   UNL     1       7.639  23.664  56.681  1.00  0.00    -0.354 OA
HETATM   23  C   UNL     1       8.783  24.238  57.305  1.00  0.00     0.210 C 
ENDBRANCH  17  22
ENDBRANCH  13  16
ENDBRANCH  10  12
BRANCH   9  24
HETATM   24  C   UNL     1       6.553  27.702  54.623  1.00  0.00    -0.017 A 
HETATM   25  C   UNL     1       7.600  28.369  55.332  1.00  0.00    -0.017 A 
HETATM   26  C   UNL     1       7.384  28.711  56.695  1.00  0.00    -0.025 A 
HETATM   27  C   UNL     1       8.852  28.727  54.775  1.00  0.00     0.013 A 
HETATM   28  C   UNL     1       8.371  29.393  57.424  1.00  0.00     0.012 A 
HETATM   29  C   UNL     1       6.179  28.377  57.328  1.00  0.00     0.012 A 
HETATM   30  C   UNL     1       9.585  29.740  56.839  1.00  0.00     0.001 A 
HETATM   31  C   UNL     1       9.827  29.403  55.517  1.00  0.00     0.001 A 
HETATM   32  C   UNL     1       5.175  27.706  56.644  1.00  0.00     0.002 A 
HETATM   33  C   UNL     1       5.359  27.372  55.308  1.00  0.00     0.010 A 
ENDBRANCH   9  24
TORSDOF 4
ENDMDL
MODEL 4
REMARK VINA RESULT:      -8.9      3.337      6.537
REMARK  4 active torsions:
REMARK  status: ('A' for Active; 'I' for Inactive)
REMARK    1  A    between atoms: C_9  and  C_10 
REMARK    2  A    between atoms: C_20  and  C_21 
REMARK       I    between atoms: C_21  and  N_22 
REMARK    3  A    between atoms: N_22  and  C_23 
REMARK    4  A    between atoms: C_24  and  O_25 
ROOT
HETATM    1  C   UNL     1       4.655  28.016  54.108  1.00  0.00     0.070 C 
HETATM    2  C   UNL     1       5.708  27.770  55.160  1.00  0.00     0.037 C 
HETATM    3  N   UNL     1       6.392  26.560  55.060  1.00  0.00    -0.192 N 
HETATM    4  C   UNL     1       7.099  26.045  56.088  1.00  0.00     0.725 A 
HETATM    5  N   UNL     1       7.366  26.830  57.179  1.00  0.00    -0.084 N 
HETATM    6  N   UNL     1       7.986  26.126  58.149  1.00  0.00    -0.149 NA
HETATM    7  C   UNL     1       8.110  24.936  57.549  1.00  0.00     0.275 A 
HETATM    8  N   UNL     1       7.583  24.845  56.285  1.00  0.00    -0.054 NA
HETATM    9  C   UNL     1       6.971  28.241  57.291  1.00  0.00     0.203 C 
HETATM   10  C   UNL     1       5.959  28.595  56.208  1.00  0.00     0.062 C 
HETATM   11  H   UNL     1       6.091  25.917  54.331  1.00  0.00     0.184 HD
ENDROOT
BRANCH  10  12
HETATM   12  C   UNL     1       5.138  29.797  56.487  1.00  0.00     0.256 C 
HETATM   13  N   UNL     1       5.537  30.910  55.790  1.00  0.00    -0.321 N 
HETATM   14  H   UNL     1       6.431  30.891  55.308  1.00  0.00     0.169 HD
HETATM   15  O   UNL     1       4.218  29.709  57.291  1.00  0.00    -0.267 OA
BRANCH  13  16
HETATM   16  C   UNL     1       4.818  32.114  55.613  1.00  0.00     0.068 A 
HETATM   17  C   UNL     1       4.950  33.101  56.612  1.00  0.00     0.095 A 
HETATM   18  C   UNL     1       4.328  34.344  56.450  1.00  0.00     0.039 A 
HETATM   19  C   UNL     1       3.564  34.602  55.311  1.00  0.00     0.003 A 
HETATM   20  C   UNL     1       3.417  33.623  54.332  1.00  0.00     0.002 A 
HETATM   21  C   UNL     1       4.041  32.382  54.482  1.00  0.00     0.032 A 
BRANCH  17  22
HETATM   22  O   UNL     1       5.736  32.760  57.689  1.00  0.00    -0.354 OA
HETATM   23  C   UNL     1       5.106  32.830  58.964  1.00  0.00     0.210 C 
ENDBRANCH  17  22
ENDBRANCH  13  16
ENDBRANCH  10  12
BRANCH   9  24
HETATM   24  C   UNL     1       8.224  29.129  57.225  1.00  0.00    -0.017 A 
HETATM   25  C   UNL     1       8.554  30.075  58.245  1.00  0.00    -0.017 A 
HETATM   26  C   UNL     1       9.773  30.799  58.128  1.00  0.00    -0.025 A 
HETATM   27  C   UNL     1       7.755  30.350  59.382  1.00  0.00     0.013 A 
HETATM   28  C   UNL     1      10.155  31.716  59.120  1.00  0.00     0.012 A 
HETATM   29  C   UNL     1      10.613  30.600  57.026  1.00  0.00     0.012 A 
HETATM   30  C   UNL     1       9.350  31.950  60.231  1.00  0.00     0.001 A 
HETATM   31  C   UNL     1       8.149  31.271  60.359  1.00  0.00     0.001 A 
HETATM   32  C   UNL     1      10.277  29.700  56.023  1.00  0.00     0.002 A 
HETATM   33  C   UNL     1       9.096  28.974  56.121  1.00  0.00     0.010 A 
ENDBRANCH   9  24
TORSDOF 4
ENDMDL
MODEL 5
REMARK VINA RESULT:      -8.2      8.092     11.877
REMARK  4 active torsions:
REMARK  status: ('A' for Active; 'I' for Inactive)
REMARK    1  A    between atoms: C_9  and  C_10 
REMARK    2  A    between atoms: C_20  and  C_21 
REMARK       I    between atoms: C_21  and  N_22 
REMARK    3  A    between atoms: N_22  and  C_23 
REMARK    4  A    between atoms: C_24  and  O_25 
ROOT
HETATM    1  C   UNL     1       7.683  32.685  64.161  1.00  0.00     0.070 C 
HETATM    2  C   UNL     1       6.505  33.604  64.372  1.00  0.00     0.037 C 
HETATM    3  N   UNL     1       6.537  34.374  65.532  1.00  0.00    -0.192 N 
HETATM    4  C   UNL     1       5.434  34.971  66.032  1.00  0.00     0.725 A 
HETATM    5  N   UNL     1       4.301  35.039  65.264  1.00  0.00    -0.084 N 
HETATM    6  N   UNL     1       3.272  35.571  65.955  1.00  0.00    -0.149 NA
HETATM    7  C   UNL     1       3.875  35.851  67.117  1.00  0.00     0.275 A 
HETATM    8  N   UNL     1       5.199  35.503  67.204  1.00  0.00    -0.054 NA
HETATM    9  C   UNL     1       4.215  34.541  63.883  1.00  0.00     0.203 C 
HETATM   10  C   UNL     1       5.416  33.659  63.562  1.00  0.00     0.062 C 
HETATM   11  H   UNL     1       7.312  34.215  66.172  1.00  0.00     0.184 HD
ENDROOT
BRANCH  10  12
HETATM   12  C   UNL     1       5.225  32.732  62.423  1.00  0.00     0.256 C 
HETATM   13  N   UNL     1       5.755  33.192  61.244  1.00  0.00    -0.321 N 
HETATM   14  H   UNL     1       6.052  34.162  61.186  1.00  0.00     0.169 HD
HETATM   15  O   UNL     1       4.625  31.681  62.613  1.00  0.00    -0.267 OA
BRANCH  13  16
HETATM   16  C   UNL     1       5.990  32.451  60.063  1.00  0.00     0.068 A 
HETATM   17  C   UNL     1       7.324  32.087  59.782  1.00  0.00     0.095 A 
HETATM   18  C   UNL     1       7.608  31.284  58.672  1.00  0.00     0.039 A 
HETATM   19  C   UNL     1       6.577  30.857  57.834  1.00  0.00     0.003 A 
HETATM   20  C   UNL     1       5.262  31.232  58.098  1.00  0.00     0.002 A 
HETATM   21  C   UNL     1       4.969  32.026  59.208  1.00  0.00     0.032 A 
BRANCH  17  22
HETATM   22  O   UNL     1       8.269  32.541  60.675  1.00  0.00    -0.354 OA
HETATM   23  C   UNL     1       9.397  31.694  60.869  1.00  0.00     0.210 C 
ENDBRANCH  17  22
ENDBRANCH  13  16
ENDBRANCH  10  12
BRANCH   9  24
HETATM   24  C   UNL     1       4.095  35.730  62.917  1.00  0.00    -0.017 A 
HETATM   25  C   UNL     1       3.177  35.746  61.822  1.00  0.00    -0.017 A 
HETATM   26  C   UNL     1       3.089  36.922  61.028  1.00  0.00    -0.025 A 
HETATM   27  C   UNL     1       2.330  34.668  61.462  1.00  0.00     0.013 A 
HETATM   28  C   UNL     1       2.179  36.996  59.960  1.00  0.00     0.012 A 
HETATM   29  C   UNL     1       3.903  38.027  61.305  1.00  0.00     0.012 A 
HETATM   30  C   UNL     1       1.354  35.922  59.645  1.00  0.00     0.001 A 
HETATM   31  C   UNL     1       1.432  34.757  60.392  1.00  0.00     0.001 A 
HETATM   32  C   UNL     1       4.813  38.000  62.353  1.00  0.00     0.002 A 
HETATM   33  C   UNL     1       4.909  36.865  63.149  1.00  0.00     0.010 A 
ENDBRANCH   9  24
TORSDOF 4
ENDMDL
MODEL 6
REMARK VINA RESULT:      -8.0      8.792     12.538
REMARK  4 active torsions:
REMARK  status: ('A' for Active; 'I' for Inactive)
REMARK    1  A    between atoms: C_9  and  C_10 
REMARK    2  A    between atoms: C_20  and  C_21 
REMARK       I    between atoms: C_21  and  N_22 
REMARK    3  A    between atoms: N_22  and  C_23 
REMARK    4  A    between atoms: C_24  and  O_25 
ROOT
HETATM    1  C   UNL     1       4.230  36.873  58.665  1.00  0.00     0.070 C 
HETATM    2  C   UNL     1       4.248  35.555  59.398  1.00  0.00     0.037 C 
HETATM    3  N   UNL     1       4.075  34.420  58.610  1.00  0.00    -0.192 N 
HETATM    4  C   UNL     1       3.728  33.225  59.132  1.00  0.00     0.725 A 
HETATM    5  N   UNL     1       3.783  33.044  60.489  1.00  0.00    -0.084 N 
HETATM    6  N   UNL     1       3.304  31.833  60.842  1.00  0.00    -0.149 NA
HETATM    7  C   UNL     1       3.030  31.317  59.638  1.00  0.00     0.275 A 
HETATM    8  N   UNL     1       3.278  32.135  58.565  1.00  0.00    -0.054 NA
HETATM    9  C   UNL     1       4.253  34.068  61.435  1.00  0.00     0.203 C 
HETATM   10  C   UNL     1       4.337  35.425  60.747  1.00  0.00     0.062 C 
HETATM   11  H   UNL     1       3.891  34.568  57.620  1.00  0.00     0.184 HD
ENDROOT
BRANCH  10  12
HETATM   12  C   UNL     1       4.326  36.591  61.661  1.00  0.00     0.256 C 
HETATM   13  N   UNL     1       5.578  37.043  61.993  1.00  0.00    -0.321 N 
HETATM   14  H   UNL     1       6.383  36.467  61.763  1.00  0.00     0.169 HD
HETATM   15  O   UNL     1       3.247  37.031  62.040  1.00  0.00    -0.267 OA
BRANCH  13  16
HETATM   16  C   UNL     1       5.912  38.276  62.598  1.00  0.00     0.068 A 
HETATM   17  C   UNL     1       6.345  39.318  61.751  1.00  0.00     0.095 A 
HETATM   18  C   UNL     1       6.610  40.584  62.284  1.00  0.00     0.039 A 
HETATM   19  C   UNL     1       6.463  40.814  63.652  1.00  0.00     0.003 A 
HETATM   20  C   UNL     1       6.052  39.782  64.493  1.00  0.00     0.002 A 
HETATM   21  C   UNL     1       5.778  38.518  63.969  1.00  0.00     0.032 A 
BRANCH  17  22
HETATM   22  O   UNL     1       6.445  39.000  60.415  1.00  0.00    -0.354 OA
HETATM   23  C   UNL     1       5.998  39.999  59.504  1.00  0.00     0.210 C 
ENDBRANCH  17  22
ENDBRANCH  13  16
ENDBRANCH  10  12
BRANCH   9  24
HETATM   24  C   UNL     1       5.602  33.633  62.029  1.00  0.00    -0.017 A 
HETATM   25  C   UNL     1       5.914  33.768  63.417  1.00  0.00    -0.017 A 
HETATM   26  C   UNL     1       7.162  33.271  63.883  1.00  0.00    -0.025 A 
HETATM   27  C   UNL     1       5.064  34.362  64.383  1.00  0.00     0.013 A 
HETATM   28  C   UNL     1       7.500  33.353  65.243  1.00  0.00     0.012 A 
HETATM   29  C   UNL     1       8.070  32.685  62.991  1.00  0.00     0.012 A 
HETATM   30  C   UNL     1       6.633  33.931  66.165  1.00  0.00     0.001 A 
HETATM   31  C   UNL     1       5.418  34.440  65.734  1.00  0.00     0.001 A 
HETATM   32  C   UNL     1       7.775  32.579  61.638  1.00  0.00     0.002 A 
HETATM   33  C   UNL     1       6.557  33.048  61.162  1.00  0.00     0.010 A 
ENDBRANCH   9  24
TORSDOF 4
ENDMDL
MODEL 7
REMARK VINA RESULT:      -7.8      2.758      5.684
REMARK  4 active torsions:
REMARK  status: ('A' for Active; 'I' for Inactive)
REMARK    1  A    between atoms: C_9  and  C_10 
REMARK    2  A    between atoms: C_20  and  C_21 
REMARK       I    between atoms: C_21  and  N_22 
REMARK    3  A    between atoms: N_22  and  C_23 
REMARK    4  A    between atoms: C_24  and  O_25 
ROOT
HETATM    1  C   UNL     1       3.893  27.789  53.388  1.00  0.00     0.070 C 
HETATM    2  C   UNL     1       4.961  27.474  54.406  1.00  0.00     0.037 C 
HETATM    3  N   UNL     1       5.511  26.196  54.331  1.00  0.00    -0.192 N 
HETATM    4  C   UNL     1       6.206  25.650  55.351  1.00  0.00     0.725 A 
HETATM    5  N   UNL     1       6.602  26.444  56.396  1.00  0.00    -0.084 N 
HETATM    6  N   UNL     1       7.188  25.717  57.369  1.00  0.00    -0.149 NA
HETATM    7  C   UNL     1       7.161  24.499  56.816  1.00  0.00     0.275 A 
HETATM    8  N   UNL     1       6.571  24.414  55.580  1.00  0.00    -0.054 NA
HETATM    9  C   UNL     1       6.360  27.893  56.461  1.00  0.00     0.203 C 
HETATM   10  C   UNL     1       5.343  28.309  55.406  1.00  0.00     0.062 C 
HETATM   11  H   UNL     1       5.113  25.560  53.644  1.00  0.00     0.184 HD
ENDROOT
BRANCH  10  12
HETATM   12  C   UNL     1       4.665  29.601  55.665  1.00  0.00     0.256 C 
HETATM   13  N   UNL     1       5.171  30.645  54.933  1.00  0.00    -0.321 N 
HETATM   14  H   UNL     1       6.049  30.516  54.438  1.00  0.00     0.169 HD
HETATM   15  O   UNL     1       3.756  29.634  56.486  1.00  0.00    -0.267 OA
BRANCH  13  16
HETATM   16  C   UNL     1       4.585  31.916  54.735  1.00  0.00     0.068 A 
HETATM   17  C   UNL     1       4.050  32.190  53.459  1.00  0.00     0.095 A 
HETATM   18  C   UNL     1       3.385  33.400  53.227  1.00  0.00     0.039 A 
HETATM   19  C   UNL     1       3.265  34.340  54.250  1.00  0.00     0.003 A 
HETATM   20  C   UNL     1       3.809  34.079  55.506  1.00  0.00     0.002 A 
HETATM   21  C   UNL     1       4.467  32.872  55.748  1.00  0.00     0.032 A 
BRANCH  17  22
HETATM   22  O   UNL     1       4.203  31.195  52.519  1.00  0.00    -0.354 OA
HETATM   23  C   UNL     1       3.056  30.909  51.726  1.00  0.00     0.210 C 
ENDBRANCH  17  22
ENDBRANCH  13  16
ENDBRANCH  10  12
BRANCH   9  24
HETATM   24  C   UNL     1       7.695  28.640  56.307  1.00  0.00    -0.017 A 
HETATM   25  C   UNL     1       8.277  29.408  57.363  1.00  0.00    -0.017 A 
HETATM   26  C   UNL     1       9.550  30.003  57.145  1.00  0.00    -0.025 A 
HETATM   27  C   UNL     1       7.681  29.621  58.630  1.00  0.00     0.013 A 
HETATM   28  C   UNL     1      10.176  30.740  58.163  1.00  0.00     0.012 A 
HETATM   29  C   UNL     1      10.201  29.856  55.914  1.00  0.00     0.012 A 
HETATM   30  C   UNL     1       9.565  30.917  59.401  1.00  0.00     0.001 A 
HETATM   31  C   UNL     1       8.316  30.362  59.633  1.00  0.00     0.001 A 
HETATM   32  C   UNL     1       9.621  29.132  54.881  1.00  0.00     0.002 A 
HETATM   33  C   UNL     1       8.383  28.532  55.074  1.00  0.00     0.010 A 
ENDBRANCH   9  24
TORSDOF 4
ENDMDL
MODEL 8
REMARK VINA RESULT:      -7.7      1.681      2.135
REMARK  4 active torsions:
REMARK  status: ('A' for Active; 'I' for Inactive)
REMARK    1  A    between atoms: C_9  and  C_10 
REMARK    2  A    between atoms: C_20  and  C_21 
REMARK       I    between atoms: C_21  and  N_22 
REMARK    3  A    between atoms: N_22  and  C_23 
REMARK    4  A    between atoms: C_24  and  O_25 
ROOT
HETATM    1  C   UNL     1       3.445  31.000  54.480  1.00  0.00     0.070 C 
HETATM    2  C   UNL     1       4.599  30.187  55.011  1.00  0.00     0.037 C 
HETATM    3  N   UNL     1       4.979  30.461  56.323  1.00  0.00    -0.192 N 
HETATM    4  C   UNL     1       6.176  30.083  56.821  1.00  0.00     0.725 A 
HETATM    5  N   UNL     1       6.947  29.196  56.116  1.00  0.00    -0.084 N 
HETATM    6  N   UNL     1       8.147  29.014  56.704  1.00  0.00    -0.149 NA
HETATM    7  C   UNL     1       8.006  29.781  57.791  1.00  0.00     0.275 A 
HETATM    8  N   UNL     1       6.813  30.450  57.903  1.00  0.00    -0.054 NA
HETATM    9  C   UNL     1       6.531  28.574  54.850  1.00  0.00     0.203 C 
HETATM   10  C   UNL     1       5.314  29.294  54.280  1.00  0.00     0.062 C 
HETATM   11  H   UNL     1       4.496  31.221  56.796  1.00  0.00     0.184 HD
ENDROOT
BRANCH  10  12
HETATM   12  C   UNL     1       5.093  29.097  52.829  1.00  0.00     0.256 C 
HETATM   13  N   UNL     1       3.792  28.803  52.505  1.00  0.00    -0.321 N 
HETATM   14  H   UNL     1       3.145  28.561  53.250  1.00  0.00     0.169 HD
HETATM   15  O   UNL     1       6.048  29.195  52.069  1.00  0.00    -0.267 OA
BRANCH  13  16
HETATM   16  C   UNL     1       3.200  28.834  51.222  1.00  0.00     0.068 A 
HETATM   17  C   UNL     1       3.488  27.765  50.348  1.00  0.00     0.095 A 
HETATM   18  C   UNL     1       2.866  27.700  49.097  1.00  0.00     0.039 A 
HETATM   19  C   UNL     1       1.975  28.699  48.705  1.00  0.00     0.003 A 
HETATM   20  C   UNL     1       1.702  29.766  49.558  1.00  0.00     0.002 A 
HETATM   21  C   UNL     1       2.313  29.834  50.812  1.00  0.00     0.032 A 
BRANCH  17  22
HETATM   22  O   UNL     1       4.367  26.820  50.829  1.00  0.00    -0.354 OA
HETATM   23  C   UNL     1       5.385  26.402  49.926  1.00  0.00     0.210 C 
ENDBRANCH  17  22
ENDBRANCH  13  16
ENDBRANCH  10  12
BRANCH   9  24
HETATM   24  C   UNL     1       6.265  27.078  55.079  1.00  0.00    -0.017 A 
HETATM   25  C   UNL     1       6.793  26.060  54.227  1.00  0.00    -0.017 A 
HETATM   26  C   UNL     1       6.551  24.700  54.564  1.00  0.00    -0.025 A 
HETATM   27  C   UNL     1       7.557  26.301  53.058  1.00  0.00     0.013 A 
HETATM   28  C   UNL     1       7.076  23.664  53.774  1.00  0.00     0.012 A 
HETATM   29  C   UNL     1       5.790  24.374  55.694  1.00  0.00     0.012 A 
HETATM   30  C   UNL     1       7.833  23.940  52.640  1.00  0.00     0.001 A 
HETATM   31  C   UNL     1       8.069  25.257  52.279  1.00  0.00     0.001 A 
HETATM   32  C   UNL     1       5.255  25.366  56.505  1.00  0.00     0.002 A 
HETATM   33  C   UNL     1       5.488  26.701  56.201  1.00  0.00     0.010 A 
ENDBRANCH   9  24
TORSDOF 4
ENDMDL
MODEL 9
REMARK VINA RESULT:      -7.6      3.389      7.232
REMARK  4 active torsions:
REMARK  status: ('A' for Active; 'I' for Inactive)
REMARK    1  A    between atoms: C_9  and  C_10 
REMARK    2  A    between atoms: C_20  and  C_21 
REMARK       I    between atoms: C_21  and  N_22 
REMARK    3  A    between atoms: N_22  and  C_23 
REMARK    4  A    between atoms: C_24  and  O_25 
ROOT
HETATM    1  C   UNL     1       3.731  29.063  55.905  1.00  0.00     0.070 C 
HETATM    2  C   UNL     1       4.194  30.367  56.505  1.00  0.00     0.037 C 
HETATM    3  N   UNL     1       3.306  31.434  56.391  1.00  0.00    -0.192 N 
HETATM    4  C   UNL     1       3.694  32.716  56.559  1.00  0.00     0.725 A 
HETATM    5  N   UNL     1       4.927  32.979  57.096  1.00  0.00    -0.084 N 
HETATM    6  N   UNL     1       5.191  34.302  57.094  1.00  0.00    -0.149 NA
HETATM    7  C   UNL     1       4.046  34.780  56.591  1.00  0.00     0.275 A 
HETATM    8  N   UNL     1       3.102  33.842  56.254  1.00  0.00    -0.054 NA
HETATM    9  C   UNL     1       5.859  31.940  57.559  1.00  0.00     0.203 C 
HETATM   10  C   UNL     1       5.418  30.571  57.056  1.00  0.00     0.062 C 
HETATM   11  H   UNL     1       2.450  31.271  55.865  1.00  0.00     0.184 HD
ENDROOT
BRANCH  10  12
HETATM   12  C   UNL     1       6.481  29.539  57.034  1.00  0.00     0.256 C 
HETATM   13  N   UNL     1       6.011  28.261  57.199  1.00  0.00    -0.321 N 
HETATM   14  H   UNL     1       5.051  28.127  57.501  1.00  0.00     0.169 HD
HETATM   15  O   UNL     1       7.644  29.896  56.890  1.00  0.00    -0.267 OA
BRANCH  13  16
HETATM   16  C   UNL     1       6.705  27.054  56.951  1.00  0.00     0.068 A 
HETATM   17  C   UNL     1       6.728  26.581  55.622  1.00  0.00     0.095 A 
HETATM   18  C   UNL     1       7.467  25.437  55.302  1.00  0.00     0.039 A 
HETATM   19  C   UNL     1       8.168  24.755  56.297  1.00  0.00     0.003 A 
HETATM   20  C   UNL     1       8.132  25.209  57.613  1.00  0.00     0.002 A 
HETATM   21  C   UNL     1       7.403  26.354  57.940  1.00  0.00     0.032 A 
BRANCH  17  22
HETATM   22  O   UNL     1       6.021  27.330  54.708  1.00  0.00    -0.354 OA
HETATM   23  C   UNL     1       6.789  27.930  53.670  1.00  0.00     0.210 C 
ENDBRANCH  17  22
ENDBRANCH  13  16
ENDBRANCH  10  12
BRANCH   9  24
HETATM   24  C   UNL     1       5.959  31.990  59.092  1.00  0.00    -0.017 A 
HETATM   25  C   UNL     1       7.208  31.954  59.786  1.00  0.00    -0.017 A 
HETATM   26  C   UNL     1       7.201  32.078  61.202  1.00  0.00    -0.025 A 
HETATM   27  C   UNL     1       8.474  31.807  59.165  1.00  0.00     0.013 A 
HETATM   28  C   UNL     1       8.404  32.079  61.925  1.00  0.00     0.012 A 
HETATM   29  C   UNL     1       5.991  32.209  61.896  1.00  0.00     0.012 A 
HETATM   30  C   UNL     1       9.630  31.947  61.279  1.00  0.00     0.001 A 
HETATM   31  C   UNL     1       9.664  31.806  59.901  1.00  0.00     0.001 A 
HETATM   32  C   UNL     1       4.777  32.217  61.222  1.00  0.00     0.002 A 
HETATM   33  C   UNL     1       4.761  32.108  59.837  1.00  0.00     0.010 A 
ENDBRANCH   9  24
TORSDOF 4
ENDMDL
MODEL 10
REMARK VINA RESULT:      -7.5      2.249      5.080
REMARK  4 active torsions:
REMARK  status: ('A' for Active; 'I' for Inactive)
REMARK    1  A    between atoms: C_9  and  C_10 
REMARK    2  A    between atoms: C_20  and  C_21 
REMARK       I    between atoms: C_21  and  N_22 
REMARK    3  A    between atoms: N_22  and  C_23 
REMARK    4  A    between atoms: C_24  and  O_25 
ROOT
HETATM    1  C   UNL     1       6.132  26.466  51.548  1.00  0.00     0.070 C 
HETATM    2  C   UNL     1       6.337  26.390  53.041  1.00  0.00     0.037 C 
HETATM    3  N   UNL     1       7.174  25.369  53.486  1.00  0.00    -0.192 N 
HETATM    4  C   UNL     1       7.188  24.957  54.771  1.00  0.00     0.725 A 
HETATM    5  N   UNL     1       6.552  25.709  55.725  1.00  0.00    -0.084 N 
HETATM    6  N   UNL     1       6.576  25.097  56.927  1.00  0.00    -0.149 NA
HETATM    7  C   UNL     1       7.292  24.006  56.633  1.00  0.00     0.275 A 
HETATM    8  N   UNL     1       7.689  23.883  55.325  1.00  0.00    -0.054 NA
HETATM    9  C   UNL     1       5.884  26.989  55.448  1.00  0.00     0.203 C 
HETATM   10  C   UNL     1       5.706  27.181  53.947  1.00  0.00     0.062 C 
HETATM   11  H   UNL     1       7.531  24.724  52.785  1.00  0.00     0.184 HD
ENDROOT
BRANCH  10  12
HETATM   12  C   UNL     1       4.657  28.152  53.559  1.00  0.00     0.256 C 
HETATM   13  N   UNL     1       5.146  29.394  53.243  1.00  0.00    -0.321 N 
HETATM   14  H   UNL     1       6.113  29.612  53.468  1.00  0.00     0.169 HD
HETATM   15  O   UNL     1       3.487  27.788  53.565  1.00  0.00    -0.267 OA
BRANCH  13  16
HETATM   16  C   UNL     1       4.465  30.440  52.578  1.00  0.00     0.068 A 
HETATM   17  C   UNL     1       4.837  30.710  51.244  1.00  0.00     0.095 A 
HETATM   18  C   UNL     1       4.143  31.677  50.509  1.00  0.00     0.039 A 
HETATM   19  C   UNL     1       3.095  32.386  51.098  1.00  0.00     0.003 A 
HETATM   20  C   UNL     1       2.739  32.134  52.421  1.00  0.00     0.002 A 
HETATM   21  C   UNL     1       3.421  31.165  53.159  1.00  0.00     0.032 A 
BRANCH  17  22
HETATM   22  O   UNL     1       5.870  29.948  50.745  1.00  0.00    -0.354 OA
HETATM   23  C   UNL     1       5.710  29.484  49.409  1.00  0.00     0.210 C 
ENDBRANCH  17  22
ENDBRANCH  13  16
ENDBRANCH  10  12
BRANCH   9  24
HETATM   24  C   UNL     1       6.686  28.133  56.088  1.00  0.00    -0.017 A 
HETATM   25  C   UNL     1       6.069  29.196  56.816  1.00  0.00    -0.017 A 
HETATM   26  C   UNL     1       6.903  30.169  57.432  1.00  0.00    -0.025 A 
HETATM   27  C   UNL     1       4.671  29.358  56.981  1.00  0.00     0.013 A 
HETATM   28  C   UNL     1       6.344  31.215  58.184  1.00  0.00     0.012 A 
HETATM   29  C   UNL     1       8.296  30.093  57.304  1.00  0.00     0.012 A 
HETATM   30  C   UNL     1       4.966  31.334  58.336  1.00  0.00     0.001 A 
HETATM   31  C   UNL     1       4.130  30.409  57.730  1.00  0.00     0.001 A 
HETATM   32  C   UNL     1       8.892  29.074  56.573  1.00  0.00     0.002 A 
HETATM   33  C   UNL     1       8.097  28.106  55.972  1.00  0.00     0.010 A 
ENDBRANCH   9  24
TORSDOF 4
ENDMDL
