MODEL 1
REMARK VINA RESULT:      -8.8      0.000      0.000
REMARK  5 active torsions:
REMARK  status: ('A' for Active; 'I' for Inactive)
REMARK    1  A    between atoms: C_2  and  C_3 
REMARK    2  A    between atoms: C_3  and  N_4 
REMARK    3  A    between atoms: C_3  and  C_19 
REMARK       I    between atoms: N_4  and  C_5 
REMARK       I    between atoms: C_5  and  N_6 
REMARK    4  A    between atoms: N_6  and  C_7 
REMARK    5  A    between atoms: C_12  and  C_13 
ROOT
HETATM    1  N   UNL     1       8.427  27.541  56.524  1.00  0.00    -0.334 N 
HETATM    2  C   UNL     1       7.913  26.483  57.183  1.00  0.00     0.321 C 
HETATM    3  N   UNL     1       7.547  25.370  56.504  1.00  0.00    -0.306 N 
HETATM    4  O   UNL     1       7.735  26.488  58.402  1.00  0.00    -0.247 OA
HETATM    5  H   UNL     1       8.780  27.380  55.596  1.00  0.00     0.165 HD
HETATM    6  H   UNL     1       7.138  24.724  57.169  1.00  0.00     0.171 HD
ENDROOT
BRANCH   1   7
HETATM    7  C   UNL     1       8.968  28.689  57.232  1.00  0.00     0.122 C 
BRANCH   7   8
HETATM    8  C   UNL     1      10.163  29.312  56.479  1.00  0.00     0.026 C 
HETATM    9  C   UNL     1      11.166  30.034  57.371  1.00  0.00     0.007 C 
ENDBRANCH   7   8
BRANCH   7  10
HETATM   10  C   UNL     1       7.880  29.682  57.518  1.00  0.00     0.001 A 
HETATM   11  C   UNL     1       7.683  30.525  58.597  1.00  0.00     0.122 A 
HETATM   12  N   UNL     1       6.533  31.215  58.349  1.00  0.00    -0.285 N 
HETATM   13  C   UNL     1       5.922  32.218  59.187  1.00  0.00     0.179 C 
HETATM   14  N   UNL     1       5.950  30.881  57.187  1.00  0.00    -0.185 NA
HETATM   15  C   UNL     1       6.770  29.960  56.679  1.00  0.00     0.149 A 
ENDBRANCH   7  10
ENDBRANCH   1   7
BRANCH   3  16
HETATM   16  C   UNL     1       7.592  24.922  55.167  1.00  0.00     0.075 A 
HETATM   17  C   UNL     1       7.429  25.684  54.008  1.00  0.00     0.143 A 
HETATM   18  F   UNL     1       7.220  27.005  54.046  1.00  0.00    -0.204 F 
HETATM   19  C   UNL     1       7.507  25.106  52.738  1.00  0.00     0.045 A 
HETATM   20  C   UNL     1       7.762  23.744  52.598  1.00  0.00     0.019 A 
HETATM   21  C   UNL     1       7.937  22.947  53.734  1.00  0.00     0.050 A 
HETATM   22  C   UNL     1       7.854  23.548  55.007  1.00  0.00     0.049 A 
BRANCH  21  23
HETATM   23  C   UNL     1       8.251  21.475  53.614  1.00  0.00     0.417 C 
HETATM   24  F   UNL     1       8.070  20.984  52.357  1.00  0.00    -0.166 F 
HETATM   25  F   UNL     1       9.540  21.195  53.946  1.00  0.00    -0.166 F 
HETATM   26  F   UNL     1       7.478  20.706  54.430  1.00  0.00    -0.166 F 
ENDBRANCH  21  23
ENDBRANCH   3  16
TORSDOF 5
ENDMDL
MODEL 2
REMARK VINA RESULT:      -8.7      2.553      3.566
REMARK  5 active torsions:
REMARK  status: ('A' for Active; 'I' for Inactive)
REMARK    1  A    between atoms: C_2  and  C_3 
REMARK    2  A    between atoms: C_3  and  N_4 
REMARK    3  A    between atoms: C_3  and  C_19 
REMARK       I    between atoms: N_4  and  C_5 
REMARK       I    between atoms: C_5  and  N_6 
REMARK    4  A    between atoms: N_6  and  C_7 
REMARK    5  A    between atoms: C_12  and  C_13 
ROOT
HETATM    1  N   UNL     1       7.012  26.653  55.102  1.00  0.00    -0.334 N 
HETATM    2  C   UNL     1       5.932  26.061  54.554  1.00  0.00     0.321 C 
HETATM    3  N   UNL     1       6.025  24.806  54.053  1.00  0.00    -0.306 N 
HETATM    4  O   UNL     1       4.842  26.628  54.465  1.00  0.00    -0.247 OA
HETATM    5  H   UNL     1       7.777  26.059  55.373  1.00  0.00     0.165 HD
HETATM    6  H   UNL     1       5.128  24.571  53.643  1.00  0.00     0.171 HD
ENDROOT
BRANCH   1   7
HETATM    7  C   UNL     1       6.913  27.934  55.782  1.00  0.00     0.122 C 
BRANCH   7   8
HETATM    8  C   UNL     1       6.217  27.798  57.153  1.00  0.00     0.026 C 
HETATM    9  C   UNL     1       5.124  28.829  57.412  1.00  0.00     0.007 C 
ENDBRANCH   7   8
BRANCH   7  10
HETATM   10  C   UNL     1       8.266  28.575  55.878  1.00  0.00     0.001 A 
HETATM   11  C   UNL     1       9.052  28.870  56.978  1.00  0.00     0.122 A 
HETATM   12  N   UNL     1      10.189  29.454  56.500  1.00  0.00    -0.285 N 
HETATM   13  C   UNL     1      11.313  29.929  57.271  1.00  0.00     0.179 C 
HETATM   14  N   UNL     1      10.206  29.576  55.164  1.00  0.00    -0.185 NA
HETATM   15  C   UNL     1       9.047  29.035  54.786  1.00  0.00     0.149 A 
ENDBRANCH   7  10
ENDBRANCH   1   7
BRANCH   3  16
HETATM   16  C   UNL     1       7.016  23.805  53.967  1.00  0.00     0.075 A 
HETATM   17  C   UNL     1       7.852  23.527  52.883  1.00  0.00     0.143 A 
HETATM   18  F   UNL     1       7.813  24.240  51.752  1.00  0.00    -0.204 F 
HETATM   19  C   UNL     1       8.801  22.503  52.939  1.00  0.00     0.045 A 
HETATM   20  C   UNL     1       8.943  21.735  54.092  1.00  0.00     0.019 A 
HETATM   21  C   UNL     1       8.128  21.985  55.200  1.00  0.00     0.050 A 
HETATM   22  C   UNL     1       7.175  23.021  55.125  1.00  0.00     0.049 A 
BRANCH  21  23
HETATM   23  C   UNL     1       8.282  21.192  56.477  1.00  0.00     0.417 C 
HETATM   24  F   UNL     1       9.456  20.509  56.550  1.00  0.00    -0.166 F 
HETATM   25  F   UNL     1       8.236  21.985  57.582  1.00  0.00    -0.166 F 
HETATM   26  F   UNL     1       7.298  20.265  56.640  1.00  0.00    -0.166 F 
ENDBRANCH  21  23
ENDBRANCH   3  16
TORSDOF 5
ENDMDL
MODEL 3
REMARK VINA RESULT:      -8.7      1.739      2.933
REMARK  5 active torsions:
REMARK  status: ('A' for Active; 'I' for Inactive)
REMARK    1  A    between atoms: C_2  and  C_3 
REMARK    2  A    between atoms: C_3  and  N_4 
REMARK    3  A    between atoms: C_3  and  C_19 
REMARK       I    between atoms: N_4  and  C_5 
REMARK       I    between atoms: C_5  and  N_6 
REMARK    4  A    between atoms: N_6  and  C_7 
REMARK    5  A    between atoms: C_12  and  C_13 
ROOT
HETATM    1  N   UNL     1       8.052  27.249  56.549  1.00  0.00    -0.334 N 
HETATM    2  C   UNL     1       7.822  26.141  57.283  1.00  0.00     0.321 C 
HETATM    3  N   UNL     1       7.576  24.958  56.669  1.00  0.00    -0.306 N 
HETATM    4  O   UNL     1       7.800  26.157  58.514  1.00  0.00    -0.247 OA
HETATM    5  H   UNL     1       8.308  27.120  55.586  1.00  0.00     0.165 HD
HETATM    6  H   UNL     1       7.377  24.273  57.390  1.00  0.00     0.171 HD
ENDROOT
BRANCH   1   7
HETATM    7  C   UNL     1       8.465  28.497  57.169  1.00  0.00     0.122 C 
BRANCH   7   8
HETATM    8  C   UNL     1       9.521  29.233  56.316  1.00  0.00     0.026 C 
HETATM    9  C   UNL     1      10.768  29.659  57.082  1.00  0.00     0.007 C 
ENDBRANCH   7   8
BRANCH   7  10
HETATM   10  C   UNL     1       7.266  29.348  57.470  1.00  0.00     0.001 A 
HETATM   11  C   UNL     1       5.934  29.189  57.129  1.00  0.00     0.122 A 
HETATM   12  N   UNL     1       5.268  30.257  57.656  1.00  0.00    -0.285 N 
HETATM   13  C   UNL     1       3.853  30.527  57.569  1.00  0.00     0.179 C 
HETATM   14  N   UNL     1       6.065  31.115  58.311  1.00  0.00    -0.185 NA
HETATM   15  C   UNL     1       7.273  30.560  58.207  1.00  0.00     0.149 A 
ENDBRANCH   7  10
ENDBRANCH   1   7
BRANCH   3  16
HETATM   16  C   UNL     1       7.532  24.478  55.344  1.00  0.00     0.075 A 
HETATM   17  C   UNL     1       8.384  23.544  54.748  1.00  0.00     0.143 A 
HETATM   18  F   UNL     1       9.379  22.955  55.421  1.00  0.00    -0.204 F 
HETATM   19  C   UNL     1       8.219  23.152  53.417  1.00  0.00     0.045 A 
HETATM   20  C   UNL     1       7.184  23.681  52.650  1.00  0.00     0.019 A 
HETATM   21  C   UNL     1       6.307  24.614  53.211  1.00  0.00     0.050 A 
HETATM   22  C   UNL     1       6.490  25.000  54.554  1.00  0.00     0.049 A 
BRANCH  21  23
HETATM   23  C   UNL     1       5.154  25.179  52.414  1.00  0.00     0.417 C 
HETATM   24  F   UNL     1       5.549  25.953  51.366  1.00  0.00    -0.166 F 
HETATM   25  F   UNL     1       4.368  24.202  51.886  1.00  0.00    -0.166 F 
HETATM   26  F   UNL     1       4.330  25.959  53.167  1.00  0.00    -0.166 F 
ENDBRANCH  21  23
ENDBRANCH   3  16
TORSDOF 5
ENDMDL
MODEL 4
REMARK VINA RESULT:      -8.6      3.523      7.918
REMARK  5 active torsions:
REMARK  status: ('A' for Active; 'I' for Inactive)
REMARK    1  A    between atoms: C_2  and  C_3 
REMARK    2  A    between atoms: C_3  and  N_4 
REMARK    3  A    between atoms: C_3  and  C_19 
REMARK       I    between atoms: N_4  and  C_5 
REMARK       I    between atoms: C_5  and  N_6 
REMARK    4  A    between atoms: N_6  and  C_7 
REMARK    5  A    between atoms: C_12  and  C_13 
ROOT
HETATM    1  N   UNL     1       7.513  26.587  55.246  1.00  0.00    -0.334 N 
HETATM    2  C   UNL     1       6.607  27.575  55.392  1.00  0.00     0.321 C 
HETATM    3  N   UNL     1       6.959  28.738  55.990  1.00  0.00    -0.306 N 
HETATM    4  O   UNL     1       5.439  27.459  55.019  1.00  0.00    -0.247 OA
HETATM    5  H   UNL     1       8.484  26.834  55.332  1.00  0.00     0.165 HD
HETATM    6  H   UNL     1       6.129  29.317  56.049  1.00  0.00     0.171 HD
ENDROOT
BRANCH   1   7
HETATM    7  C   UNL     1       7.214  25.389  54.480  1.00  0.00     0.122 C 
BRANCH   7   8
HETATM    8  C   UNL     1       7.879  25.425  53.087  1.00  0.00     0.026 C 
HETATM    9  C   UNL     1       6.910  25.276  51.919  1.00  0.00     0.007 C 
ENDBRANCH   7   8
BRANCH   7  10
HETATM   10  C   UNL     1       7.580  24.165  55.266  1.00  0.00     0.001 A 
HETATM   11  C   UNL     1       7.421  22.821  54.977  1.00  0.00     0.122 A 
HETATM   12  N   UNL     1       7.925  22.131  56.040  1.00  0.00    -0.285 N 
HETATM   13  C   UNL     1       7.988  20.698  56.196  1.00  0.00     0.179 C 
HETATM   14  N   UNL     1       8.397  22.922  57.016  1.00  0.00    -0.185 NA
HETATM   15  C   UNL     1       8.198  24.154  56.544  1.00  0.00     0.149 A 
ENDBRANCH   7  10
ENDBRANCH   1   7
BRANCH   3  16
HETATM   16  C   UNL     1       8.136  29.304  56.523  1.00  0.00     0.075 A 
HETATM   17  C   UNL     1       9.372  29.451  55.887  1.00  0.00     0.143 A 
HETATM   18  F   UNL     1       9.574  29.066  54.622  1.00  0.00    -0.204 F 
HETATM   19  C   UNL     1      10.460  30.041  56.537  1.00  0.00     0.045 A 
HETATM   20  C   UNL     1      10.331  30.510  57.842  1.00  0.00     0.019 A 
HETATM   21  C   UNL     1       9.110  30.387  58.510  1.00  0.00     0.050 A 
HETATM   22  C   UNL     1       8.024  29.787  57.840  1.00  0.00     0.049 A 
BRANCH  21  23
HETATM   23  C   UNL     1       8.930  30.918  59.913  1.00  0.00     0.417 C 
HETATM   24  F   UNL     1       9.548  30.161  60.861  1.00  0.00    -0.166 F 
HETATM   25  F   UNL     1       9.426  32.177  60.053  1.00  0.00    -0.166 F 
HETATM   26  F   UNL     1       7.622  30.987  60.284  1.00  0.00    -0.166 F 
ENDBRANCH  21  23
ENDBRANCH   3  16
TORSDOF 5
ENDMDL
MODEL 5
REMARK VINA RESULT:      -8.3      1.578      2.026
REMARK  5 active torsions:
REMARK  status: ('A' for Active; 'I' for Inactive)
REMARK    1  A    between atoms: C_2  and  C_3 
REMARK    2  A    between atoms: C_3  and  N_4 
REMARK    3  A    between atoms: C_3  and  C_19 
REMARK       I    between atoms: N_4  and  C_5 
REMARK       I    between atoms: C_5  and  N_6 
REMARK    4  A    between atoms: N_6  and  C_7 
REMARK    5  A    between atoms: C_12  and  C_13 
ROOT
HETATM    1  N   UNL     1       6.413  27.350  56.344  1.00  0.00    -0.334 N 
HETATM    2  C   UNL     1       5.442  26.415  56.335  1.00  0.00     0.321 C 
HETATM    3  N   UNL     1       5.441  25.444  55.390  1.00  0.00    -0.306 N 
HETATM    4  O   UNL     1       4.520  26.413  57.151  1.00  0.00    -0.247 OA
HETATM    5  H   UNL     1       7.253  27.149  55.829  1.00  0.00     0.165 HD
HETATM    6  H   UNL     1       4.607  24.884  55.525  1.00  0.00     0.171 HD
ENDROOT
BRANCH   1   7
HETATM    7  C   UNL     1       6.530  28.313  57.426  1.00  0.00     0.122 C 
BRANCH   7   8
HETATM    8  C   UNL     1       7.980  28.407  57.949  1.00  0.00     0.026 C 
HETATM    9  C   UNL     1       9.020  28.712  56.877  1.00  0.00     0.007 C 
ENDBRANCH   7   8
BRANCH   7  10
HETATM   10  C   UNL     1       5.979  29.642  56.999  1.00  0.00     0.001 A 
HETATM   11  C   UNL     1       5.831  30.827  57.698  1.00  0.00     0.122 A 
HETATM   12  N   UNL     1       5.273  31.723  56.833  1.00  0.00    -0.285 N 
HETATM   13  C   UNL     1       4.935  33.099  57.104  1.00  0.00     0.179 C 
HETATM   14  N   UNL     1       5.032  31.211  55.616  1.00  0.00    -0.185 NA
HETATM   15  C   UNL     1       5.469  29.955  55.713  1.00  0.00     0.149 A 
ENDBRANCH   7  10
ENDBRANCH   1   7
BRANCH   3  16
HETATM   16  C   UNL     1       6.273  25.050  54.322  1.00  0.00     0.075 A 
HETATM   17  C   UNL     1       6.659  25.814  53.217  1.00  0.00     0.143 A 
HETATM   18  F   UNL     1       6.271  27.084  53.058  1.00  0.00    -0.204 F 
HETATM   19  C   UNL     1       7.500  25.295  52.230  1.00  0.00     0.045 A 
HETATM   20  C   UNL     1       7.988  23.994  52.332  1.00  0.00     0.019 A 
HETATM   21  C   UNL     1       7.630  23.199  53.425  1.00  0.00     0.050 A 
HETATM   22  C   UNL     1       6.779  23.739  54.410  1.00  0.00     0.049 A 
BRANCH  21  23
HETATM   23  C   UNL     1       8.171  21.798  53.581  1.00  0.00     0.417 C 
HETATM   24  F   UNL     1       7.804  21.203  54.750  1.00  0.00    -0.166 F 
HETATM   25  F   UNL     1       7.748  20.970  52.588  1.00  0.00    -0.166 F 
HETATM   26  F   UNL     1       9.532  21.755  53.550  1.00  0.00    -0.166 F 
ENDBRANCH  21  23
ENDBRANCH   3  16
TORSDOF 5
ENDMDL
MODEL 6
REMARK VINA RESULT:      -8.1      2.873      3.561
REMARK  5 active torsions:
REMARK  status: ('A' for Active; 'I' for Inactive)
REMARK    1  A    between atoms: C_2  and  C_3 
REMARK    2  A    between atoms: C_3  and  N_4 
REMARK    3  A    between atoms: C_3  and  C_19 
REMARK       I    between atoms: N_4  and  C_5 
REMARK       I    between atoms: C_5  and  N_6 
REMARK    4  A    between atoms: N_6  and  C_7 
REMARK    5  A    between atoms: C_12  and  C_13 
ROOT
HETATM    1  N   UNL     1       7.973  28.609  56.886  1.00  0.00    -0.334 N 
HETATM    2  C   UNL     1       7.491  27.414  57.280  1.00  0.00     0.321 C 
HETATM    3  N   UNL     1       6.440  26.857  56.632  1.00  0.00    -0.306 N 
HETATM    4  O   UNL     1       7.956  26.798  58.240  1.00  0.00    -0.247 OA
HETATM    5  H   UNL     1       7.727  28.926  55.964  1.00  0.00     0.165 HD
HETATM    6  H   UNL     1       6.202  25.997  57.114  1.00  0.00     0.171 HD
ENDROOT
BRANCH   1   7
HETATM    7  C   UNL     1       9.187  29.165  57.459  1.00  0.00     0.122 C 
BRANCH   7   8
HETATM    8  C   UNL     1      10.223  29.514  56.368  1.00  0.00     0.026 C 
HETATM    9  C   UNL     1       9.746  29.269  54.941  1.00  0.00     0.007 C 
ENDBRANCH   7   8
BRANCH   7  10
HETATM   10  C   UNL     1       8.857  30.334  58.340  1.00  0.00     0.001 A 
HETATM   11  C   UNL     1       7.725  30.616  59.085  1.00  0.00     0.122 A 
HETATM   12  N   UNL     1       7.950  31.813  59.698  1.00  0.00    -0.285 N 
HETATM   13  C   UNL     1       7.057  32.516  60.587  1.00  0.00     0.179 C 
HETATM   14  N   UNL     1       9.145  32.348  59.405  1.00  0.00    -0.185 NA
HETATM   15  C   UNL     1       9.699  31.448  58.591  1.00  0.00     0.149 A 
ENDBRANCH   7  10
ENDBRANCH   1   7
BRANCH   3  16
HETATM   16  C   UNL     1       5.641  27.169  55.512  1.00  0.00     0.075 A 
HETATM   17  C   UNL     1       4.786  28.263  55.356  1.00  0.00     0.143 A 
HETATM   18  F   UNL     1       4.642  29.197  56.303  1.00  0.00    -0.204 F 
HETATM   19  C   UNL     1       4.055  28.454  54.180  1.00  0.00     0.045 A 
HETATM   20  C   UNL     1       4.172  27.555  53.123  1.00  0.00     0.019 A 
HETATM   21  C   UNL     1       5.022  26.450  53.238  1.00  0.00     0.050 A 
HETATM   22  C   UNL     1       5.750  26.273  54.432  1.00  0.00     0.049 A 
BRANCH  21  23
HETATM   23  C   UNL     1       5.197  25.478  52.096  1.00  0.00     0.417 C 
HETATM   24  F   UNL     1       4.839  25.993  50.888  1.00  0.00    -0.166 F 
HETATM   25  F   UNL     1       6.487  25.067  51.964  1.00  0.00    -0.166 F 
HETATM   26  F   UNL     1       4.457  24.345  52.254  1.00  0.00    -0.166 F 
ENDBRANCH  21  23
ENDBRANCH   3  16
TORSDOF 5
ENDMDL
MODEL 7
REMARK VINA RESULT:      -8.1      3.640      5.074
REMARK  5 active torsions:
REMARK  status: ('A' for Active; 'I' for Inactive)
REMARK    1  A    between atoms: C_2  and  C_3 
REMARK    2  A    between atoms: C_3  and  N_4 
REMARK    3  A    between atoms: C_3  and  C_19 
REMARK       I    between atoms: N_4  and  C_5 
REMARK       I    between atoms: C_5  and  N_6 
REMARK    4  A    between atoms: N_6  and  C_7 
REMARK    5  A    between atoms: C_12  and  C_13 
ROOT
HETATM    1  N   UNL     1       5.851  26.160  53.953  1.00  0.00    -0.334 N 
HETATM    2  C   UNL     1       7.116  26.384  54.364  1.00  0.00     0.321 C 
HETATM    3  N   UNL     1       7.988  25.353  54.475  1.00  0.00    -0.306 N 
HETATM    4  O   UNL     1       7.521  27.505  54.673  1.00  0.00    -0.247 OA
HETATM    5  H   UNL     1       5.666  25.292  53.480  1.00  0.00     0.165 HD
HETATM    6  H   UNL     1       8.855  25.723  54.848  1.00  0.00     0.171 HD
ENDROOT
BRANCH   1   7
HETATM    7  C   UNL     1       4.936  27.255  53.680  1.00  0.00     0.122 C 
BRANCH   7   8
HETATM    8  C   UNL     1       5.057  28.374  54.736  1.00  0.00     0.026 C 
HETATM    9  C   UNL     1       4.274  28.121  56.019  1.00  0.00     0.007 C 
ENDBRANCH   7   8
BRANCH   7  10
HETATM   10  C   UNL     1       5.130  27.756  52.278  1.00  0.00     0.001 A 
HETATM   11  C   UNL     1       5.370  29.031  51.797  1.00  0.00     0.122 A 
HETATM   12  N   UNL     1       5.461  28.925  50.440  1.00  0.00    -0.285 N 
HETATM   13  C   UNL     1       5.712  29.990  49.500  1.00  0.00     0.179 C 
HETATM   14  N   UNL     1       5.289  27.673  49.989  1.00  0.00    -0.185 NA
HETATM   15  C   UNL     1       5.099  26.963  51.102  1.00  0.00     0.149 A 
ENDBRANCH   7  10
ENDBRANCH   1   7
BRANCH   3  16
HETATM   16  C   UNL     1       7.978  23.967  54.214  1.00  0.00     0.075 A 
HETATM   17  C   UNL     1       7.867  23.336  52.972  1.00  0.00     0.143 A 
HETATM   18  F   UNL     1       7.774  24.024  51.828  1.00  0.00    -0.204 F 
HETATM   19  C   UNL     1       7.879  21.943  52.858  1.00  0.00     0.045 A 
HETATM   20  C   UNL     1       8.014  21.145  53.991  1.00  0.00     0.019 A 
HETATM   21  C   UNL     1       8.132  21.738  55.252  1.00  0.00     0.050 A 
HETATM   22  C   UNL     1       8.116  23.144  55.347  1.00  0.00     0.049 A 
BRANCH  21  23
HETATM   23  C   UNL     1       8.315  20.899  56.495  1.00  0.00     0.417 C 
HETATM   24  F   UNL     1       9.483  20.200  56.508  1.00  0.00    -0.166 F 
HETATM   25  F   UNL     1       8.313  21.653  57.627  1.00  0.00    -0.166 F 
HETATM   26  F   UNL     1       7.325  19.978  56.655  1.00  0.00    -0.166 F 
ENDBRANCH  21  23
ENDBRANCH   3  16
TORSDOF 5
ENDMDL
MODEL 8
REMARK VINA RESULT:      -8.1      3.889      7.427
REMARK  5 active torsions:
REMARK  status: ('A' for Active; 'I' for Inactive)
REMARK    1  A    between atoms: C_2  and  C_3 
REMARK    2  A    between atoms: C_3  and  N_4 
REMARK    3  A    between atoms: C_3  and  C_19 
REMARK       I    between atoms: N_4  and  C_5 
REMARK       I    between atoms: C_5  and  N_6 
REMARK    4  A    between atoms: N_6  and  C_7 
REMARK    5  A    between atoms: C_12  and  C_13 
ROOT
HETATM    1  N   UNL     1       6.834  25.966  54.929  1.00  0.00    -0.334 N 
HETATM    2  C   UNL     1       5.857  26.822  54.568  1.00  0.00     0.321 C 
HETATM    3  N   UNL     1       5.757  28.032  55.169  1.00  0.00    -0.306 N 
HETATM    4  O   UNL     1       5.015  26.541  53.714  1.00  0.00    -0.247 OA
HETATM    5  H   UNL     1       7.620  26.345  55.428  1.00  0.00     0.165 HD
HETATM    6  H   UNL     1       4.933  28.493  54.797  1.00  0.00     0.171 HD
ENDROOT
BRANCH   1   7
HETATM    7  C   UNL     1       7.062  24.726  54.206  1.00  0.00     0.122 C 
BRANCH   7   8
HETATM    8  C   UNL     1       7.989  24.938  52.990  1.00  0.00     0.026 C 
HETATM    9  C   UNL     1       7.283  24.886  51.640  1.00  0.00     0.007 C 
ENDBRANCH   7   8
BRANCH   7  10
HETATM   10  C   UNL     1       7.566  23.665  55.141  1.00  0.00     0.001 A 
HETATM   11  C   UNL     1       7.806  22.318  54.937  1.00  0.00     0.122 A 
HETATM   12  N   UNL     1       8.255  21.818  56.125  1.00  0.00    -0.285 N 
HETATM   13  C   UNL     1       8.643  20.457  56.404  1.00  0.00     0.179 C 
HETATM   14  N   UNL     1       8.317  22.736  57.102  1.00  0.00    -0.185 NA
HETATM   15  C   UNL     1       7.911  23.856  56.504  1.00  0.00     0.149 A 
ENDBRANCH   7  10
ENDBRANCH   1   7
BRANCH   3  16
HETATM   16  C   UNL     1       6.481  28.762  56.134  1.00  0.00     0.075 A 
HETATM   17  C   UNL     1       6.003  29.293  57.334  1.00  0.00     0.143 A 
HETATM   18  F   UNL     1       4.734  29.136  57.728  1.00  0.00    -0.204 F 
HETATM   19  C   UNL     1       6.840  29.994  58.206  1.00  0.00     0.045 A 
HETATM   20  C   UNL     1       8.187  30.172  57.899  1.00  0.00     0.019 A 
HETATM   21  C   UNL     1       8.706  29.652  56.710  1.00  0.00     0.050 A 
HETATM   22  C   UNL     1       7.846  28.949  55.842  1.00  0.00     0.049 A 
BRANCH  21  23
HETATM   23  C   UNL     1      10.169  29.798  56.367  1.00  0.00     0.417 C 
HETATM   24  F   UNL     1      10.716  30.961  56.815  1.00  0.00    -0.166 F 
HETATM   25  F   UNL     1      10.923  28.798  56.897  1.00  0.00    -0.166 F 
HETATM   26  F   UNL     1      10.398  29.769  55.025  1.00  0.00    -0.166 F 
ENDBRANCH  21  23
ENDBRANCH   3  16
TORSDOF 5
ENDMDL
MODEL 9
REMARK VINA RESULT:      -8.1      2.213      3.222
REMARK  5 active torsions:
REMARK  status: ('A' for Active; 'I' for Inactive)
REMARK    1  A    between atoms: C_2  and  C_3 
REMARK    2  A    between atoms: C_3  and  N_4 
REMARK    3  A    between atoms: C_3  and  C_19 
REMARK       I    between atoms: N_4  and  C_5 
REMARK       I    between atoms: C_5  and  N_6 
REMARK    4  A    between atoms: N_6  and  C_7 
REMARK    5  A    between atoms: C_12  and  C_13 
ROOT
HETATM    1  N   UNL     1       7.013  26.700  54.343  1.00  0.00    -0.334 N 
HETATM    2  C   UNL     1       6.076  26.045  55.058  1.00  0.00     0.321 C 
HETATM    3  N   UNL     1       6.069  24.691  55.090  1.00  0.00    -0.306 N 
HETATM    4  O   UNL     1       5.191  26.631  55.681  1.00  0.00    -0.247 OA
HETATM    5  H   UNL     1       7.836  26.187  54.080  1.00  0.00     0.165 HD
HETATM    6  H   UNL     1       5.262  24.400  55.631  1.00  0.00     0.171 HD
ENDROOT
BRANCH   1   7
HETATM    7  C   UNL     1       7.142  28.146  54.406  1.00  0.00     0.122 C 
BRANCH   7   8
HETATM    8  C   UNL     1       5.881  28.854  53.867  1.00  0.00     0.026 C 
HETATM    9  C   UNL     1       5.593  28.598  52.391  1.00  0.00     0.007 C 
ENDBRANCH   7   8
BRANCH   7  10
HETATM   10  C   UNL     1       7.498  28.575  55.799  1.00  0.00     0.001 A 
HETATM   11  C   UNL     1       7.075  29.659  56.549  1.00  0.00     0.122 A 
HETATM   12  N   UNL     1       7.713  29.574  57.752  1.00  0.00    -0.285 N 
HETATM   13  C   UNL     1       7.587  30.478  58.869  1.00  0.00     0.179 C 
HETATM   14  N   UNL     1       8.536  28.518  57.847  1.00  0.00    -0.185 NA
HETATM   15  C   UNL     1       8.398  27.907  56.669  1.00  0.00     0.149 A 
ENDBRANCH   7  10
ENDBRANCH   1   7
BRANCH   3  16
HETATM   16  C   UNL     1       6.868  23.647  54.578  1.00  0.00     0.075 A 
HETATM   17  C   UNL     1       7.261  23.448  53.252  1.00  0.00     0.143 A 
HETATM   18  F   UNL     1       6.916  24.292  52.272  1.00  0.00    -0.204 F 
HETATM   19  C   UNL     1       8.066  22.367  52.884  1.00  0.00     0.045 A 
HETATM   20  C   UNL     1       8.509  21.460  53.843  1.00  0.00     0.019 A 
HETATM   21  C   UNL     1       8.142  21.627  55.182  1.00  0.00     0.050 A 
HETATM   22  C   UNL     1       7.328  22.722  55.534  1.00  0.00     0.049 A 
BRANCH  21  23
HETATM   23  C   UNL     1       8.635  20.679  56.250  1.00  0.00     0.417 C 
HETATM   24  F   UNL     1       7.958  19.499  56.281  1.00  0.00    -0.166 F 
HETATM   25  F   UNL     1       9.947  20.357  56.085  1.00  0.00    -0.166 F 
HETATM   26  F   UNL     1       8.532  21.203  57.503  1.00  0.00    -0.166 F 
ENDBRANCH  21  23
ENDBRANCH   3  16
TORSDOF 5
ENDMDL
MODEL 10
REMARK VINA RESULT:      -7.9      5.137      7.391
REMARK  5 active torsions:
REMARK  status: ('A' for Active; 'I' for Inactive)
REMARK    1  A    between atoms: C_2  and  C_3 
REMARK    2  A    between atoms: C_3  and  N_4 
REMARK    3  A    between atoms: C_3  and  C_19 
REMARK       I    between atoms: N_4  and  C_5 
REMARK       I    between atoms: C_5  and  N_6 
REMARK    4  A    between atoms: N_6  and  C_7 
REMARK    5  A    between atoms: C_12  and  C_13 
ROOT
HETATM    1  N   UNL     1       4.805  27.532  51.743  1.00  0.00    -0.334 N 
HETATM    2  C   UNL     1       4.113  27.602  52.899  1.00  0.00     0.321 C 
HETATM    3  N   UNL     1       4.470  26.830  53.953  1.00  0.00    -0.306 N 
HETATM    4  O   UNL     1       3.134  28.335  53.039  1.00  0.00    -0.247 OA
HETATM    5  H   UNL     1       5.722  27.122  51.778  1.00  0.00     0.165 HD
HETATM    6  H   UNL     1       3.797  26.991  54.694  1.00  0.00     0.171 HD
ENDROOT
BRANCH   1   7
HETATM    7  C   UNL     1       4.546  28.450  50.646  1.00  0.00     0.122 C 
BRANCH   7   8
HETATM    8  C   UNL     1       5.661  29.508  50.515  1.00  0.00     0.026 C 
HETATM    9  C   UNL     1       5.164  30.949  50.464  1.00  0.00     0.007 C 
ENDBRANCH   7   8
BRANCH   7  10
HETATM   10  C   UNL     1       4.316  27.686  49.375  1.00  0.00     0.001 A 
HETATM   11  C   UNL     1       3.263  26.881  48.980  1.00  0.00     0.122 A 
HETATM   12  N   UNL     1       3.565  26.430  47.728  1.00  0.00    -0.285 N 
HETATM   13  C   UNL     1       2.764  25.563  46.899  1.00  0.00     0.179 C 
HETATM   14  N   UNL     1       4.748  26.872  47.272  1.00  0.00    -0.185 NA
HETATM   15  C   UNL     1       5.198  27.641  48.264  1.00  0.00     0.149 A 
ENDBRANCH   7  10
ENDBRANCH   1   7
BRANCH   3  16
HETATM   16  C   UNL     1       5.494  25.905  54.249  1.00  0.00     0.075 A 
HETATM   17  C   UNL     1       5.828  24.750  53.538  1.00  0.00     0.143 A 
HETATM   18  F   UNL     1       5.186  24.388  52.422  1.00  0.00    -0.204 F 
HETATM   19  C   UNL     1       6.879  23.923  53.944  1.00  0.00     0.045 A 
HETATM   20  C   UNL     1       7.631  24.242  55.072  1.00  0.00     0.019 A 
HETATM   21  C   UNL     1       7.332  25.393  55.807  1.00  0.00     0.050 A 
HETATM   22  C   UNL     1       6.267  26.214  55.383  1.00  0.00     0.049 A 
BRANCH  21  23
HETATM   23  C   UNL     1       8.152  25.784  57.014  1.00  0.00     0.417 C 
HETATM   24  F   UNL     1       8.670  27.040  56.932  1.00  0.00    -0.166 F 
HETATM   25  F   UNL     1       7.424  25.751  58.162  1.00  0.00    -0.166 F 
HETATM   26  F   UNL     1       9.212  24.954  57.218  1.00  0.00    -0.166 F 
ENDBRANCH  21  23
ENDBRANCH   3  16
TORSDOF 5
ENDMDL
