MODEL 1
REMARK VINA RESULT:     -11.2      0.000      0.000
REMARK  6 active torsions:
REMARK  status: ('A' for Active; 'I' for Inactive)
REMARK    1  A    between atoms: C_7  and  C_8 
REMARK    2  A    between atoms: C_8  and  C_9 
REMARK    3  A    between atoms: C_9  and  N_10 
REMARK    4  A    between atoms: C_12  and  C_13 
REMARK    5  A    between atoms: C_13  and  N_14 
REMARK    6  A    between atoms: C_36  and  O_37 
ROOT
HETATM    1  N   UNL     1       6.094  28.423  55.917  1.00  0.00    -0.054 N 
HETATM    2  H   UNL     1       6.863  29.034  55.556  1.00  0.00     0.281 HD
HETATM    3  C   UNL     1       5.955  27.318  54.849  1.00  0.00     0.240 C 
HETATM    4  C   UNL     1       5.275  27.786  53.560  1.00  0.00    -0.020 A 
HETATM    5  C   UNL     1       4.644  29.045  53.481  1.00  0.00    -0.048 A 
HETATM    6  C   UNL     1       4.647  29.997  54.644  1.00  0.00     0.067 C 
HETATM    7  C   UNL     1       4.861  29.285  55.971  1.00  0.00     0.241 C 
HETATM    8  C   UNL     1       5.216  26.948  52.430  1.00  0.00     0.010 A 
HETATM    9  C   UNL     1       4.608  27.370  51.246  1.00  0.00     0.001 A 
HETATM   10  C   UNL     1       4.029  28.630  51.169  1.00  0.00     0.001 A 
HETATM   11  C   UNL     1       4.045  29.464  52.282  1.00  0.00     0.008 A 
ENDROOT
BRANCH   1  12
HETATM   12  C   UNL     1       6.516  27.959  57.334  1.00  0.00     0.319 C 
BRANCH  12  13
HETATM   13  C   UNL     1       8.026  27.933  57.554  1.00  0.00     0.188 C 
HETATM   14  O   UNL     1       8.597  26.841  57.584  1.00  0.00    -0.290 OA
BRANCH  13  15
HETATM   15  C   UNL     1       8.776  29.176  57.732  1.00  0.00     0.046 A 
HETATM   16  C   UNL     1       9.574  29.729  56.733  1.00  0.00     0.020 A 
HETATM   17  C   UNL     1       9.906  29.248  55.361  1.00  0.00     0.069 C 
HETATM   18  N   UNL     1      10.075  30.917  57.194  1.00  0.00    -0.358 N 
HETATM   19  H   UNL     1      10.672  31.545  56.670  1.00  0.00     0.166 HD
HETATM   20  C   UNL     1       9.638  31.155  58.473  1.00  0.00     0.043 A 
HETATM   21  C   UNL     1       8.844  30.072  58.857  1.00  0.00     0.009 A 
HETATM   22  C   UNL     1       9.887  32.255  59.301  1.00  0.00     0.033 A 
HETATM   23  C   UNL     1       8.290  30.111  60.157  1.00  0.00     0.051 A 
HETATM   24  C   UNL     1       8.526  31.203  61.007  1.00  0.00     0.069 A 
HETATM   25  C   UNL     1       9.314  32.263  60.575  1.00  0.00     0.039 A 
BRANCH  24  26
HETATM   26  O   UNL     1       7.918  31.097  62.230  1.00  0.00    -0.356 OA
HETATM   27  C   UNL     1       8.093  32.188  63.129  1.00  0.00     0.210 C 
ENDBRANCH  24  26
ENDBRANCH  13  15
ENDBRANCH  12  13
ENDBRANCH   1  12
BRANCH   3  28
HETATM   28  C   UNL     1       7.308  26.584  54.604  1.00  0.00     0.173 C 
BRANCH  28  29
HETATM   29  N   UNL     1       7.303  25.149  54.348  1.00  0.00    -0.278 N 
HETATM   30  C   UNL     1       7.741  24.503  53.224  1.00  0.00     0.261 A 
HETATM   31  O   UNL     1       8.131  24.998  52.181  1.00  0.00    -0.267 OA
HETATM   32  C   UNL     1       7.790  23.076  53.536  1.00  0.00     0.048 A 
HETATM   33  C   UNL     1       7.456  22.934  54.870  1.00  0.00     0.048 A 
HETATM   34  C   UNL     1       8.168  22.001  52.758  1.00  0.00     0.018 A 
HETATM   35  C   UNL     1       7.180  24.268  55.395  1.00  0.00     0.261 A 
HETATM   36  C   UNL     1       7.481  21.709  55.506  1.00  0.00     0.018 A 
HETATM   37  O   UNL     1       6.951  24.526  56.561  1.00  0.00    -0.267 OA
HETATM   38  C   UNL     1       7.856  20.601  54.738  1.00  0.00     0.001 A 
HETATM   39  C   UNL     1       8.195  20.746  53.376  1.00  0.00     0.001 A 
ENDBRANCH  28  29
ENDBRANCH   3  28
TORSDOF 6
ENDMDL
MODEL 2
REMARK VINA RESULT:     -11.0      2.145      5.050
REMARK  6 active torsions:
REMARK  status: ('A' for Active; 'I' for Inactive)
REMARK    1  A    between atoms: C_7  and  C_8 
REMARK    2  A    between atoms: C_8  and  C_9 
REMARK    3  A    between atoms: C_9  and  N_10 
REMARK    4  A    between atoms: C_12  and  C_13 
REMARK    5  A    between atoms: C_13  and  N_14 
REMARK    6  A    between atoms: C_36  and  O_37 
ROOT
HETATM    1  N   UNL     1       7.026  26.555  56.268  1.00  0.00    -0.054 N 
HETATM    2  H   UNL     1       6.247  26.059  56.760  1.00  0.00     0.281 HD
HETATM    3  C   UNL     1       7.035  25.940  54.853  1.00  0.00     0.240 C 
HETATM    4  C   UNL     1       7.612  24.523  54.799  1.00  0.00    -0.020 A 
HETATM    5  C   UNL     1       8.271  23.958  55.911  1.00  0.00    -0.048 A 
HETATM    6  C   UNL     1       8.401  24.707  57.208  1.00  0.00     0.067 C 
HETATM    7  C   UNL     1       8.285  26.211  57.019  1.00  0.00     0.241 C 
HETATM    8  C   UNL     1       7.544  23.761  53.617  1.00  0.00     0.010 A 
HETATM    9  C   UNL     1       8.057  22.463  53.561  1.00  0.00     0.001 A 
HETATM   10  C   UNL     1       8.664  21.904  54.677  1.00  0.00     0.001 A 
HETATM   11  C   UNL     1       8.773  22.648  55.847  1.00  0.00     0.008 A 
ENDROOT
BRANCH   1  12
HETATM   12  C   UNL     1       6.719  28.071  56.355  1.00  0.00     0.319 C 
BRANCH  12  13
HETATM   13  C   UNL     1       7.944  28.964  56.182  1.00  0.00     0.188 C 
HETATM   14  O   UNL     1       8.533  28.950  55.099  1.00  0.00    -0.290 OA
BRANCH  13  15
HETATM   15  C   UNL     1       8.413  29.810  57.280  1.00  0.00     0.046 A 
HETATM   16  C   UNL     1       9.761  29.956  57.601  1.00  0.00     0.020 A 
HETATM   17  C   UNL     1      10.983  29.325  57.025  1.00  0.00     0.069 C 
HETATM   18  N   UNL     1       9.861  30.864  58.622  1.00  0.00    -0.358 N 
HETATM   19  H   UNL     1      10.726  31.178  59.044  1.00  0.00     0.166 HD
HETATM   20  C   UNL     1       8.615  31.310  58.987  1.00  0.00     0.043 A 
HETATM   21  C   UNL     1       7.679  30.651  58.188  1.00  0.00     0.009 A 
HETATM   22  C   UNL     1       8.266  32.253  59.960  1.00  0.00     0.033 A 
HETATM   23  C   UNL     1       6.317  30.962  58.406  1.00  0.00     0.051 A 
HETATM   24  C   UNL     1       5.941  31.904  59.377  1.00  0.00     0.069 A 
HETATM   25  C   UNL     1       6.911  32.543  60.140  1.00  0.00     0.039 A 
BRANCH  24  26
HETATM   26  O   UNL     1       4.588  32.101  59.465  1.00  0.00    -0.356 OA
HETATM   27  C   UNL     1       3.773  31.370  58.554  1.00  0.00     0.210 C 
ENDBRANCH  24  26
ENDBRANCH  13  15
ENDBRANCH  12  13
ENDBRANCH   1  12
BRANCH   3  28
HETATM   28  C   UNL     1       5.645  26.069  54.163  1.00  0.00     0.173 C 
BRANCH  28  29
HETATM   29  N   UNL     1       5.583  26.364  52.737  1.00  0.00    -0.278 N 
HETATM   30  C   UNL     1       5.051  25.583  51.747  1.00  0.00     0.261 A 
HETATM   31  O   UNL     1       4.611  24.450  51.845  1.00  0.00    -0.267 OA
HETATM   32  C   UNL     1       4.973  26.403  50.541  1.00  0.00     0.048 A 
HETATM   33  C   UNL     1       5.388  27.677  50.882  1.00  0.00     0.048 A 
HETATM   34  C   UNL     1       4.507  26.099  49.278  1.00  0.00     0.018 A 
HETATM   35  C   UNL     1       5.744  27.656  52.298  1.00  0.00     0.261 A 
HETATM   36  C   UNL     1       5.361  28.723  49.980  1.00  0.00     0.018 A 
HETATM   37  O   UNL     1       6.057  28.631  52.953  1.00  0.00    -0.267 OA
HETATM   38  C   UNL     1       4.899  28.439  48.691  1.00  0.00     0.001 A 
HETATM   39  C   UNL     1       4.477  27.139  48.343  1.00  0.00     0.001 A 
ENDBRANCH  28  29
ENDBRANCH   3  28
TORSDOF 6
ENDMDL
MODEL 3
REMARK VINA RESULT:     -11.0      3.685      7.415
REMARK  6 active torsions:
REMARK  status: ('A' for Active; 'I' for Inactive)
REMARK    1  A    between atoms: C_7  and  C_8 
REMARK    2  A    between atoms: C_8  and  C_9 
REMARK    3  A    between atoms: C_9  and  N_10 
REMARK    4  A    between atoms: C_12  and  C_13 
REMARK    5  A    between atoms: C_13  and  N_14 
REMARK    6  A    between atoms: C_36  and  O_37 
ROOT
HETATM    1  N   UNL     1       5.365  27.397  54.511  1.00  0.00    -0.054 N 
HETATM    2  H   UNL     1       6.274  27.894  54.659  1.00  0.00     0.281 HD
HETATM    3  C   UNL     1       4.688  28.177  53.364  1.00  0.00     0.240 C 
HETATM    4  C   UNL     1       4.127  29.536  53.789  1.00  0.00    -0.020 A 
HETATM    5  C   UNL     1       4.049  29.904  55.148  1.00  0.00    -0.048 A 
HETATM    6  C   UNL     1       4.550  28.995  56.236  1.00  0.00     0.067 C 
HETATM    7  C   UNL     1       4.592  27.540  55.796  1.00  0.00     0.241 C 
HETATM    8  C   UNL     1       3.624  30.440  52.833  1.00  0.00     0.010 A 
HETATM    9  C   UNL     1       3.120  31.687  53.209  1.00  0.00     0.001 A 
HETATM   10  C   UNL     1       3.090  32.052  54.548  1.00  0.00     0.001 A 
HETATM   11  C   UNL     1       3.550  31.165  55.515  1.00  0.00     0.008 A 
ENDROOT
BRANCH   1  12
HETATM   12  C   UNL     1       5.705  25.913  54.223  1.00  0.00     0.319 C 
BRANCH  12  13
HETATM   13  C   UNL     1       7.183  25.572  54.392  1.00  0.00     0.188 C 
HETATM   14  O   UNL     1       7.990  26.043  53.588  1.00  0.00    -0.290 OA
BRANCH  13  15
HETATM   15  C   UNL     1       7.630  24.701  55.480  1.00  0.00     0.046 A 
HETATM   16  C   UNL     1       7.870  25.165  56.771  1.00  0.00     0.020 A 
HETATM   17  C   UNL     1       7.805  26.537  57.351  1.00  0.00     0.069 C 
HETATM   18  N   UNL     1       8.204  24.092  57.555  1.00  0.00    -0.358 N 
HETATM   19  H   UNL     1       8.411  24.132  58.545  1.00  0.00     0.166 HD
HETATM   20  C   UNL     1       8.199  22.939  56.812  1.00  0.00     0.043 A 
HETATM   21  C   UNL     1       7.872  23.282  55.498  1.00  0.00     0.009 A 
HETATM   22  C   UNL     1       8.454  21.625  57.220  1.00  0.00     0.033 A 
HETATM   23  C   UNL     1       7.817  22.231  54.555  1.00  0.00     0.051 A 
HETATM   24  C   UNL     1       8.070  20.905  54.939  1.00  0.00     0.069 A 
HETATM   25  C   UNL     1       8.380  20.611  56.262  1.00  0.00     0.039 A 
BRANCH  24  26
HETATM   26  O   UNL     1       7.973  20.001  53.915  1.00  0.00    -0.356 OA
HETATM   27  C   UNL     1       8.347  20.459  52.618  1.00  0.00     0.210 C 
ENDBRANCH  24  26
ENDBRANCH  13  15
ENDBRANCH  12  13
ENDBRANCH   1  12
BRANCH   3  28
HETATM   28  C   UNL     1       5.601  28.251  52.104  1.00  0.00     0.173 C 
BRANCH  28  29
HETATM   29  N   UNL     1       5.125  27.688  50.847  1.00  0.00    -0.278 N 
HETATM   30  C   UNL     1       4.844  26.376  50.576  1.00  0.00     0.261 A 
HETATM   31  O   UNL     1       5.026  25.408  51.295  1.00  0.00    -0.267 OA
HETATM   32  C   UNL     1       4.146  26.338  49.293  1.00  0.00     0.048 A 
HETATM   33  C   UNL     1       3.963  27.646  48.884  1.00  0.00     0.048 A 
HETATM   34  C   UNL     1       3.641  25.270  48.578  1.00  0.00     0.018 A 
HETATM   35  C   UNL     1       4.560  28.508  49.901  1.00  0.00     0.261 A 
HETATM   36  C   UNL     1       3.263  27.964  47.738  1.00  0.00     0.018 A 
HETATM   37  O   UNL     1       4.494  29.722  49.912  1.00  0.00    -0.267 OA
HETATM   38  C   UNL     1       2.746  26.901  46.992  1.00  0.00     0.001 A 
HETATM   39  C   UNL     1       2.935  25.565  47.408  1.00  0.00     0.001 A 
ENDBRANCH  28  29
ENDBRANCH   3  28
TORSDOF 6
ENDMDL
MODEL 4
REMARK VINA RESULT:     -11.0      2.052      5.368
REMARK  6 active torsions:
REMARK  status: ('A' for Active; 'I' for Inactive)
REMARK    1  A    between atoms: C_7  and  C_8 
REMARK    2  A    between atoms: C_8  and  C_9 
REMARK    3  A    between atoms: C_9  and  N_10 
REMARK    4  A    between atoms: C_12  and  C_13 
REMARK    5  A    between atoms: C_13  and  N_14 
REMARK    6  A    between atoms: C_36  and  O_37 
ROOT
HETATM    1  N   UNL     1       7.564  25.442  56.030  1.00  0.00    -0.054 N 
HETATM    2  H   UNL     1       6.766  25.031  56.566  1.00  0.00     0.281 HD
HETATM    3  C   UNL     1       7.344  24.949  54.584  1.00  0.00     0.240 C 
HETATM    4  C   UNL     1       7.682  23.470  54.378  1.00  0.00    -0.020 A 
HETATM    5  C   UNL     1       8.343  22.724  55.375  1.00  0.00    -0.048 A 
HETATM    6  C   UNL     1       8.710  23.337  56.697  1.00  0.00     0.067 C 
HETATM    7  C   UNL     1       8.817  24.852  56.621  1.00  0.00     0.241 C 
HETATM    8  C   UNL     1       7.384  22.826  53.162  1.00  0.00     0.010 A 
HETATM    9  C   UNL     1       7.678  21.474  52.967  1.00  0.00     0.001 A 
HETATM   10  C   UNL     1       8.290  20.741  53.974  1.00  0.00     0.001 A 
HETATM   11  C   UNL     1       8.625  21.363  55.173  1.00  0.00     0.008 A 
ENDROOT
BRANCH   1  12
HETATM   12  C   UNL     1       7.510  26.975  56.247  1.00  0.00     0.319 C 
BRANCH  12  13
HETATM   13  C   UNL     1       6.220  27.464  56.902  1.00  0.00     0.188 C 
HETATM   14  O   UNL     1       5.357  26.632  57.191  1.00  0.00    -0.290 OA
BRANCH  13  15
HETATM   15  C   UNL     1       6.012  28.886  57.173  1.00  0.00     0.046 A 
HETATM   16  C   UNL     1       4.963  29.617  56.621  1.00  0.00     0.020 A 
HETATM   17  C   UNL     1       3.894  29.227  55.657  1.00  0.00     0.069 C 
HETATM   18  N   UNL     1       5.014  30.888  57.128  1.00  0.00    -0.358 N 
HETATM   19  H   UNL     1       4.359  31.631  56.915  1.00  0.00     0.166 HD
HETATM   20  C   UNL     1       6.074  31.015  57.990  1.00  0.00     0.043 A 
HETATM   21  C   UNL     1       6.742  29.790  58.023  1.00  0.00     0.009 A 
HETATM   22  C   UNL     1       6.472  32.127  58.741  1.00  0.00     0.033 A 
HETATM   23  C   UNL     1       7.882  29.702  58.855  1.00  0.00     0.051 A 
HETATM   24  C   UNL     1       8.303  30.804  59.617  1.00  0.00     0.069 A 
HETATM   25  C   UNL     1       7.597  32.000  59.559  1.00  0.00     0.039 A 
BRANCH  24  26
HETATM   26  O   UNL     1       9.417  30.562  60.375  1.00  0.00    -0.356 OA
HETATM   27  C   UNL     1       9.249  30.591  61.790  1.00  0.00     0.210 C 
ENDBRANCH  24  26
ENDBRANCH  13  15
ENDBRANCH  12  13
ENDBRANCH   1  12
BRANCH   3  28
HETATM   28  C   UNL     1       5.933  25.342  54.053  1.00  0.00     0.173 C 
BRANCH  28  29
HETATM   29  N   UNL     1       5.811  25.931  52.725  1.00  0.00    -0.278 N 
HETATM   30  C   UNL     1       5.153  25.414  51.642  1.00  0.00     0.261 A 
HETATM   31  O   UNL     1       4.623  24.320  51.542  1.00  0.00    -0.267 OA
HETATM   32  C   UNL     1       5.074  26.471  50.637  1.00  0.00     0.048 A 
HETATM   33  C   UNL     1       5.620  27.612  51.195  1.00  0.00     0.048 A 
HETATM   34  C   UNL     1       4.508  26.470  49.378  1.00  0.00     0.018 A 
HETATM   35  C   UNL     1       6.057  27.270  52.546  1.00  0.00     0.261 A 
HETATM   36  C   UNL     1       5.630  28.821  50.529  1.00  0.00     0.018 A 
HETATM   37  O   UNL     1       6.494  28.062  53.359  1.00  0.00    -0.267 OA
HETATM   38  C   UNL     1       5.068  28.847  49.249  1.00  0.00     0.001 A 
HETATM   39  C   UNL     1       4.513  27.681  48.678  1.00  0.00     0.001 A 
ENDBRANCH  28  29
ENDBRANCH   3  28
TORSDOF 6
ENDMDL
MODEL 5
REMARK VINA RESULT:     -10.9      2.274      7.504
REMARK  6 active torsions:
REMARK  status: ('A' for Active; 'I' for Inactive)
REMARK    1  A    between atoms: C_7  and  C_8 
REMARK    2  A    between atoms: C_8  and  C_9 
REMARK    3  A    between atoms: C_9  and  N_10 
REMARK    4  A    between atoms: C_12  and  C_13 
REMARK    5  A    between atoms: C_13  and  N_14 
REMARK    6  A    between atoms: C_36  and  O_37 
ROOT
HETATM    1  N   UNL     1       5.159  26.171  53.198  1.00  0.00    -0.054 N 
HETATM    2  H   UNL     1       4.131  26.350  53.276  1.00  0.00     0.281 HD
HETATM    3  C   UNL     1       5.758  27.548  52.843  1.00  0.00     0.240 C 
HETATM    4  C   UNL     1       5.501  27.979  51.396  1.00  0.00    -0.020 A 
HETATM    5  C   UNL     1       4.968  27.081  50.449  1.00  0.00    -0.048 A 
HETATM    6  C   UNL     1       4.592  25.675  50.826  1.00  0.00     0.067 C 
HETATM    7  C   UNL     1       5.332  25.194  52.064  1.00  0.00     0.241 C 
HETATM    8  C   UNL     1       5.838  29.274  50.959  1.00  0.00     0.010 A 
HETATM    9  C   UNL     1       5.598  29.681  49.645  1.00  0.00     0.001 A 
HETATM   10  C   UNL     1       5.032  28.799  48.734  1.00  0.00     0.001 A 
HETATM   11  C   UNL     1       4.720  27.504  49.132  1.00  0.00     0.008 A 
ENDROOT
BRANCH   1  12
HETATM   12  C   UNL     1       5.612  25.553  54.545  1.00  0.00     0.319 C 
BRANCH  12  13
HETATM   13  C   UNL     1       7.076  25.125  54.569  1.00  0.00     0.188 C 
HETATM   14  O   UNL     1       7.825  25.541  53.682  1.00  0.00    -0.290 OA
BRANCH  13  15
HETATM   15  C   UNL     1       7.578  24.236  55.618  1.00  0.00     0.046 A 
HETATM   16  C   UNL     1       7.722  24.637  56.945  1.00  0.00     0.020 A 
HETATM   17  C   UNL     1       7.488  25.953  57.606  1.00  0.00     0.069 C 
HETATM   18  N   UNL     1       8.144  23.556  57.674  1.00  0.00    -0.358 N 
HETATM   19  H   UNL     1       8.311  23.553  58.672  1.00  0.00     0.166 HD
HETATM   20  C   UNL     1       8.290  22.461  56.861  1.00  0.00     0.043 A 
HETATM   21  C   UNL     1       7.972  22.854  55.559  1.00  0.00     0.009 A 
HETATM   22  C   UNL     1       8.671  21.157  57.197  1.00  0.00     0.033 A 
HETATM   23  C   UNL     1       8.064  21.868  54.550  1.00  0.00     0.051 A 
HETATM   24  C   UNL     1       8.446  20.553  54.862  1.00  0.00     0.069 A 
HETATM   25  C   UNL     1       8.740  20.207  56.175  1.00  0.00     0.039 A 
BRANCH  24  26
HETATM   26  O   UNL     1       8.482  19.714  53.780  1.00  0.00    -0.356 OA
HETATM   27  C   UNL     1       8.411  20.323  52.494  1.00  0.00     0.210 C 
ENDBRANCH  24  26
ENDBRANCH  13  15
ENDBRANCH  12  13
ENDBRANCH   1  12
BRANCH   3  28
HETATM   28  C   UNL     1       5.364  28.632  53.891  1.00  0.00     0.173 C 
BRANCH  28  29
HETATM   29  N   UNL     1       6.218  28.839  55.054  1.00  0.00    -0.278 N 
HETATM   30  C   UNL     1       7.585  28.807  55.099  1.00  0.00     0.261 A 
HETATM   31  O   UNL     1       8.356  28.506  54.204  1.00  0.00    -0.267 OA
HETATM   32  C   UNL     1       7.989  29.336  56.400  1.00  0.00     0.048 A 
HETATM   33  C   UNL     1       6.840  29.744  57.053  1.00  0.00     0.048 A 
HETATM   34  C   UNL     1       9.244  29.525  56.941  1.00  0.00     0.018 A 
HETATM   35  C   UNL     1       5.712  29.456  56.172  1.00  0.00     0.261 A 
HETATM   36  C   UNL     1       6.879  30.365  58.286  1.00  0.00     0.018 A 
HETATM   37  O   UNL     1       4.559  29.776  56.388  1.00  0.00    -0.267 OA
HETATM   38  C   UNL     1       8.139  30.563  58.859  1.00  0.00     0.001 A 
HETATM   39  C   UNL     1       9.311  30.145  58.193  1.00  0.00     0.001 A 
ENDBRANCH  28  29
ENDBRANCH   3  28
TORSDOF 6
ENDMDL
MODEL 6
REMARK VINA RESULT:     -10.9      1.744      2.577
REMARK  6 active torsions:
REMARK  status: ('A' for Active; 'I' for Inactive)
REMARK    1  A    between atoms: C_7  and  C_8 
REMARK    2  A    between atoms: C_8  and  C_9 
REMARK    3  A    between atoms: C_9  and  N_10 
REMARK    4  A    between atoms: C_12  and  C_13 
REMARK    5  A    between atoms: C_13  and  N_14 
REMARK    6  A    between atoms: C_36  and  O_37 
ROOT
HETATM    1  N   UNL     1       6.206  28.617  54.226  1.00  0.00    -0.054 N 
HETATM    2  H   UNL     1       6.875  29.213  53.686  1.00  0.00     0.281 HD
HETATM    3  C   UNL     1       6.172  27.285  53.447  1.00  0.00     0.240 C 
HETATM    4  C   UNL     1       5.389  27.357  52.133  1.00  0.00    -0.020 A 
HETATM    5  C   UNL     1       4.599  28.480  51.813  1.00  0.00    -0.048 A 
HETATM    6  C   UNL     1       4.521  29.670  52.727  1.00  0.00     0.067 C 
HETATM    7  C   UNL     1       4.873  29.317  54.164  1.00  0.00     0.241 C 
HETATM    8  C   UNL     1       5.398  26.278  51.229  1.00  0.00     0.010 A 
HETATM    9  C   UNL     1       4.697  26.338  50.022  1.00  0.00     0.001 A 
HETATM   10  C   UNL     1       3.958  27.468  49.700  1.00  0.00     0.001 A 
HETATM   11  C   UNL     1       3.906  28.534  50.592  1.00  0.00     0.008 A 
ENDROOT
BRANCH   1  12
HETATM   12  C   UNL     1       6.736  28.548  55.680  1.00  0.00     0.319 C 
BRANCH  12  13
HETATM   13  C   UNL     1       8.105  29.193  55.872  1.00  0.00     0.188 C 
HETATM   14  O   UNL     1       8.947  29.061  54.981  1.00  0.00    -0.290 OA
BRANCH  13  15
HETATM   15  C   UNL     1       8.413  29.944  57.089  1.00  0.00     0.046 A 
HETATM   16  C   UNL     1       9.709  30.094  57.579  1.00  0.00     0.020 A 
HETATM   17  C   UNL     1      11.011  29.551  57.096  1.00  0.00     0.069 C 
HETATM   18  N   UNL     1       9.658  30.904  58.683  1.00  0.00    -0.358 N 
HETATM   19  H   UNL     1      10.456  31.199  59.230  1.00  0.00     0.166 HD
HETATM   20  C   UNL     1       8.363  31.281  58.937  1.00  0.00     0.043 A 
HETATM   21  C   UNL     1       7.549  30.677  57.977  1.00  0.00     0.009 A 
HETATM   22  C   UNL     1       7.870  32.119  59.943  1.00  0.00     0.033 A 
HETATM   23  C   UNL     1       6.161  30.931  58.060  1.00  0.00     0.051 A 
HETATM   24  C   UNL     1       5.641  31.767  59.061  1.00  0.00     0.069 A 
HETATM   25  C   UNL     1       6.494  32.356  59.987  1.00  0.00     0.039 A 
BRANCH  24  26
HETATM   26  O   UNL     1       4.282  31.920  59.006  1.00  0.00    -0.356 OA
HETATM   27  C   UNL     1       3.555  30.938  58.273  1.00  0.00     0.210 C 
ENDBRANCH  24  26
ENDBRANCH  13  15
ENDBRANCH  12  13
ENDBRANCH   1  12
BRANCH   3  28
HETATM   28  C   UNL     1       7.598  26.679  53.286  1.00  0.00     0.173 C 
BRANCH  28  29
HETATM   29  N   UNL     1       7.840  25.307  53.716  1.00  0.00    -0.278 N 
HETATM   30  C   UNL     1       7.659  24.782  54.967  1.00  0.00     0.261 A 
HETATM   31  O   UNL     1       7.353  25.373  55.988  1.00  0.00    -0.267 OA
HETATM   32  C   UNL     1       7.767  23.330  54.848  1.00  0.00     0.048 A 
HETATM   33  C   UNL     1       7.927  23.037  53.506  1.00  0.00     0.048 A 
HETATM   34  C   UNL     1       7.656  22.341  55.804  1.00  0.00     0.018 A 
HETATM   35  C   UNL     1       7.937  24.305  52.781  1.00  0.00     0.261 A 
HETATM   36  C   UNL     1       7.985  21.739  53.041  1.00  0.00     0.018 A 
HETATM   37  O   UNL     1       7.962  24.416  51.571  1.00  0.00    -0.267 OA
HETATM   38  C   UNL     1       7.880  20.717  53.991  1.00  0.00     0.001 A 
HETATM   39  C   UNL     1       7.719  21.016  55.360  1.00  0.00     0.001 A 
ENDBRANCH  28  29
ENDBRANCH   3  28
TORSDOF 6
ENDMDL
MODEL 7
REMARK VINA RESULT:     -10.8      3.065      9.261
REMARK  6 active torsions:
REMARK  status: ('A' for Active; 'I' for Inactive)
REMARK    1  A    between atoms: C_7  and  C_8 
REMARK    2  A    between atoms: C_8  and  C_9 
REMARK    3  A    between atoms: C_9  and  N_10 
REMARK    4  A    between atoms: C_12  and  C_13 
REMARK    5  A    between atoms: C_13  and  N_14 
REMARK    6  A    between atoms: C_36  and  O_37 
ROOT
HETATM    1  N   UNL     1       5.423  26.967  52.589  1.00  0.00    -0.054 N 
HETATM    2  H   UNL     1       6.298  27.539  52.633  1.00  0.00     0.281 HD
HETATM    3  C   UNL     1       5.347  26.283  53.970  1.00  0.00     0.240 C 
HETATM    4  C   UNL     1       6.347  25.138  54.149  1.00  0.00    -0.020 A 
HETATM    5  C   UNL     1       7.088  24.636  53.058  1.00  0.00    -0.048 A 
HETATM    6  C   UNL     1       6.957  25.230  51.683  1.00  0.00     0.067 C 
HETATM    7  C   UNL     1       5.635  25.956  51.493  1.00  0.00     0.241 C 
HETATM    8  C   UNL     1       6.518  24.518  55.402  1.00  0.00     0.010 A 
HETATM    9  C   UNL     1       7.436  23.481  55.577  1.00  0.00     0.001 A 
HETATM   10  C   UNL     1       8.190  23.026  54.504  1.00  0.00     0.001 A 
HETATM   11  C   UNL     1       8.016  23.599  53.249  1.00  0.00     0.008 A 
ENDROOT
BRANCH   1  12
HETATM   12  C   UNL     1       4.267  27.938  52.240  1.00  0.00     0.319 C 
BRANCH  12  13
HETATM   13  C   UNL     1       4.504  28.754  50.972  1.00  0.00     0.188 C 
HETATM   14  O   UNL     1       5.643  29.169  50.745  1.00  0.00    -0.290 OA
BRANCH  13  15
HETATM   15  C   UNL     1       3.404  29.041  50.052  1.00  0.00     0.046 A 
HETATM   16  C   UNL     1       2.722  30.256  50.043  1.00  0.00     0.020 A 
HETATM   17  C   UNL     1       2.857  31.466  50.903  1.00  0.00     0.069 C 
HETATM   18  N   UNL     1       1.806  30.224  49.024  1.00  0.00    -0.358 N 
HETATM   19  H   UNL     1       1.185  30.982  48.771  1.00  0.00     0.166 HD
HETATM   20  C   UNL     1       1.861  29.018  48.371  1.00  0.00     0.043 A 
HETATM   21  C   UNL     1       2.830  28.238  49.004  1.00  0.00     0.009 A 
HETATM   22  C   UNL     1       1.125  28.580  47.265  1.00  0.00     0.033 A 
HETATM   23  C   UNL     1       3.046  26.939  48.489  1.00  0.00     0.051 A 
HETATM   24  C   UNL     1       2.319  26.475  47.380  1.00  0.00     0.069 A 
HETATM   25  C   UNL     1       1.373  27.295  46.777  1.00  0.00     0.039 A 
BRANCH  24  26
HETATM   26  O   UNL     1       2.645  25.202  46.996  1.00  0.00    -0.356 OA
HETATM   27  C   UNL     1       3.017  24.295  48.031  1.00  0.00     0.210 C 
ENDBRANCH  24  26
ENDBRANCH  13  15
ENDBRANCH  12  13
ENDBRANCH   1  12
BRANCH   3  28
HETATM   28  C   UNL     1       5.385  27.324  55.128  1.00  0.00     0.173 C 
BRANCH  28  29
HETATM   29  N   UNL     1       6.674  27.814  55.602  1.00  0.00    -0.278 N 
HETATM   30  C   UNL     1       7.728  28.249  54.846  1.00  0.00     0.261 A 
HETATM   31  O   UNL     1       7.837  28.224  53.632  1.00  0.00    -0.267 OA
HETATM   32  C   UNL     1       8.678  28.888  55.753  1.00  0.00     0.048 A 
HETATM   33  C   UNL     1       8.111  28.884  57.014  1.00  0.00     0.048 A 
HETATM   34  C   UNL     1       9.892  29.494  55.499  1.00  0.00     0.018 A 
HETATM   35  C   UNL     1       6.812  28.227  56.905  1.00  0.00     0.261 A 
HETATM   36  C   UNL     1       8.723  29.486  58.095  1.00  0.00     0.018 A 
HETATM   37  O   UNL     1       5.998  28.136  57.804  1.00  0.00    -0.267 OA
HETATM   38  C   UNL     1       9.957  30.102  57.866  1.00  0.00     0.001 A 
HETATM   39  C   UNL     1      10.537  30.105  56.579  1.00  0.00     0.001 A 
ENDBRANCH  28  29
ENDBRANCH   3  28
TORSDOF 6
ENDMDL
MODEL 8
REMARK VINA RESULT:     -10.7      2.430      3.725
REMARK  6 active torsions:
REMARK  status: ('A' for Active; 'I' for Inactive)
REMARK    1  A    between atoms: C_7  and  C_8 
REMARK    2  A    between atoms: C_8  and  C_9 
REMARK    3  A    between atoms: C_9  and  N_10 
REMARK    4  A    between atoms: C_12  and  C_13 
REMARK    5  A    between atoms: C_13  and  N_14 
REMARK    6  A    between atoms: C_36  and  O_37 
ROOT
HETATM    1  N   UNL     1       5.535  28.421  54.281  1.00  0.00    -0.054 N 
HETATM    2  H   UNL     1       6.192  29.120  53.862  1.00  0.00     0.281 HD
HETATM    3  C   UNL     1       5.735  27.152  53.427  1.00  0.00     0.240 C 
HETATM    4  C   UNL     1       5.104  27.238  52.035  1.00  0.00    -0.020 A 
HETATM    5  C   UNL     1       4.237  28.295  51.689  1.00  0.00    -0.048 A 
HETATM    6  C   UNL     1       3.926  29.403  52.656  1.00  0.00     0.067 C 
HETATM    7  C   UNL     1       4.150  28.985  54.101  1.00  0.00     0.241 C 
HETATM    8  C   UNL     1       5.333  26.234  51.076  1.00  0.00     0.010 A 
HETATM    9  C   UNL     1       4.771  26.308  49.799  1.00  0.00     0.001 A 
HETATM   10  C   UNL     1       3.954  27.378  49.459  1.00  0.00     0.001 A 
HETATM   11  C   UNL     1       3.685  28.366  50.399  1.00  0.00     0.008 A 
ENDROOT
BRANCH   1  12
HETATM   12  C   UNL     1       5.901  28.303  55.782  1.00  0.00     0.319 C 
BRANCH  12  13
HETATM   13  C   UNL     1       6.902  29.351  56.261  1.00  0.00     0.188 C 
HETATM   14  O   UNL     1       8.010  29.394  55.723  1.00  0.00    -0.290 OA
BRANCH  13  15
HETATM   15  C   UNL     1       6.555  30.278  57.339  1.00  0.00     0.046 A 
HETATM   16  C   UNL     1       7.341  30.444  58.476  1.00  0.00     0.020 A 
HETATM   17  C   UNL     1       8.596  29.768  58.912  1.00  0.00     0.069 C 
HETATM   18  N   UNL     1       6.776  31.427  59.246  1.00  0.00    -0.358 N 
HETATM   19  H   UNL     1       7.148  31.771  60.122  1.00  0.00     0.166 HD
HETATM   20  C   UNL     1       5.636  31.903  58.649  1.00  0.00     0.043 A 
HETATM   21  C   UNL     1       5.447  31.187  57.465  1.00  0.00     0.009 A 
HETATM   22  C   UNL     1       4.774  32.919  59.078  1.00  0.00     0.033 A 
HETATM   23  C   UNL     1       4.312  31.518  56.690  1.00  0.00     0.051 A 
HETATM   24  C   UNL     1       3.432  32.533  57.099  1.00  0.00     0.069 A 
HETATM   25  C   UNL     1       3.669  33.225  58.280  1.00  0.00     0.039 A 
BRANCH  24  26
HETATM   26  O   UNL     1       2.385  32.739  56.240  1.00  0.00    -0.356 OA
HETATM   27  C   UNL     1       2.480  32.129  54.956  1.00  0.00     0.210 C 
ENDBRANCH  24  26
ENDBRANCH  13  15
ENDBRANCH  12  13
ENDBRANCH   1  12
BRANCH   3  28
HETATM   28  C   UNL     1       7.228  26.707  53.403  1.00  0.00     0.173 C 
BRANCH  28  29
HETATM   29  N   UNL     1       7.569  25.341  53.781  1.00  0.00    -0.278 N 
HETATM   30  C   UNL     1       7.358  24.735  54.989  1.00  0.00     0.261 A 
HETATM   31  O   UNL     1       6.935  25.240  56.015  1.00  0.00    -0.267 OA
HETATM   32  C   UNL     1       7.608  23.307  54.808  1.00  0.00     0.048 A 
HETATM   33  C   UNL     1       7.881  23.103  53.468  1.00  0.00     0.048 A 
HETATM   34  C   UNL     1       7.529  22.262  55.706  1.00  0.00     0.018 A 
HETATM   35  C   UNL     1       7.819  24.404  52.808  1.00  0.00     0.261 A 
HETATM   36  C   UNL     1       8.088  21.842  52.946  1.00  0.00     0.018 A 
HETATM   37  O   UNL     1       7.910  24.583  51.609  1.00  0.00    -0.267 OA
HETATM   38  C   UNL     1       8.019  20.765  53.835  1.00  0.00     0.001 A 
HETATM   39  C   UNL     1       7.743  20.974  55.204  1.00  0.00     0.001 A 
ENDBRANCH  28  29
ENDBRANCH   3  28
TORSDOF 6
ENDMDL
MODEL 9
REMARK VINA RESULT:     -10.7      2.491      8.792
REMARK  6 active torsions:
REMARK  status: ('A' for Active; 'I' for Inactive)
REMARK    1  A    between atoms: C_7  and  C_8 
REMARK    2  A    between atoms: C_8  and  C_9 
REMARK    3  A    between atoms: C_9  and  N_10 
REMARK    4  A    between atoms: C_12  and  C_13 
REMARK    5  A    between atoms: C_13  and  N_14 
REMARK    6  A    between atoms: C_36  and  O_37 
ROOT
HETATM    1  N   UNL     1       6.065  25.688  53.439  1.00  0.00    -0.054 N 
HETATM    2  H   UNL     1       6.813  26.335  53.780  1.00  0.00     0.281 HD
HETATM    3  C   UNL     1       5.933  24.636  54.560  1.00  0.00     0.240 C 
HETATM    4  C   UNL     1       7.088  23.631  54.602  1.00  0.00    -0.020 A 
HETATM    5  C   UNL     1       8.039  23.564  53.563  1.00  0.00    -0.048 A 
HETATM    6  C   UNL     1       7.984  24.502  52.389  1.00  0.00     0.067 C 
HETATM    7  C   UNL     1       6.591  25.069  52.170  1.00  0.00     0.241 C 
HETATM    8  C   UNL     1       7.203  22.709  55.660  1.00  0.00     0.010 A 
HETATM    9  C   UNL     1       8.258  21.796  55.715  1.00  0.00     0.001 A 
HETATM   10  C   UNL     1       9.212  21.771  54.706  1.00  0.00     0.001 A 
HETATM   11  C   UNL     1       9.103  22.649  53.633  1.00  0.00     0.008 A 
ENDROOT
BRANCH   1  12
HETATM   12  C   UNL     1       4.812  26.556  53.162  1.00  0.00     0.319 C 
BRANCH  12  13
HETATM   13  C   UNL     1       5.124  27.925  52.565  1.00  0.00     0.188 C 
HETATM   14  O   UNL     1       6.214  28.442  52.819  1.00  0.00    -0.290 OA
BRANCH  13  15
HETATM   15  C   UNL     1       4.150  28.610  51.715  1.00  0.00     0.046 A 
HETATM   16  C   UNL     1       3.459  29.748  52.122  1.00  0.00     0.020 A 
HETATM   17  C   UNL     1       3.463  30.492  53.414  1.00  0.00     0.069 C 
HETATM   18  N   UNL     1       2.685  30.175  51.075  1.00  0.00    -0.358 N 
HETATM   19  H   UNL     1       2.091  30.995  51.082  1.00  0.00     0.166 HD
HETATM   20  C   UNL     1       2.841  29.342  49.996  1.00  0.00     0.043 A 
HETATM   21  C   UNL     1       3.730  28.331  50.367  1.00  0.00     0.009 A 
HETATM   22  C   UNL     1       2.262  29.427  48.725  1.00  0.00     0.033 A 
HETATM   23  C   UNL     1       4.029  27.351  49.393  1.00  0.00     0.051 A 
HETATM   24  C   UNL     1       3.460  27.413  48.111  1.00  0.00     0.069 A 
HETATM   25  C   UNL     1       2.590  28.446  47.785  1.00  0.00     0.039 A 
BRANCH  24  26
HETATM   26  O   UNL     1       3.851  26.397  47.280  1.00  0.00    -0.356 OA
HETATM   27  C   UNL     1       3.077  25.202  47.321  1.00  0.00     0.210 C 
ENDBRANCH  24  26
ENDBRANCH  13  15
ENDBRANCH  12  13
ENDBRANCH   1  12
BRANCH   3  28
HETATM   28  C   UNL     1       5.639  25.299  55.938  1.00  0.00     0.173 C 
BRANCH  28  29
HETATM   29  N   UNL     1       6.192  26.617  56.225  1.00  0.00    -0.278 N 
HETATM   30  C   UNL     1       5.504  27.782  56.431  1.00  0.00     0.261 A 
HETATM   31  O   UNL     1       4.304  27.970  56.322  1.00  0.00    -0.267 OA
HETATM   32  C   UNL     1       6.455  28.763  56.948  1.00  0.00     0.048 A 
HETATM   33  C   UNL     1       7.667  28.116  57.110  1.00  0.00     0.048 A 
HETATM   34  C   UNL     1       6.272  30.079  57.323  1.00  0.00     0.018 A 
HETATM   35  C   UNL     1       7.483  26.733  56.679  1.00  0.00     0.261 A 
HETATM   36  C   UNL     1       8.766  28.746  57.657  1.00  0.00     0.018 A 
HETATM   37  O   UNL     1       8.319  25.855  56.779  1.00  0.00    -0.267 OA
HETATM   38  C   UNL     1       8.609  30.082  58.040  1.00  0.00     0.001 A 
HETATM   39  C   UNL     1       7.373  30.743  57.873  1.00  0.00     0.001 A 
ENDBRANCH  28  29
ENDBRANCH   3  28
TORSDOF 6
ENDMDL
MODEL 10
REMARK VINA RESULT:     -10.5      1.755      2.411
REMARK  6 active torsions:
REMARK  status: ('A' for Active; 'I' for Inactive)
REMARK    1  A    between atoms: C_7  and  C_8 
REMARK    2  A    between atoms: C_8  and  C_9 
REMARK    3  A    between atoms: C_9  and  N_10 
REMARK    4  A    between atoms: C_12  and  C_13 
REMARK    5  A    between atoms: C_13  and  N_14 
REMARK    6  A    between atoms: C_36  and  O_37 
ROOT
HETATM    1  N   UNL     1       5.190  28.545  53.977  1.00  0.00    -0.054 N 
HETATM    2  H   UNL     1       5.945  29.146  53.573  1.00  0.00     0.281 HD
HETATM    3  C   UNL     1       5.333  27.202  53.230  1.00  0.00     0.240 C 
HETATM    4  C   UNL     1       4.831  27.243  51.784  1.00  0.00    -0.020 A 
HETATM    5  C   UNL     1       4.106  28.347  51.291  1.00  0.00    -0.048 A 
HETATM    6  C   UNL     1       3.828  29.549  52.151  1.00  0.00     0.067 C 
HETATM    7  C   UNL     1       3.887  29.221  53.635  1.00  0.00     0.241 C 
HETATM    8  C   UNL     1       5.038  26.152  50.918  1.00  0.00     0.010 A 
HETATM    9  C   UNL     1       4.594  26.183  49.594  1.00  0.00     0.001 A 
HETATM   10  C   UNL     1       3.919  27.296  49.111  1.00  0.00     0.001 A 
HETATM   11  C   UNL     1       3.673  28.373  49.955  1.00  0.00     0.008 A 
ENDROOT
BRANCH   1  12
HETATM   12  C   UNL     1       5.416  28.505  55.509  1.00  0.00     0.319 C 
BRANCH  12  13
HETATM   13  C   UNL     1       6.553  29.401  55.991  1.00  0.00     0.188 C 
HETATM   14  O   UNL     1       7.693  29.178  55.575  1.00  0.00    -0.290 OA
BRANCH  13  15
HETATM   15  C   UNL     1       6.298  30.493  56.930  1.00  0.00     0.046 A 
HETATM   16  C   UNL     1       5.322  31.464  56.715  1.00  0.00     0.020 A 
HETATM   17  C   UNL     1       4.391  31.686  55.572  1.00  0.00     0.069 C 
HETATM   18  N   UNL     1       5.294  32.291  57.807  1.00  0.00    -0.358 N 
HETATM   19  H   UNL     1       4.665  33.074  57.932  1.00  0.00     0.166 HD
HETATM   20  C   UNL     1       6.232  31.897  58.727  1.00  0.00     0.043 A 
HETATM   21  C   UNL     1       6.902  30.790  58.202  1.00  0.00     0.009 A 
HETATM   22  C   UNL     1       6.519  32.442  59.984  1.00  0.00     0.033 A 
HETATM   23  C   UNL     1       7.925  30.223  58.996  1.00  0.00     0.051 A 
HETATM   24  C   UNL     1       8.233  30.752  60.259  1.00  0.00     0.069 A 
HETATM   25  C   UNL     1       7.529  31.848  60.744  1.00  0.00     0.039 A 
BRANCH  24  26
HETATM   26  O   UNL     1       9.242  30.092  60.908  1.00  0.00    -0.356 OA
HETATM   27  C   UNL     1       9.321  30.269  62.320  1.00  0.00     0.210 C 
ENDBRANCH  24  26
ENDBRANCH  13  15
ENDBRANCH  12  13
ENDBRANCH   1  12
BRANCH   3  28
HETATM   28  C   UNL     1       6.770  26.619  53.370  1.00  0.00     0.173 C 
BRANCH  28  29
HETATM   29  N   UNL     1       6.940  25.184  53.566  1.00  0.00    -0.278 N 
HETATM   30  C   UNL     1       7.505  24.287  52.701  1.00  0.00     0.261 A 
HETATM   31  O   UNL     1       7.891  24.488  51.562  1.00  0.00    -0.267 OA
HETATM   32  C   UNL     1       7.698  23.039  53.436  1.00  0.00     0.048 A 
HETATM   33  C   UNL     1       7.313  23.267  54.744  1.00  0.00     0.048 A 
HETATM   34  C   UNL     1       8.235  21.834  53.030  1.00  0.00     0.018 A 
HETATM   35  C   UNL     1       6.862  24.653  54.831  1.00  0.00     0.261 A 
HETATM   36  C   UNL     1       7.444  22.304  55.725  1.00  0.00     0.018 A 
HETATM   37  O   UNL     1       6.546  25.220  55.858  1.00  0.00    -0.267 OA
HETATM   38  C   UNL     1       7.980  21.071  55.339  1.00  0.00     0.001 A 
HETATM   39  C   UNL     1       8.370  20.838  54.003  1.00  0.00     0.001 A 
ENDBRANCH  28  29
ENDBRANCH   3  28
TORSDOF 6
ENDMDL
