MODEL 1
REMARK VINA RESULT:      -9.7      0.000      0.000
REMARK  7 active torsions:
REMARK  status: ('A' for Active; 'I' for Inactive)
REMARK       I    between atoms: C_2  and  N_3 
REMARK    1  A    between atoms: N_3  and  C_4 
REMARK    2  A    between atoms: C_6  and  O_7 
REMARK    3  A    between atoms: O_7  and  C_8 
REMARK    4  A    between atoms: C_8  and  C_9 
REMARK    5  A    between atoms: C_9  and  N_10 
REMARK       I    between atoms: N_10  and  C_11 
REMARK    6  A    between atoms: C_11  and  C_12 
REMARK    7  A    between atoms: C_14  and  C_15 
ROOT
HETATM    1  N   UNL     1       5.108  27.167  54.941  1.00  0.00    -0.355 N 
HETATM    2  C   UNL     1       5.660  25.968  55.341  1.00  0.00     0.251 C 
HETATM    3  O   UNL     1       5.538  25.509  56.469  1.00  0.00    -0.268 OA
HETATM    4  H   UNL     1       5.082  27.402  53.958  1.00  0.00     0.162 HD
ENDROOT
BRANCH   1   5
HETATM    5  C   UNL     1       4.355  27.997  55.863  1.00  0.00     0.149 C 
BRANCH   5   6
HETATM    6  C   UNL     1       5.039  29.325  56.199  1.00  0.00     0.195 C 
BRANCH   6   7
HETATM    7  O   UNL     1       6.333  29.316  55.588  1.00  0.00    -0.349 OA
BRANCH   7   8
HETATM    8  C   UNL     1       7.412  29.495  56.411  1.00  0.00     0.070 A 
HETATM    9  C   UNL     1       7.368  29.946  57.734  1.00  0.00     0.066 A 
HETATM   10  C   UNL     1       8.546  30.079  58.479  1.00  0.00     0.037 A 
HETATM   11  C   UNL     1       9.770  29.755  57.881  1.00  0.00     0.029 A 
HETATM   12  C   UNL     1       9.821  29.315  56.558  1.00  0.00     0.005 A 
HETATM   13  C   UNL     1       8.642  29.189  55.827  1.00  0.00     0.037 A 
BRANCH  10  14
HETATM   14  N   UNL     1       8.585  30.512  59.821  1.00  0.00    -0.327 N 
HETATM   15  C   UNL     1       8.904  31.773  60.292  1.00  0.00     0.218 C 
HETATM   16  C   UNL     1       8.788  31.872  61.793  1.00  0.00     0.117 C 
HETATM   17  O   UNL     1       9.281  32.735  59.632  1.00  0.00    -0.274 OA
HETATM   18  H   UNL     1       8.372  29.809  60.517  1.00  0.00     0.169 HD
ENDBRANCH  10  14
ENDBRANCH   7   8
ENDBRANCH   6   7
ENDBRANCH   5   6
ENDBRANCH   1   5
BRANCH   2  19
HETATM   19  C   UNL     1       6.412  25.215  54.303  1.00  0.00     0.032 A 
HETATM   20  C   UNL     1       6.858  23.920  54.611  1.00  0.00     0.029 A 
HETATM   21  C   UNL     1       7.594  23.175  53.678  1.00  0.00    -0.023 A 
HETATM   22  C   UNL     1       7.878  23.758  52.434  1.00  0.00     0.012 A 
HETATM   23  C   UNL     1       7.446  25.053  52.128  1.00  0.00     0.002 A 
HETATM   24  C   UNL     1       6.715  25.784  53.063  1.00  0.00     0.017 A 
BRANCH  21  25
HETATM   25  C   UNL     1       8.063  21.826  53.974  1.00  0.00    -0.002 A 
HETATM   26  C   UNL     1       8.296  20.844  53.029  1.00  0.00     0.153 A 
HETATM   27  O   UNL     1       8.717  19.693  53.615  1.00  0.00    -0.334 OA
HETATM   28  C   UNL     1       8.754  19.922  54.950  1.00  0.00     0.142 A 
HETATM   29  C   UNL     1       8.362  21.211  55.225  1.00  0.00     0.038 A 
ENDBRANCH  21  25
ENDBRANCH   2  19
TORSDOF 7
ENDMDL
MODEL 2
REMARK VINA RESULT:      -9.3      2.211      3.079
REMARK  7 active torsions:
REMARK  status: ('A' for Active; 'I' for Inactive)
REMARK       I    between atoms: C_2  and  N_3 
REMARK    1  A    between atoms: N_3  and  C_4 
REMARK    2  A    between atoms: C_6  and  O_7 
REMARK    3  A    between atoms: O_7  and  C_8 
REMARK    4  A    between atoms: C_8  and  C_9 
REMARK    5  A    between atoms: C_9  and  N_10 
REMARK       I    between atoms: N_10  and  C_11 
REMARK    6  A    between atoms: C_11  and  C_12 
REMARK    7  A    between atoms: C_14  and  C_15 
ROOT
HETATM    1  N   UNL     1       7.004  27.786  56.206  1.00  0.00    -0.355 N 
HETATM    2  C   UNL     1       7.006  26.412  56.317  1.00  0.00     0.251 C 
HETATM    3  O   UNL     1       6.747  25.815  57.354  1.00  0.00    -0.268 OA
HETATM    4  H   UNL     1       7.040  28.213  55.291  1.00  0.00     0.162 HD
ENDROOT
BRANCH   1   5
HETATM    5  C   UNL     1       6.719  28.635  57.348  1.00  0.00     0.149 C 
BRANCH   5   6
HETATM    6  C   UNL     1       7.937  29.408  57.861  1.00  0.00     0.195 C 
BRANCH   6   7
HETATM    7  O   UNL     1       7.484  30.690  58.307  1.00  0.00    -0.349 OA
BRANCH   7   8
HETATM    8  C   UNL     1       7.738  31.023  59.610  1.00  0.00     0.070 A 
HETATM    9  C   UNL     1       6.921  31.807  60.430  1.00  0.00     0.066 A 
HETATM   10  C   UNL     1       7.288  32.069  61.756  1.00  0.00     0.037 A 
HETATM   11  C   UNL     1       8.485  31.536  62.250  1.00  0.00     0.029 A 
HETATM   12  C   UNL     1       9.309  30.763  61.432  1.00  0.00     0.005 A 
HETATM   13  C   UNL     1       8.934  30.511  60.115  1.00  0.00     0.037 A 
BRANCH  10  14
HETATM   14  N   UNL     1       6.513  32.837  62.651  1.00  0.00    -0.327 N 
HETATM   15  C   UNL     1       5.432  32.418  63.405  1.00  0.00     0.218 C 
HETATM   16  C   UNL     1       4.887  33.514  64.287  1.00  0.00     0.117 C 
HETATM   17  O   UNL     1       4.901  31.314  63.384  1.00  0.00    -0.274 OA
HETATM   18  H   UNL     1       6.772  33.812  62.732  1.00  0.00     0.169 HD
ENDBRANCH  10  14
ENDBRANCH   7   8
ENDBRANCH   6   7
ENDBRANCH   5   6
ENDBRANCH   1   5
BRANCH   2  19
HETATM   19  C   UNL     1       7.318  25.654  55.076  1.00  0.00     0.032 A 
HETATM   20  C   UNL     1       7.580  24.279  55.182  1.00  0.00     0.029 A 
HETATM   21  C   UNL     1       7.905  23.523  54.046  1.00  0.00    -0.023 A 
HETATM   22  C   UNL     1       7.967  24.175  52.805  1.00  0.00     0.012 A 
HETATM   23  C   UNL     1       7.718  25.547  52.699  1.00  0.00     0.002 A 
HETATM   24  C   UNL     1       7.397  26.289  53.833  1.00  0.00     0.017 A 
BRANCH  21  25
HETATM   25  C   UNL     1       8.175  22.092  54.132  1.00  0.00    -0.002 A 
HETATM   26  C   UNL     1       8.298  21.244  53.047  1.00  0.00     0.153 A 
HETATM   27  O   UNL     1       8.540  19.969  53.448  1.00  0.00    -0.334 OA
HETATM   28  C   UNL     1       8.571  19.984  54.803  1.00  0.00     0.142 A 
HETATM   29  C   UNL     1       8.352  21.257  55.273  1.00  0.00     0.038 A 
ENDBRANCH  21  25
ENDBRANCH   2  19
TORSDOF 7
ENDMDL
MODEL 3
REMARK VINA RESULT:      -9.1      1.390      1.963
REMARK  7 active torsions:
REMARK  status: ('A' for Active; 'I' for Inactive)
REMARK       I    between atoms: C_2  and  N_3 
REMARK    1  A    between atoms: N_3  and  C_4 
REMARK    2  A    between atoms: C_6  and  O_7 
REMARK    3  A    between atoms: O_7  and  C_8 
REMARK    4  A    between atoms: C_8  and  C_9 
REMARK    5  A    between atoms: C_9  and  N_10 
REMARK       I    between atoms: N_10  and  C_11 
REMARK    6  A    between atoms: C_11  and  C_12 
REMARK    7  A    between atoms: C_14  and  C_15 
ROOT
HETATM    1  N   UNL     1       5.062  26.892  54.992  1.00  0.00    -0.355 N 
HETATM    2  C   UNL     1       6.291  26.362  55.323  1.00  0.00     0.251 C 
HETATM    3  O   UNL     1       6.896  26.643  56.349  1.00  0.00    -0.268 OA
HETATM    4  H   UNL     1       4.531  26.486  54.234  1.00  0.00     0.162 HD
ENDROOT
BRANCH   1   5
HETATM    5  C   UNL     1       4.405  27.865  55.845  1.00  0.00     0.149 C 
BRANCH   5   6
HETATM    6  C   UNL     1       4.462  29.296  55.306  1.00  0.00     0.195 C 
BRANCH   6   7
HETATM    7  O   UNL     1       5.743  29.838  55.641  1.00  0.00    -0.349 OA
BRANCH   7   8
HETATM    8  C   UNL     1       5.807  30.655  56.737  1.00  0.00     0.070 A 
HETATM    9  C   UNL     1       6.671  30.500  57.826  1.00  0.00     0.066 A 
HETATM   10  C   UNL     1       6.646  31.413  58.887  1.00  0.00     0.037 A 
HETATM   11  C   UNL     1       5.745  32.484  58.845  1.00  0.00     0.029 A 
HETATM   12  C   UNL     1       4.874  32.637  57.766  1.00  0.00     0.005 A 
HETATM   13  C   UNL     1       4.906  31.721  56.718  1.00  0.00     0.037 A 
BRANCH  10  14
HETATM   14  N   UNL     1       7.493  31.335  60.014  1.00  0.00    -0.327 N 
HETATM   15  C   UNL     1       8.721  31.946  60.190  1.00  0.00     0.218 C 
HETATM   16  C   UNL     1       9.311  31.669  61.550  1.00  0.00     0.117 C 
HETATM   17  O   UNL     1       9.337  32.617  59.369  1.00  0.00    -0.274 OA
HETATM   18  H   UNL     1       7.167  30.747  60.770  1.00  0.00     0.169 HD
ENDBRANCH  10  14
ENDBRANCH   7   8
ENDBRANCH   6   7
ENDBRANCH   5   6
ENDBRANCH   1   5
BRANCH   2  19
HETATM   19  C   UNL     1       6.861  25.379  54.363  1.00  0.00     0.032 A 
HETATM   20  C   UNL     1       7.176  24.094  54.832  1.00  0.00     0.029 A 
HETATM   21  C   UNL     1       7.740  23.137  53.975  1.00  0.00    -0.023 A 
HETATM   22  C   UNL     1       7.986  23.499  52.642  1.00  0.00     0.012 A 
HETATM   23  C   UNL     1       7.684  24.782  52.175  1.00  0.00     0.002 A 
HETATM   24  C   UNL     1       7.125  25.724  53.035  1.00  0.00     0.017 A 
BRANCH  21  25
HETATM   25  C   UNL     1       8.070  21.795  54.439  1.00  0.00    -0.002 A 
HETATM   26  C   UNL     1       8.367  20.724  53.617  1.00  0.00     0.153 A 
HETATM   27  O   UNL     1       8.623  19.605  54.344  1.00  0.00    -0.334 OA
HETATM   28  C   UNL     1       8.487  19.946  55.649  1.00  0.00     0.142 A 
HETATM   29  C   UNL     1       8.148  21.274  55.764  1.00  0.00     0.038 A 
ENDBRANCH  21  25
ENDBRANCH   2  19
TORSDOF 7
ENDMDL
MODEL 4
REMARK VINA RESULT:      -8.6      2.608     10.300
REMARK  7 active torsions:
REMARK  status: ('A' for Active; 'I' for Inactive)
REMARK       I    between atoms: C_2  and  N_3 
REMARK    1  A    between atoms: N_3  and  C_4 
REMARK    2  A    between atoms: C_6  and  O_7 
REMARK    3  A    between atoms: O_7  and  C_8 
REMARK    4  A    between atoms: C_8  and  C_9 
REMARK    5  A    between atoms: C_9  and  N_10 
REMARK       I    between atoms: N_10  and  C_11 
REMARK    6  A    between atoms: C_11  and  C_12 
REMARK    7  A    between atoms: C_14  and  C_15 
ROOT
HETATM    1  N   UNL     1       6.888  29.871  58.340  1.00  0.00    -0.355 N 
HETATM    2  C   UNL     1       6.937  31.195  58.722  1.00  0.00     0.251 C 
HETATM    3  O   UNL     1       6.414  32.103  58.089  1.00  0.00    -0.268 OA
HETATM    4  H   UNL     1       7.174  29.152  58.990  1.00  0.00     0.162 HD
ENDROOT
BRANCH   1   5
HETATM    5  C   UNL     1       6.223  29.462  57.116  1.00  0.00     0.149 C 
BRANCH   5   6
HETATM    6  C   UNL     1       6.447  27.993  56.752  1.00  0.00     0.195 C 
BRANCH   6   7
HETATM    7  O   UNL     1       7.209  27.954  55.542  1.00  0.00    -0.349 OA
BRANCH   7   8
HETATM    8  C   UNL     1       7.331  26.740  54.921  1.00  0.00     0.070 A 
HETATM    9  C   UNL     1       7.249  25.490  55.542  1.00  0.00     0.066 A 
HETATM   10  C   UNL     1       7.382  24.315  54.792  1.00  0.00     0.037 A 
HETATM   11  C   UNL     1       7.599  24.408  53.412  1.00  0.00     0.029 A 
HETATM   12  C   UNL     1       7.694  25.652  52.790  1.00  0.00     0.005 A 
HETATM   13  C   UNL     1       7.562  26.814  53.546  1.00  0.00     0.037 A 
BRANCH  10  14
HETATM   14  N   UNL     1       7.297  23.017  55.340  1.00  0.00    -0.327 N 
HETATM   15  C   UNL     1       8.307  22.078  55.447  1.00  0.00     0.218 C 
HETATM   16  C   UNL     1       7.849  20.817  56.137  1.00  0.00     0.117 C 
HETATM   17  O   UNL     1       9.452  22.174  55.021  1.00  0.00    -0.274 OA
HETATM   18  H   UNL     1       6.383  22.740  55.675  1.00  0.00     0.169 HD
ENDBRANCH  10  14
ENDBRANCH   7   8
ENDBRANCH   6   7
ENDBRANCH   5   6
ENDBRANCH   1   5
BRANCH   2  19
HETATM   19  C   UNL     1       7.654  31.484  59.992  1.00  0.00     0.032 A 
HETATM   20  C   UNL     1       6.913  31.974  61.080  1.00  0.00     0.029 A 
HETATM   21  C   UNL     1       7.544  32.287  62.293  1.00  0.00    -0.023 A 
HETATM   22  C   UNL     1       8.932  32.105  62.389  1.00  0.00     0.012 A 
HETATM   23  C   UNL     1       9.674  31.629  61.304  1.00  0.00     0.002 A 
HETATM   24  C   UNL     1       9.038  31.321  60.104  1.00  0.00     0.017 A 
BRANCH  21  25
HETATM   25  C   UNL     1       6.793  32.791  63.437  1.00  0.00    -0.002 A 
HETATM   26  C   UNL     1       7.357  33.343  64.572  1.00  0.00     0.153 A 
HETATM   27  O   UNL     1       6.400  33.711  65.464  1.00  0.00    -0.334 OA
HETATM   28  C   UNL     1       5.205  33.394  64.910  1.00  0.00     0.142 A 
HETATM   29  C   UNL     1       5.387  32.827  63.670  1.00  0.00     0.038 A 
ENDBRANCH  21  25
ENDBRANCH   2  19
TORSDOF 7
ENDMDL
MODEL 5
REMARK VINA RESULT:      -8.5      4.977      8.433
REMARK  7 active torsions:
REMARK  status: ('A' for Active; 'I' for Inactive)
REMARK       I    between atoms: C_2  and  N_3 
REMARK    1  A    between atoms: N_3  and  C_4 
REMARK    2  A    between atoms: C_6  and  O_7 
REMARK    3  A    between atoms: O_7  and  C_8 
REMARK    4  A    between atoms: C_8  and  C_9 
REMARK    5  A    between atoms: C_9  and  N_10 
REMARK       I    between atoms: N_10  and  C_11 
REMARK    6  A    between atoms: C_11  and  C_12 
REMARK    7  A    between atoms: C_14  and  C_15 
ROOT
HETATM    1  N   UNL     1       6.562  26.932  53.384  1.00  0.00    -0.355 N 
HETATM    2  C   UNL     1       6.275  26.564  54.682  1.00  0.00     0.251 C 
HETATM    3  O   UNL     1       5.354  27.041  55.334  1.00  0.00    -0.268 OA
HETATM    4  H   UNL     1       7.207  26.378  52.839  1.00  0.00     0.162 HD
ENDROOT
BRANCH   1   5
HETATM    5  C   UNL     1       5.792  27.955  52.702  1.00  0.00     0.149 C 
BRANCH   5   6
HETATM    6  C   UNL     1       4.601  27.408  51.911  1.00  0.00     0.195 C 
BRANCH   6   7
HETATM    7  O   UNL     1       4.407  28.253  50.773  1.00  0.00    -0.349 OA
BRANCH   7   8
HETATM    8  C   UNL     1       3.895  27.670  49.645  1.00  0.00     0.070 A 
HETATM    9  C   UNL     1       2.604  27.855  49.140  1.00  0.00     0.066 A 
HETATM   10  C   UNL     1       2.202  27.207  47.966  1.00  0.00     0.037 A 
HETATM   11  C   UNL     1       3.108  26.370  47.303  1.00  0.00     0.029 A 
HETATM   12  C   UNL     1       4.393  26.174  47.809  1.00  0.00     0.005 A 
HETATM   13  C   UNL     1       4.781  26.822  48.979  1.00  0.00     0.037 A 
BRANCH  10  14
HETATM   14  N   UNL     1       0.924  27.352  47.384  1.00  0.00    -0.327 N 
HETATM   15  C   UNL     1       0.466  28.398  46.603  1.00  0.00     0.218 C 
HETATM   16  C   UNL     1      -0.945  28.178  46.117  1.00  0.00     0.117 C 
HETATM   17  O   UNL     1       1.066  29.431  46.326  1.00  0.00    -0.274 OA
HETATM   18  H   UNL     1       0.264  26.610  47.580  1.00  0.00     0.169 HD
ENDBRANCH  10  14
ENDBRANCH   7   8
ENDBRANCH   6   7
ENDBRANCH   5   6
ENDBRANCH   1   5
BRANCH   2  19
HETATM   19  C   UNL     1       7.141  25.509  55.271  1.00  0.00     0.032 A 
HETATM   20  C   UNL     1       7.285  24.298  54.575  1.00  0.00     0.029 A 
HETATM   21  C   UNL     1       8.070  23.261  55.100  1.00  0.00    -0.023 A 
HETATM   22  C   UNL     1       8.701  23.460  56.337  1.00  0.00     0.012 A 
HETATM   23  C   UNL     1       8.549  24.661  57.038  1.00  0.00     0.002 A 
HETATM   24  C   UNL     1       7.767  25.685  56.509  1.00  0.00     0.017 A 
BRANCH  21  25
HETATM   25  C   UNL     1       8.238  21.997  54.391  1.00  0.00    -0.002 A 
HETATM   26  C   UNL     1       8.664  20.816  54.970  1.00  0.00     0.153 A 
HETATM   27  O   UNL     1       8.729  19.817  54.052  1.00  0.00    -0.334 OA
HETATM   28  C   UNL     1       8.349  20.350  52.865  1.00  0.00     0.142 A 
HETATM   29  C   UNL     1       8.039  21.681  53.015  1.00  0.00     0.038 A 
ENDBRANCH  21  25
ENDBRANCH   2  19
TORSDOF 7
ENDMDL
MODEL 6
REMARK VINA RESULT:      -8.3      2.789     10.148
REMARK  7 active torsions:
REMARK  status: ('A' for Active; 'I' for Inactive)
REMARK       I    between atoms: C_2  and  N_3 
REMARK    1  A    between atoms: N_3  and  C_4 
REMARK    2  A    between atoms: C_6  and  O_7 
REMARK    3  A    between atoms: O_7  and  C_8 
REMARK    4  A    between atoms: C_8  and  C_9 
REMARK    5  A    between atoms: C_9  and  N_10 
REMARK       I    between atoms: N_10  and  C_11 
REMARK    6  A    between atoms: C_11  and  C_12 
REMARK    7  A    between atoms: C_14  and  C_15 
ROOT
HETATM    1  N   UNL     1       5.390  31.298  59.010  1.00  0.00    -0.355 N 
HETATM    2  C   UNL     1       6.747  31.535  58.951  1.00  0.00     0.251 C 
HETATM    3  O   UNL     1       7.374  31.630  57.903  1.00  0.00    -0.268 OA
HETATM    4  H   UNL     1       4.900  31.415  59.885  1.00  0.00     0.162 HD
ENDROOT
BRANCH   1   5
HETATM    5  C   UNL     1       4.603  31.109  57.804  1.00  0.00     0.149 C 
BRANCH   5   6
HETATM    6  C   UNL     1       4.565  29.660  57.312  1.00  0.00     0.195 C 
BRANCH   6   7
HETATM    7  O   UNL     1       5.519  29.533  56.254  1.00  0.00    -0.349 OA
BRANCH   7   8
HETATM    8  C   UNL     1       6.301  28.409  56.252  1.00  0.00     0.070 A 
HETATM    9  C   UNL     1       6.560  27.592  55.147  1.00  0.00     0.066 A 
HETATM   10  C   UNL     1       7.387  26.470  55.272  1.00  0.00     0.037 A 
HETATM   11  C   UNL     1       7.953  26.175  56.519  1.00  0.00     0.029 A 
HETATM   12  C   UNL     1       7.688  26.980  57.627  1.00  0.00     0.005 A 
HETATM   13  C   UNL     1       6.862  28.092  57.491  1.00  0.00     0.037 A 
BRANCH  10  14
HETATM   14  N   UNL     1       7.709  25.605  54.204  1.00  0.00    -0.327 N 
HETATM   15  C   UNL     1       7.275  24.307  54.008  1.00  0.00     0.218 C 
HETATM   16  C   UNL     1       7.792  23.716  52.720  1.00  0.00     0.117 C 
HETATM   17  O   UNL     1       6.581  23.639  54.766  1.00  0.00    -0.274 OA
HETATM   18  H   UNL     1       8.348  25.979  53.513  1.00  0.00     0.169 HD
ENDBRANCH  10  14
ENDBRANCH   7   8
ENDBRANCH   6   7
ENDBRANCH   5   6
ENDBRANCH   1   5
BRANCH   2  19
HETATM   19  C   UNL     1       7.440  31.705  60.255  1.00  0.00     0.032 A 
HETATM   20  C   UNL     1       6.701  32.189  61.346  1.00  0.00     0.029 A 
HETATM   21  C   UNL     1       7.313  32.391  62.592  1.00  0.00    -0.023 A 
HETATM   22  C   UNL     1       8.680  32.105  62.718  1.00  0.00     0.012 A 
HETATM   23  C   UNL     1       9.422  31.633  61.630  1.00  0.00     0.002 A 
HETATM   24  C   UNL     1       8.805  31.436  60.397  1.00  0.00     0.017 A 
BRANCH  21  25
HETATM   25  C   UNL     1       6.563  32.887  63.740  1.00  0.00    -0.002 A 
HETATM   26  C   UNL     1       5.199  32.747  63.914  1.00  0.00     0.153 A 
HETATM   27  O   UNL     1       4.792  33.322  65.077  1.00  0.00    -0.334 OA
HETATM   28  C   UNL     1       5.897  33.843  65.663  1.00  0.00     0.142 A 
HETATM   29  C   UNL     1       7.008  33.608  64.887  1.00  0.00     0.038 A 
ENDBRANCH  21  25
ENDBRANCH   2  19
TORSDOF 7
ENDMDL
MODEL 7
REMARK VINA RESULT:      -8.0      2.604      4.063
REMARK  7 active torsions:
REMARK  status: ('A' for Active; 'I' for Inactive)
REMARK       I    between atoms: C_2  and  N_3 
REMARK    1  A    between atoms: N_3  and  C_4 
REMARK    2  A    between atoms: C_6  and  O_7 
REMARK    3  A    between atoms: O_7  and  C_8 
REMARK    4  A    between atoms: C_8  and  C_9 
REMARK    5  A    between atoms: C_9  and  N_10 
REMARK       I    between atoms: N_10  and  C_11 
REMARK    6  A    between atoms: C_11  and  C_12 
REMARK    7  A    between atoms: C_14  and  C_15 
ROOT
HETATM    1  N   UNL     1       5.955  29.736  55.978  1.00  0.00    -0.355 N 
HETATM    2  C   UNL     1       4.863  28.910  55.812  1.00  0.00     0.251 C 
HETATM    3  O   UNL     1       3.739  29.184  56.212  1.00  0.00    -0.268 OA
HETATM    4  H   UNL     1       6.807  29.545  55.470  1.00  0.00     0.162 HD
ENDROOT
BRANCH   1   5
HETATM    5  C   UNL     1       5.845  31.000  56.681  1.00  0.00     0.149 C 
BRANCH   5   6
HETATM    6  C   UNL     1       6.160  30.906  58.176  1.00  0.00     0.195 C 
BRANCH   6   7
HETATM    7  O   UNL     1       7.287  31.747  58.439  1.00  0.00    -0.349 OA
BRANCH   7   8
HETATM    8  C   UNL     1       7.624  31.946  59.751  1.00  0.00     0.070 A 
HETATM    9  C   UNL     1       6.812  32.535  60.725  1.00  0.00     0.066 A 
HETATM   10  C   UNL     1       7.270  32.674  62.041  1.00  0.00     0.037 A 
HETATM   11  C   UNL     1       8.551  32.215  62.370  1.00  0.00     0.029 A 
HETATM   12  C   UNL     1       9.369  31.636  61.399  1.00  0.00     0.005 A 
HETATM   13  C   UNL     1       8.903  31.506  60.093  1.00  0.00     0.037 A 
BRANCH  10  14
HETATM   14  N   UNL     1       6.508  33.243  63.084  1.00  0.00    -0.327 N 
HETATM   15  C   UNL     1       5.435  32.679  63.750  1.00  0.00     0.218 C 
HETATM   16  C   UNL     1       4.904  33.572  64.845  1.00  0.00     0.117 C 
HETATM   17  O   UNL     1       4.900  31.602  63.511  1.00  0.00    -0.274 OA
HETATM   18  H   UNL     1       6.770  34.181  63.360  1.00  0.00     0.169 HD
ENDBRANCH  10  14
ENDBRANCH   7   8
ENDBRANCH   6   7
ENDBRANCH   5   6
ENDBRANCH   1   5
BRANCH   2  19
HETATM   19  C   UNL     1       5.108  27.639  55.080  1.00  0.00     0.032 A 
HETATM   20  C   UNL     1       5.903  26.658  55.692  1.00  0.00     0.029 A 
HETATM   21  C   UNL     1       6.185  25.452  55.034  1.00  0.00    -0.023 A 
HETATM   22  C   UNL     1       5.659  25.254  53.749  1.00  0.00     0.012 A 
HETATM   23  C   UNL     1       4.875  26.234  53.131  1.00  0.00     0.002 A 
HETATM   24  C   UNL     1       4.602  27.429  53.794  1.00  0.00     0.017 A 
BRANCH  21  25
HETATM   25  C   UNL     1       7.005  24.416  55.654  1.00  0.00    -0.002 A 
HETATM   26  C   UNL     1       7.654  24.543  56.867  1.00  0.00     0.153 A 
HETATM   27  O   UNL     1       8.344  23.413  57.172  1.00  0.00    -0.334 OA
HETATM   28  C   UNL     1       8.148  22.545  56.150  1.00  0.00     0.142 A 
HETATM   29  C   UNL     1       7.337  23.109  55.193  1.00  0.00     0.038 A 
ENDBRANCH  21  25
ENDBRANCH   2  19
TORSDOF 7
ENDMDL
MODEL 8
REMARK VINA RESULT:      -7.9      3.555     11.120
REMARK  7 active torsions:
REMARK  status: ('A' for Active; 'I' for Inactive)
REMARK       I    between atoms: C_2  and  N_3 
REMARK    1  A    between atoms: N_3  and  C_4 
REMARK    2  A    between atoms: C_6  and  O_7 
REMARK    3  A    between atoms: O_7  and  C_8 
REMARK    4  A    between atoms: C_8  and  C_9 
REMARK    5  A    between atoms: C_9  and  N_10 
REMARK       I    between atoms: N_10  and  C_11 
REMARK    6  A    between atoms: C_11  and  C_12 
REMARK    7  A    between atoms: C_14  and  C_15 
ROOT
HETATM    1  N   UNL     1       7.069  31.046  59.372  1.00  0.00    -0.355 N 
HETATM    2  C   UNL     1       6.482  32.148  59.956  1.00  0.00     0.251 C 
HETATM    3  O   UNL     1       5.699  32.888  59.374  1.00  0.00    -0.268 OA
HETATM    4  H   UNL     1       7.555  30.374  59.949  1.00  0.00     0.162 HD
ENDROOT
BRANCH   1   5
HETATM    5  C   UNL     1       6.816  30.702  57.985  1.00  0.00     0.149 C 
BRANCH   5   6
HETATM    6  C   UNL     1       7.917  29.850  57.349  1.00  0.00     0.195 C 
BRANCH   6   7
HETATM    7  O   UNL     1       7.336  29.130  56.257  1.00  0.00    -0.349 OA
BRANCH   7   8
HETATM    8  C   UNL     1       7.377  27.763  56.320  1.00  0.00     0.070 A 
HETATM    9  C   UNL     1       7.387  26.892  55.226  1.00  0.00     0.066 A 
HETATM   10  C   UNL     1       7.439  25.507  55.423  1.00  0.00     0.037 A 
HETATM   11  C   UNL     1       7.481  25.004  56.729  1.00  0.00     0.029 A 
HETATM   12  C   UNL     1       7.460  25.869  57.823  1.00  0.00     0.005 A 
HETATM   13  C   UNL     1       7.406  27.244  57.616  1.00  0.00     0.037 A 
BRANCH  10  14
HETATM   14  N   UNL     1       7.468  24.563  54.374  1.00  0.00    -0.327 N 
HETATM   15  C   UNL     1       8.258  23.432  54.277  1.00  0.00     0.218 C 
HETATM   16  C   UNL     1       7.972  22.636  53.028  1.00  0.00     0.117 C 
HETATM   17  O   UNL     1       9.134  23.074  55.056  1.00  0.00    -0.274 OA
HETATM   18  H   UNL     1       6.848  24.751  53.596  1.00  0.00     0.169 HD
ENDBRANCH  10  14
ENDBRANCH   7   8
ENDBRANCH   6   7
ENDBRANCH   5   6
ENDBRANCH   1   5
BRANCH   2  19
HETATM   19  C   UNL     1       6.827  32.397  61.381  1.00  0.00     0.032 A 
HETATM   20  C   UNL     1       5.837  32.927  62.224  1.00  0.00     0.029 A 
HETATM   21  C   UNL     1       6.118  33.204  63.571  1.00  0.00    -0.023 A 
HETATM   22  C   UNL     1       7.411  32.946  64.050  1.00  0.00     0.012 A 
HETATM   23  C   UNL     1       8.402  32.430  63.209  1.00  0.00     0.002 A 
HETATM   24  C   UNL     1       8.113  32.158  61.873  1.00  0.00     0.017 A 
BRANCH  21  25
HETATM   25  C   UNL     1       5.104  33.748  64.466  1.00  0.00    -0.002 A 
HETATM   26  C   UNL     1       5.228  33.837  65.840  1.00  0.00     0.153 A 
HETATM   27  O   UNL     1       4.114  34.380  66.397  1.00  0.00    -0.334 OA
HETATM   28  C   UNL     1       3.256  34.644  65.382  1.00  0.00     0.142 A 
HETATM   29  C   UNL     1       3.811  34.276  64.179  1.00  0.00     0.038 A 
ENDBRANCH  21  25
ENDBRANCH   2  19
TORSDOF 7
ENDMDL
MODEL 9
REMARK VINA RESULT:      -7.8      2.327      3.216
REMARK  7 active torsions:
REMARK  status: ('A' for Active; 'I' for Inactive)
REMARK       I    between atoms: C_2  and  N_3 
REMARK    1  A    between atoms: N_3  and  C_4 
REMARK    2  A    between atoms: C_6  and  O_7 
REMARK    3  A    between atoms: O_7  and  C_8 
REMARK    4  A    between atoms: C_8  and  C_9 
REMARK    5  A    between atoms: C_9  and  N_10 
REMARK       I    between atoms: N_10  and  C_11 
REMARK    6  A    between atoms: C_11  and  C_12 
REMARK    7  A    between atoms: C_14  and  C_15 
ROOT
HETATM    1  N   UNL     1       4.937  26.673  54.193  1.00  0.00    -0.355 N 
HETATM    2  C   UNL     1       6.121  26.168  53.700  1.00  0.00     0.251 C 
HETATM    3  O   UNL     1       6.574  26.455  52.599  1.00  0.00    -0.268 OA
HETATM    4  H   UNL     1       4.710  26.550  55.170  1.00  0.00     0.162 HD
ENDROOT
BRANCH   1   5
HETATM    5  C   UNL     1       4.115  27.575  53.407  1.00  0.00     0.149 C 
BRANCH   5   6
HETATM    6  C   UNL     1       3.910  28.946  54.055  1.00  0.00     0.195 C 
BRANCH   6   7
HETATM    7  O   UNL     1       4.136  28.804  55.461  1.00  0.00    -0.349 OA
BRANCH   7   8
HETATM    8  C   UNL     1       4.071  29.941  56.220  1.00  0.00     0.070 A 
HETATM    9  C   UNL     1       4.731  30.153  57.435  1.00  0.00     0.066 A 
HETATM   10  C   UNL     1       4.591  31.369  58.115  1.00  0.00     0.037 A 
HETATM   11  C   UNL     1       3.783  32.371  57.563  1.00  0.00     0.029 A 
HETATM   12  C   UNL     1       3.114  32.159  56.358  1.00  0.00     0.005 A 
HETATM   13  C   UNL     1       3.259  30.945  55.692  1.00  0.00     0.037 A 
BRANCH  10  14
HETATM   14  N   UNL     1       5.233  31.667  59.337  1.00  0.00    -0.327 N 
HETATM   15  C   UNL     1       6.560  32.005  59.532  1.00  0.00     0.218 C 
HETATM   16  C   UNL     1       6.870  32.304  60.978  1.00  0.00     0.117 C 
HETATM   17  O   UNL     1       7.445  32.042  58.685  1.00  0.00    -0.274 OA
HETATM   18  H   UNL     1       4.654  31.607  60.164  1.00  0.00     0.169 HD
ENDBRANCH  10  14
ENDBRANCH   7   8
ENDBRANCH   6   7
ENDBRANCH   5   6
ENDBRANCH   1   5
BRANCH   2  19
HETATM   19  C   UNL     1       6.868  25.250  54.599  1.00  0.00     0.032 A 
HETATM   20  C   UNL     1       7.200  23.972  54.122  1.00  0.00     0.029 A 
HETATM   21  C   UNL     1       7.882  23.058  54.939  1.00  0.00    -0.023 A 
HETATM   22  C   UNL     1       8.217  23.449  56.244  1.00  0.00     0.012 A 
HETATM   23  C   UNL     1       7.876  24.717  56.726  1.00  0.00     0.002 A 
HETATM   24  C   UNL     1       7.199  25.617  55.907  1.00  0.00     0.017 A 
BRANCH  21  25
HETATM   25  C   UNL     1       8.242  21.727  54.462  1.00  0.00    -0.002 A 
HETATM   26  C   UNL     1       8.050  21.271  53.172  1.00  0.00     0.153 A 
HETATM   27  O   UNL     1       8.478  19.988  53.038  1.00  0.00    -0.334 OA
HETATM   28  C   UNL     1       8.950  19.604  54.248  1.00  0.00     0.142 A 
HETATM   29  C   UNL     1       8.828  20.629  55.157  1.00  0.00     0.038 A 
ENDBRANCH  21  25
ENDBRANCH   2  19
TORSDOF 7
ENDMDL
MODEL 10
REMARK VINA RESULT:      -7.7      4.475      7.509
REMARK  7 active torsions:
REMARK  status: ('A' for Active; 'I' for Inactive)
REMARK       I    between atoms: C_2  and  N_3 
REMARK    1  A    between atoms: N_3  and  C_4 
REMARK    2  A    between atoms: C_6  and  O_7 
REMARK    3  A    between atoms: O_7  and  C_8 
REMARK    4  A    between atoms: C_8  and  C_9 
REMARK    5  A    between atoms: C_9  and  N_10 
REMARK       I    between atoms: N_10  and  C_11 
REMARK    6  A    between atoms: C_11  and  C_12 
REMARK    7  A    between atoms: C_14  and  C_15 
ROOT
HETATM    1  N   UNL     1       5.042  26.793  54.229  1.00  0.00    -0.355 N 
HETATM    2  C   UNL     1       5.845  27.114  55.303  1.00  0.00     0.251 C 
HETATM    3  O   UNL     1       5.785  28.182  55.899  1.00  0.00    -0.268 OA
HETATM    4  H   UNL     1       5.007  25.839  53.900  1.00  0.00     0.162 HD
ENDROOT
BRANCH   1   5
HETATM    5  C   UNL     1       4.073  27.736  53.703  1.00  0.00     0.149 C 
BRANCH   5   6
HETATM    6  C   UNL     1       4.490  28.375  52.376  1.00  0.00     0.195 C 
BRANCH   6   7
HETATM    7  O   UNL     1       4.842  27.321  51.475  1.00  0.00    -0.349 OA
BRANCH   7   8
HETATM    8  C   UNL     1       4.498  27.484  50.160  1.00  0.00     0.070 A 
HETATM    9  C   UNL     1       4.042  28.669  49.573  1.00  0.00     0.066 A 
HETATM   10  C   UNL     1       3.730  28.711  48.209  1.00  0.00     0.037 A 
HETATM   11  C   UNL     1       3.880  27.551  47.439  1.00  0.00     0.029 A 
HETATM   12  C   UNL     1       4.323  26.364  48.022  1.00  0.00     0.005 A 
HETATM   13  C   UNL     1       4.628  26.334  49.380  1.00  0.00     0.037 A 
BRANCH  10  14
HETATM   14  N   UNL     1       3.278  29.868  47.539  1.00  0.00    -0.327 N 
HETATM   15  C   UNL     1       3.957  31.060  47.363  1.00  0.00     0.218 C 
HETATM   16  C   UNL     1       3.170  32.055  46.547  1.00  0.00     0.117 C 
HETATM   17  O   UNL     1       5.056  31.358  47.817  1.00  0.00    -0.274 OA
HETATM   18  H   UNL     1       2.340  29.821  47.161  1.00  0.00     0.169 HD
ENDBRANCH  10  14
ENDBRANCH   7   8
ENDBRANCH   6   7
ENDBRANCH   5   6
ENDBRANCH   1   5
BRANCH   2  19
HETATM   19  C   UNL     1       6.802  26.065  55.744  1.00  0.00     0.032 A 
HETATM   20  C   UNL     1       6.852  24.862  55.022  1.00  0.00     0.029 A 
HETATM   21  C   UNL     1       7.719  23.830  55.411  1.00  0.00    -0.023 A 
HETATM   22  C   UNL     1       8.528  24.028  56.540  1.00  0.00     0.012 A 
HETATM   23  C   UNL     1       8.472  25.221  57.267  1.00  0.00     0.002 A 
HETATM   24  C   UNL     1       7.607  26.239  56.873  1.00  0.00     0.017 A 
BRANCH  21  25
HETATM   25  C   UNL     1       7.791  22.574  54.673  1.00  0.00    -0.002 A 
HETATM   26  C   UNL     1       7.815  21.318  55.249  1.00  0.00     0.153 A 
HETATM   27  O   UNL     1       7.894  20.347  54.302  1.00  0.00    -0.334 OA
HETATM   28  C   UNL     1       7.927  20.972  53.101  1.00  0.00     0.142 A 
HETATM   29  C   UNL     1       7.868  22.336  53.269  1.00  0.00     0.038 A 
ENDBRANCH  21  25
ENDBRANCH   2  19
TORSDOF 7
ENDMDL
