MODEL 1
REMARK VINA RESULT:      -9.7      0.000      0.000
REMARK  3 active torsions:
REMARK  status: ('A' for Active; 'I' for Inactive)
REMARK    1  A    between atoms: C_4  and  C_5 
REMARK    2  A    between atoms: C_9  and  C_10 
REMARK       I    between atoms: C_10  and  N_11 
REMARK    3  A    between atoms: N_11  and  N_12 
ROOT
HETATM    1  C   UNL     1       8.931  29.268  57.627  1.00  0.00     0.289 C 
HETATM    2  N   UNL     1       7.977  28.270  57.735  1.00  0.00    -0.241 N 
HETATM    3  O   UNL     1       9.811  29.288  56.769  1.00  0.00    -0.264 OA
HETATM    4  H   UNL     1       7.267  28.303  58.467  1.00  0.00     0.192 HD
ENDROOT
BRANCH   2   5
HETATM    5  N   UNL     1       7.977  27.223  56.854  1.00  0.00    -0.165 NA
HETATM    6  C   UNL     1       6.938  27.098  56.094  1.00  0.00     0.157 A 
HETATM    7  C   UNL     1       5.682  27.972  56.039  1.00  0.00     0.277 A 
HETATM    8  C   UNL     1       6.743  26.056  55.095  1.00  0.00     0.028 A 
HETATM    9  O   UNL     1       5.490  28.946  56.736  1.00  0.00    -0.266 OA
HETATM   10  N   UNL     1       4.884  27.413  55.065  1.00  0.00    -0.321 N 
HETATM   11  C   UNL     1       5.499  26.292  54.510  1.00  0.00     0.048 A 
HETATM   12  H   UNL     1       3.981  27.783  54.807  1.00  0.00     0.169 HD
HETATM   13  C   UNL     1       5.011  25.473  53.514  1.00  0.00     0.032 A 
HETATM   14  C   UNL     1       5.816  24.397  53.116  1.00  0.00     0.021 A 
HETATM   15  C   UNL     1       7.072  24.171  53.717  1.00  0.00     0.012 A 
HETATM   16 BR   UNL     1       8.120  22.703  53.143  1.00  0.00    -0.051 Br
HETATM   17  C   UNL     1       7.556  25.005  54.724  1.00  0.00     0.035 A 
ENDBRANCH   2   5
BRANCH   1  18
HETATM   18  C   UNL     1       8.832  30.319  58.608  1.00  0.00     0.121 A 
HETATM   19  N   UNL     1       9.545  31.480  58.464  1.00  0.00    -0.272 N 
HETATM   20  N   UNL     1       9.357  32.370  59.451  1.00  0.00    -0.172 NA
HETATM   21  H   UNL     1      10.179  31.709  57.703  1.00  0.00     0.189 HD
HETATM   22  C   UNL     1       8.486  31.761  60.265  1.00  0.00     0.113 A 
HETATM   23  C   UNL     1       8.127  30.480  59.785  1.00  0.00     0.073 A 
BRANCH  22  24
HETATM   24  C   UNL     1       7.978  32.388  61.518  1.00  0.00     0.105 A 
HETATM   25  O   UNL     1       6.977  33.320  61.574  1.00  0.00    -0.320 OA
HETATM   26  C   UNL     1       6.803  33.647  62.881  1.00  0.00     0.142 A 
HETATM   27  C   UNL     1       7.674  32.941  63.675  1.00  0.00     0.027 A 
HETATM   28  C   UNL     1       8.433  32.130  62.798  1.00  0.00     0.041 A 
ENDBRANCH  22  24
ENDBRANCH   1  18
TORSDOF 3
ENDMDL
MODEL 2
REMARK VINA RESULT:      -9.1      3.761      9.393
REMARK  3 active torsions:
REMARK  status: ('A' for Active; 'I' for Inactive)
REMARK    1  A    between atoms: C_4  and  C_5 
REMARK    2  A    between atoms: C_9  and  C_10 
REMARK       I    between atoms: C_10  and  N_11 
REMARK    3  A    between atoms: N_11  and  N_12 
ROOT
HETATM    1  C   UNL     1       7.513  26.391  57.299  1.00  0.00     0.289 C 
HETATM    2  N   UNL     1       7.228  27.678  56.874  1.00  0.00    -0.241 N 
HETATM    3  O   UNL     1       7.639  26.069  58.478  1.00  0.00    -0.264 OA
HETATM    4  H   UNL     1       7.132  27.892  55.881  1.00  0.00     0.192 HD
ENDROOT
BRANCH   2   5
HETATM    5  N   UNL     1       7.068  28.683  57.789  1.00  0.00    -0.165 NA
HETATM    6  C   UNL     1       8.101  29.423  58.032  1.00  0.00     0.157 A 
HETATM    7  C   UNL     1       9.505  29.333  57.429  1.00  0.00     0.277 A 
HETATM    8  C   UNL     1       8.139  30.539  58.968  1.00  0.00     0.028 A 
HETATM    9  O   UNL     1       9.848  28.514  56.603  1.00  0.00    -0.266 OA
HETATM   10  N   UNL     1      10.228  30.346  58.021  1.00  0.00    -0.321 N 
HETATM   11  C   UNL     1       9.434  31.054  58.922  1.00  0.00     0.048 A 
HETATM   12  H   UNL     1      11.199  30.530  57.813  1.00  0.00     0.169 HD
HETATM   13  C   UNL     1       9.803  32.130  59.700  1.00  0.00     0.032 A 
HETATM   14  C   UNL     1       8.825  32.683  60.537  1.00  0.00     0.021 A 
HETATM   15  C   UNL     1       7.518  32.151  60.573  1.00  0.00     0.012 A 
HETATM   16 BR   UNL     1       6.233  32.933  61.721  1.00  0.00    -0.051 Br
HETATM   17  C   UNL     1       7.155  31.062  59.782  1.00  0.00     0.035 A 
ENDBRANCH   2   5
BRANCH   1  18
HETATM   18  C   UNL     1       7.657  25.417  56.247  1.00  0.00     0.121 A 
HETATM   19  N   UNL     1       7.560  25.788  54.932  1.00  0.00    -0.272 N 
HETATM   20  N   UNL     1       7.715  24.780  54.060  1.00  0.00    -0.172 NA
HETATM   21  H   UNL     1       7.386  26.726  54.580  1.00  0.00     0.189 HD
HETATM   22  C   UNL     1       7.921  23.713  54.842  1.00  0.00     0.113 A 
HETATM   23  C   UNL     1       7.896  24.057  56.215  1.00  0.00     0.073 A 
BRANCH  22  24
HETATM   24  C   UNL     1       8.148  22.345  54.298  1.00  0.00     0.105 A 
HETATM   25  O   UNL     1       8.581  21.274  55.034  1.00  0.00    -0.320 OA
HETATM   26  C   UNL     1       8.665  20.213  54.190  1.00  0.00     0.142 A 
HETATM   27  C   UNL     1       8.292  20.576  52.918  1.00  0.00     0.027 A 
HETATM   28  C   UNL     1       7.960  21.950  52.986  1.00  0.00     0.041 A 
ENDBRANCH  22  24
ENDBRANCH   1  18
TORSDOF 3
ENDMDL
MODEL 3
REMARK VINA RESULT:      -9.1      5.306     10.610
REMARK  3 active torsions:
REMARK  status: ('A' for Active; 'I' for Inactive)
REMARK    1  A    between atoms: C_4  and  C_5 
REMARK    2  A    between atoms: C_9  and  C_10 
REMARK       I    between atoms: C_10  and  N_11 
REMARK    3  A    between atoms: N_11  and  N_12 
ROOT
HETATM    1  C   UNL     1       7.993  31.507  62.302  1.00  0.00     0.289 C 
HETATM    2  N   UNL     1       7.606  32.797  62.623  1.00  0.00    -0.241 N 
HETATM    3  O   UNL     1       8.346  30.669  63.129  1.00  0.00    -0.264 OA
HETATM    4  H   UNL     1       7.321  33.454  61.896  1.00  0.00     0.192 HD
ENDROOT
BRANCH   2   5
HETATM    5  N   UNL     1       7.603  33.207  63.929  1.00  0.00    -0.165 NA
HETATM    6  C   UNL     1       6.448  33.377  64.486  1.00  0.00     0.157 A 
HETATM    7  C   UNL     1       5.056  33.181  63.880  1.00  0.00     0.277 A 
HETATM    8  C   UNL     1       6.229  33.808  65.860  1.00  0.00     0.028 A 
HETATM    9  O   UNL     1       4.845  32.822  62.741  1.00  0.00    -0.266 OA
HETATM   10  N   UNL     1       4.167  33.493  64.886  1.00  0.00    -0.321 N 
HETATM   11  C   UNL     1       4.848  33.860  66.046  1.00  0.00     0.048 A 
HETATM   12  H   UNL     1       3.164  33.452  64.773  1.00  0.00     0.169 HD
HETATM   13  C   UNL     1       4.303  34.238  67.254  1.00  0.00     0.032 A 
HETATM   14  C   UNL     1       5.193  34.565  68.286  1.00  0.00     0.021 A 
HETATM   15  C   UNL     1       6.589  34.508  68.083  1.00  0.00     0.012 A 
HETATM   16 BR   UNL     1       7.749  34.960  69.508  1.00  0.00    -0.051 Br
HETATM   17  C   UNL     1       7.129  34.125  66.856  1.00  0.00     0.035 A 
ENDBRANCH   2   5
BRANCH   1  18
HETATM   18  C   UNL     1       7.955  31.188  60.897  1.00  0.00     0.121 A 
HETATM   19  N   UNL     1       6.838  31.452  60.150  1.00  0.00    -0.272 N 
HETATM   20  N   UNL     1       6.943  31.104  58.857  1.00  0.00    -0.172 NA
HETATM   21  H   UNL     1       5.973  31.870  60.483  1.00  0.00     0.189 HD
HETATM   22  C   UNL     1       8.178  30.597  58.765  1.00  0.00     0.113 A 
HETATM   23  C   UNL     1       8.851  30.626  60.008  1.00  0.00     0.073 A 
BRANCH  22  24
HETATM   24  C   UNL     1       8.742  30.073  57.488  1.00  0.00     0.105 A 
HETATM   25  O   UNL     1      10.041  30.231  57.087  1.00  0.00    -0.320 OA
HETATM   26  C   UNL     1      10.167  29.619  55.881  1.00  0.00     0.142 A 
HETATM   27  C   UNL     1       8.971  29.066  55.492  1.00  0.00     0.027 A 
HETATM   28  C   UNL     1       8.051  29.359  56.527  1.00  0.00     0.041 A 
ENDBRANCH  22  24
ENDBRANCH   1  18
TORSDOF 3
ENDMDL
MODEL 4
REMARK VINA RESULT:      -8.9      3.134      3.603
REMARK  3 active torsions:
REMARK  status: ('A' for Active; 'I' for Inactive)
REMARK    1  A    between atoms: C_4  and  C_5 
REMARK    2  A    between atoms: C_9  and  C_10 
REMARK       I    between atoms: C_10  and  N_11 
REMARK    3  A    between atoms: N_11  and  N_12 
ROOT
HETATM    1  C   UNL     1       7.144  28.330  57.638  1.00  0.00     0.289 C 
HETATM    2  N   UNL     1       6.287  27.578  56.852  1.00  0.00    -0.241 N 
HETATM    3  O   UNL     1       8.194  27.905  58.114  1.00  0.00    -0.264 OA
HETATM    4  H   UNL     1       5.427  27.981  56.482  1.00  0.00     0.192 HD
ENDROOT
BRANCH   2   5
HETATM    5  N   UNL     1       6.590  26.275  56.562  1.00  0.00    -0.165 NA
HETATM    6  C   UNL     1       6.938  26.012  55.345  1.00  0.00     0.157 A 
HETATM    7  C   UNL     1       7.062  26.970  54.157  1.00  0.00     0.277 A 
HETATM    8  C   UNL     1       7.298  24.696  54.835  1.00  0.00     0.028 A 
HETATM    9  O   UNL     1       6.839  28.161  54.207  1.00  0.00    -0.266 OA
HETATM   10  N   UNL     1       7.463  26.192  53.093  1.00  0.00    -0.321 N 
HETATM   11  C   UNL     1       7.602  24.861  53.484  1.00  0.00     0.048 A 
HETATM   12  H   UNL     1       7.628  26.559  52.167  1.00  0.00     0.169 HD
HETATM   13  C   UNL     1       7.985  23.793  52.701  1.00  0.00     0.032 A 
HETATM   14  C   UNL     1       8.055  22.537  53.320  1.00  0.00     0.021 A 
HETATM   15  C   UNL     1       7.743  22.385  54.688  1.00  0.00     0.012 A 
HETATM   16 BR   UNL     1       7.853  20.668  55.475  1.00  0.00    -0.051 Br
HETATM   17  C   UNL     1       7.357  23.473  55.470  1.00  0.00     0.035 A 
ENDBRANCH   2   5
BRANCH   1  18
HETATM   18  C   UNL     1       6.722  29.688  57.875  1.00  0.00     0.121 A 
HETATM   19  N   UNL     1       7.276  30.426  58.888  1.00  0.00    -0.272 N 
HETATM   20  N   UNL     1       6.789  31.673  58.994  1.00  0.00    -0.172 NA
HETATM   21  H   UNL     1       7.994  30.116  59.538  1.00  0.00     0.189 HD
HETATM   22  C   UNL     1       5.885  31.744  58.010  1.00  0.00     0.113 A 
HETATM   23  C   UNL     1       5.804  30.533  57.282  1.00  0.00     0.073 A 
BRANCH  22  24
HETATM   24  C   UNL     1       5.079  32.969  57.742  1.00  0.00     0.105 A 
HETATM   25  O   UNL     1       5.370  33.900  56.782  1.00  0.00    -0.320 OA
HETATM   26  C   UNL     1       4.411  34.859  56.846  1.00  0.00     0.142 A 
HETATM   27  C   UNL     1       3.500  34.566  57.833  1.00  0.00     0.027 A 
HETATM   28  C   UNL     1       3.930  33.348  58.411  1.00  0.00     0.041 A 
ENDBRANCH  22  24
ENDBRANCH   1  18
TORSDOF 3
ENDMDL
MODEL 5
REMARK VINA RESULT:      -8.8      2.880      4.161
REMARK  3 active torsions:
REMARK  status: ('A' for Active; 'I' for Inactive)
REMARK    1  A    between atoms: C_4  and  C_5 
REMARK    2  A    between atoms: C_9  and  C_10 
REMARK       I    between atoms: C_10  and  N_11 
REMARK    3  A    between atoms: N_11  and  N_12 
ROOT
HETATM    1  C   UNL     1       6.108  27.492  55.551  1.00  0.00     0.289 C 
HETATM    2  N   UNL     1       7.333  26.859  55.679  1.00  0.00    -0.241 N 
HETATM    3  O   UNL     1       5.146  27.015  54.952  1.00  0.00    -0.264 OA
HETATM    4  H   UNL     1       8.099  27.300  56.189  1.00  0.00     0.192 HD
ENDROOT
BRANCH   2   5
HETATM    5  N   UNL     1       7.529  25.624  55.121  1.00  0.00    -0.165 NA
HETATM    6  C   UNL     1       7.843  24.662  55.925  1.00  0.00     0.157 A 
HETATM    7  C   UNL     1       8.031  24.707  57.444  1.00  0.00     0.277 A 
HETATM    8  C   UNL     1       8.092  23.281  55.533  1.00  0.00     0.028 A 
HETATM    9  O   UNL     1       7.902  25.702  58.124  1.00  0.00    -0.266 OA
HETATM   10  N   UNL     1       8.359  23.421  57.815  1.00  0.00    -0.321 N 
HETATM   11  C   UNL     1       8.397  22.583  56.701  1.00  0.00     0.048 A 
HETATM   12  H   UNL     1       8.542  23.148  58.770  1.00  0.00     0.169 HD
HETATM   13  C   UNL     1       8.687  21.236  56.674  1.00  0.00     0.032 A 
HETATM   14  C   UNL     1       8.663  20.600  55.426  1.00  0.00     0.021 A 
HETATM   15  C   UNL     1       8.353  21.319  54.251  1.00  0.00     0.012 A 
HETATM   16 BR   UNL     1       8.334  20.413  52.591  1.00  0.00    -0.051 Br
HETATM   17  C   UNL     1       8.061  22.682  54.291  1.00  0.00     0.035 A 
ENDBRANCH   2   5
BRANCH   1  18
HETATM   18  C   UNL     1       6.018  28.786  56.180  1.00  0.00     0.121 A 
HETATM   19  N   UNL     1       5.782  29.911  55.435  1.00  0.00    -0.272 N 
HETATM   20  N   UNL     1       5.724  31.045  56.151  1.00  0.00    -0.172 NA
HETATM   21  H   UNL     1       5.655  29.953  54.427  1.00  0.00     0.189 HD
HETATM   22  C   UNL     1       5.929  30.637  57.409  1.00  0.00     0.113 A 
HETATM   23  C   UNL     1       6.118  29.236  57.482  1.00  0.00     0.073 A 
BRANCH  22  24
HETATM   24  C   UNL     1       5.950  31.573  58.568  1.00  0.00     0.105 A 
HETATM   25  O   UNL     1       6.901  31.575  59.553  1.00  0.00    -0.320 OA
HETATM   26  C   UNL     1       6.578  32.566  60.424  1.00  0.00     0.142 A 
HETATM   27  C   UNL     1       5.432  33.208  60.021  1.00  0.00     0.027 A 
HETATM   28  C   UNL     1       5.026  32.569  58.825  1.00  0.00     0.041 A 
ENDBRANCH  22  24
ENDBRANCH   1  18
TORSDOF 3
ENDMDL
MODEL 6
REMARK VINA RESULT:      -8.8      3.724      9.274
REMARK  3 active torsions:
REMARK  status: ('A' for Active; 'I' for Inactive)
REMARK    1  A    between atoms: C_4  and  C_5 
REMARK    2  A    between atoms: C_9  and  C_10 
REMARK       I    between atoms: C_10  and  N_11 
REMARK    3  A    between atoms: N_11  and  N_12 
ROOT
HETATM    1  C   UNL     1       5.746  29.505  56.999  1.00  0.00     0.289 C 
HETATM    2  N   UNL     1       6.708  30.438  57.346  1.00  0.00    -0.241 N 
HETATM    3  O   UNL     1       4.662  29.390  57.567  1.00  0.00    -0.264 OA
HETATM    4  H   UNL     1       7.592  30.492  56.840  1.00  0.00     0.192 HD
ENDROOT
BRANCH   2   5
HETATM    5  N   UNL     1       6.480  31.306  58.380  1.00  0.00    -0.165 NA
HETATM    6  C   UNL     1       7.225  31.176  59.429  1.00  0.00     0.157 A 
HETATM    7  C   UNL     1       8.350  30.170  59.684  1.00  0.00     0.277 A 
HETATM    8  C   UNL     1       7.143  31.996  60.630  1.00  0.00     0.028 A 
HETATM    9  O   UNL     1       8.707  29.321  58.895  1.00  0.00    -0.266 OA
HETATM   10  N   UNL     1       8.822  30.454  60.947  1.00  0.00    -0.321 N 
HETATM   11  C   UNL     1       8.119  31.521  61.505  1.00  0.00     0.048 A 
HETATM   12  H   UNL     1       9.576  29.945  61.386  1.00  0.00     0.169 HD
HETATM   13  C   UNL     1       8.304  32.089  62.747  1.00  0.00     0.032 A 
HETATM   14  C   UNL     1       7.470  33.162  63.092  1.00  0.00     0.021 A 
HETATM   15  C   UNL     1       6.486  33.632  62.197  1.00  0.00     0.012 A 
HETATM   16 BR   UNL     1       5.386  35.083  62.711  1.00  0.00    -0.051 Br
HETATM   17  C   UNL     1       6.308  33.049  60.943  1.00  0.00     0.035 A 
ENDBRANCH   2   5
BRANCH   1  18
HETATM   18  C   UNL     1       6.096  28.647  55.895  1.00  0.00     0.121 A 
HETATM   19  N   UNL     1       6.213  29.151  54.626  1.00  0.00    -0.272 N 
HETATM   20  N   UNL     1       6.545  28.240  53.698  1.00  0.00    -0.172 NA
HETATM   21  H   UNL     1       6.073  30.118  54.346  1.00  0.00     0.189 HD
HETATM   22  C   UNL     1       6.647  27.101  54.394  1.00  0.00     0.113 A 
HETATM   23  C   UNL     1       6.378  27.301  55.768  1.00  0.00     0.073 A 
BRANCH  22  24
HETATM   24  C   UNL     1       7.004  25.799  53.763  1.00  0.00     0.105 A 
HETATM   25  O   UNL     1       6.508  24.583  54.148  1.00  0.00    -0.320 OA
HETATM   26  C   UNL     1       7.067  23.645  53.340  1.00  0.00     0.142 A 
HETATM   27  C   UNL     1       7.918  24.233  52.435  1.00  0.00     0.027 A 
HETATM   28  C   UNL     1       7.879  25.621  52.707  1.00  0.00     0.041 A 
ENDBRANCH  22  24
ENDBRANCH   1  18
TORSDOF 3
ENDMDL
MODEL 7
REMARK VINA RESULT:      -8.7      1.843      2.307
REMARK  3 active torsions:
REMARK  status: ('A' for Active; 'I' for Inactive)
REMARK    1  A    between atoms: C_4  and  C_5 
REMARK    2  A    between atoms: C_9  and  C_10 
REMARK       I    between atoms: C_10  and  N_11 
REMARK    3  A    between atoms: N_11  and  N_12 
ROOT
HETATM    1  C   UNL     1       6.728  30.201  57.679  1.00  0.00     0.289 C 
HETATM    2  N   UNL     1       7.050  28.876  57.435  1.00  0.00    -0.241 N 
HETATM    3  O   UNL     1       6.163  30.933  56.869  1.00  0.00    -0.264 OA
HETATM    4  H   UNL     1       7.519  28.313  58.144  1.00  0.00     0.192 HD
ENDROOT
BRANCH   2   5
HETATM    5  N   UNL     1       6.739  28.306  56.230  1.00  0.00    -0.165 NA
HETATM    6  C   UNL     1       6.982  27.043  56.100  1.00  0.00     0.157 A 
HETATM    7  C   UNL     1       7.581  26.074  57.122  1.00  0.00     0.277 A 
HETATM    8  C   UNL     1       6.724  26.253  54.903  1.00  0.00     0.028 A 
HETATM    9  O   UNL     1       7.921  26.382  58.245  1.00  0.00    -0.266 OA
HETATM   10  N   UNL     1       7.630  24.851  56.489  1.00  0.00    -0.321 N 
HETATM   11  C   UNL     1       7.131  24.950  55.191  1.00  0.00     0.048 A 
HETATM   12  H   UNL     1       7.983  24.013  56.927  1.00  0.00     0.169 HD
HETATM   13  C   UNL     1       7.019  23.944  54.256  1.00  0.00     0.032 A 
HETATM   14  C   UNL     1       6.482  24.284  53.007  1.00  0.00     0.021 A 
HETATM   15  C   UNL     1       6.075  25.607  52.730  1.00  0.00     0.012 A 
HETATM   16 BR   UNL     1       5.356  26.015  51.028  1.00  0.00    -0.051 Br
HETATM   17  C   UNL     1       6.193  26.617  53.684  1.00  0.00     0.035 A 
ENDBRANCH   2   5
BRANCH   1  18
HETATM   18  C   UNL     1       7.103  30.691  58.982  1.00  0.00     0.121 A 
HETATM   19  N   UNL     1       8.166  30.149  59.654  1.00  0.00    -0.272 N 
HETATM   20  N   UNL     1       8.401  30.701  60.854  1.00  0.00    -0.172 NA
HETATM   21  H   UNL     1       8.764  29.393  59.330  1.00  0.00     0.189 HD
HETATM   22  C   UNL     1       7.453  31.639  60.963  1.00  0.00     0.113 A 
HETATM   23  C   UNL     1       6.617  31.675  59.822  1.00  0.00     0.073 A 
BRANCH  22  24
HETATM   24  C   UNL     1       7.324  32.523  62.156  1.00  0.00     0.105 A 
HETATM   25  O   UNL     1       6.505  33.618  62.232  1.00  0.00    -0.320 OA
HETATM   26  C   UNL     1       6.665  34.156  63.469  1.00  0.00     0.142 A 
HETATM   27  C   UNL     1       7.574  33.428  64.198  1.00  0.00     0.027 A 
HETATM   28  C   UNL     1       8.000  32.375  63.354  1.00  0.00     0.041 A 
ENDBRANCH  22  24
ENDBRANCH   1  18
TORSDOF 3
ENDMDL
MODEL 8
REMARK VINA RESULT:      -8.4      8.241     10.381
REMARK  3 active torsions:
REMARK  status: ('A' for Active; 'I' for Inactive)
REMARK    1  A    between atoms: C_4  and  C_5 
REMARK    2  A    between atoms: C_9  and  C_10 
REMARK       I    between atoms: C_10  and  N_11 
REMARK    3  A    between atoms: N_11  and  N_12 
ROOT
HETATM    1  C   UNL     1       4.779  26.877  51.690  1.00  0.00     0.289 C 
HETATM    2  N   UNL     1       4.509  26.953  50.334  1.00  0.00    -0.241 N 
HETATM    3  O   UNL     1       4.287  27.625  52.532  1.00  0.00    -0.264 OA
HETATM    4  H   UNL     1       4.944  26.305  49.677  1.00  0.00     0.192 HD
ENDROOT
BRANCH   2   5
HETATM    5  N   UNL     1       3.648  27.904  49.858  1.00  0.00    -0.165 NA
HETATM    6  C   UNL     1       2.903  27.571  48.855  1.00  0.00     0.157 A 
HETATM    7  C   UNL     1       2.846  26.236  48.108  1.00  0.00     0.277 A 
HETATM    8  C   UNL     1       1.926  28.435  48.205  1.00  0.00     0.028 A 
HETATM    9  O   UNL     1       3.526  25.268  48.375  1.00  0.00    -0.266 OA
HETATM   10  N   UNL     1       1.893  26.401  47.127  1.00  0.00    -0.321 N 
HETATM   11  C   UNL     1       1.352  27.685  47.179  1.00  0.00     0.048 A 
HETATM   12  H   UNL     1       1.638  25.676  46.472  1.00  0.00     0.169 HD
HETATM   13  C   UNL     1       0.378  28.219  46.363  1.00  0.00     0.032 A 
HETATM   14  C   UNL     1      -0.010  29.543  46.607  1.00  0.00     0.021 A 
HETATM   15  C   UNL     1       0.581  30.290  47.650  1.00  0.00     0.012 A 
HETATM   16 BR   UNL     1       0.022  32.074  47.938  1.00  0.00    -0.051 Br
HETATM   17  C   UNL     1       1.565  29.740  48.469  1.00  0.00     0.035 A 
ENDBRANCH   2   5
BRANCH   1  18
HETATM   18  C   UNL     1       5.698  25.835  52.074  1.00  0.00     0.121 A 
HETATM   19  N   UNL     1       6.922  25.724  51.466  1.00  0.00    -0.272 N 
HETATM   20  N   UNL     1       7.674  24.710  51.922  1.00  0.00    -0.172 NA
HETATM   21  H   UNL     1       7.287  26.322  50.730  1.00  0.00     0.189 HD
HETATM   22  C   UNL     1       6.908  24.144  52.862  1.00  0.00     0.113 A 
HETATM   23  C   UNL     1       5.665  24.808  52.996  1.00  0.00     0.073 A 
BRANCH  22  24
HETATM   24  C   UNL     1       7.343  22.957  53.652  1.00  0.00     0.105 A 
HETATM   25  O   UNL     1       7.219  22.836  55.010  1.00  0.00    -0.320 OA
HETATM   26  C   UNL     1       7.726  21.624  55.355  1.00  0.00     0.142 A 
HETATM   27  C   UNL     1       8.177  20.956  54.242  1.00  0.00     0.027 A 
HETATM   28  C   UNL     1       7.932  21.814  53.145  1.00  0.00     0.041 A 
ENDBRANCH  22  24
ENDBRANCH   1  18
TORSDOF 3
ENDMDL
MODEL 9
REMARK VINA RESULT:      -8.3      3.780      4.714
REMARK  3 active torsions:
REMARK  status: ('A' for Active; 'I' for Inactive)
REMARK    1  A    between atoms: C_4  and  C_5 
REMARK    2  A    between atoms: C_9  and  C_10 
REMARK       I    between atoms: C_10  and  N_11 
REMARK    3  A    between atoms: N_11  and  N_12 
ROOT
HETATM    1  C   UNL     1       5.624  27.781  55.874  1.00  0.00     0.289 C 
HETATM    2  N   UNL     1       6.909  27.377  55.549  1.00  0.00    -0.241 N 
HETATM    3  O   UNL     1       4.632  27.063  55.772  1.00  0.00    -0.264 OA
HETATM    4  H   UNL     1       7.699  28.013  55.653  1.00  0.00     0.192 HD
ENDROOT
BRANCH   2   5
HETATM    5  N   UNL     1       7.132  26.109  55.083  1.00  0.00    -0.165 NA
HETATM    6  C   UNL     1       7.548  25.235  55.941  1.00  0.00     0.157 A 
HETATM    7  C   UNL     1       7.833  25.420  57.434  1.00  0.00     0.277 A 
HETATM    8  C   UNL     1       7.843  23.839  55.648  1.00  0.00     0.028 A 
HETATM    9  O   UNL     1       7.697  26.464  58.036  1.00  0.00    -0.266 OA
HETATM   10  N   UNL     1       8.251  24.188  57.886  1.00  0.00    -0.321 N 
HETATM   11  C   UNL     1       8.260  23.260  56.846  1.00  0.00     0.048 A 
HETATM   12  H   UNL     1       8.511  24.007  58.845  1.00  0.00     0.169 HD
HETATM   13  C   UNL     1       8.617  21.930  56.911  1.00  0.00     0.032 A 
HETATM   14  C   UNL     1       8.544  21.187  55.725  1.00  0.00     0.021 A 
HETATM   15  C   UNL     1       8.121  21.787  54.519  1.00  0.00     0.012 A 
HETATM   16 BR   UNL     1       8.040  20.741  52.945  1.00  0.00    -0.051 Br
HETATM   17  C   UNL     1       7.762  23.133  54.465  1.00  0.00     0.035 A 
ENDBRANCH   2   5
BRANCH   1  18
HETATM   18  C   UNL     1       5.512  29.135  56.355  1.00  0.00     0.121 A 
HETATM   19  N   UNL     1       5.655  29.418  57.688  1.00  0.00    -0.272 N 
HETATM   20  N   UNL     1       5.526  30.718  57.993  1.00  0.00    -0.172 NA
HETATM   21  H   UNL     1       5.841  28.749  58.430  1.00  0.00     0.189 HD
HETATM   22  C   UNL     1       5.291  31.300  56.811  1.00  0.00     0.113 A 
HETATM   23  C   UNL     1       5.273  30.357  55.756  1.00  0.00     0.073 A 
BRANCH  22  24
HETATM   24  C   UNL     1       5.080  32.768  56.661  1.00  0.00     0.105 A 
HETATM   25  O   UNL     1       5.069  33.437  55.466  1.00  0.00    -0.320 OA
HETATM   26  C   UNL     1       4.850  34.749  55.741  1.00  0.00     0.142 A 
HETATM   27  C   UNL     1       4.716  34.943  57.095  1.00  0.00     0.027 A 
HETATM   28  C   UNL     1       4.865  33.667  57.689  1.00  0.00     0.041 A 
ENDBRANCH  22  24
ENDBRANCH   1  18
TORSDOF 3
ENDMDL
MODEL 10
REMARK VINA RESULT:      -8.1      6.522      9.372
REMARK  3 active torsions:
REMARK  status: ('A' for Active; 'I' for Inactive)
REMARK    1  A    between atoms: C_4  and  C_5 
REMARK    2  A    between atoms: C_9  and  C_10 
REMARK       I    between atoms: C_10  and  N_11 
REMARK    3  A    between atoms: N_11  and  N_12 
ROOT
HETATM    1  C   UNL     1       4.785  26.660  50.040  1.00  0.00     0.289 C 
HETATM    2  N   UNL     1       5.843  26.683  50.933  1.00  0.00    -0.241 N 
HETATM    3  O   UNL     1       4.264  25.631  49.616  1.00  0.00    -0.264 OA
HETATM    4  H   UNL     1       6.239  27.567  51.254  1.00  0.00     0.192 HD
ENDROOT
BRANCH   2   5
HETATM    5  N   UNL     1       6.372  25.509  51.399  1.00  0.00    -0.165 NA
HETATM    6  C   UNL     1       6.397  25.348  52.682  1.00  0.00     0.157 A 
HETATM    7  C   UNL     1       5.910  26.301  53.776  1.00  0.00     0.277 A 
HETATM    8  C   UNL     1       6.916  24.176  53.375  1.00  0.00     0.028 A 
HETATM    9  O   UNL     1       5.411  27.387  53.571  1.00  0.00    -0.266 OA
HETATM   10  N   UNL     1       6.164  25.658  54.968  1.00  0.00    -0.321 N 
HETATM   11  C   UNL     1       6.753  24.415  54.739  1.00  0.00     0.048 A 
HETATM   12  H   UNL     1       5.943  26.053  55.871  1.00  0.00     0.169 HD
HETATM   13  C   UNL     1       7.148  23.488  55.680  1.00  0.00     0.032 A 
HETATM   14  C   UNL     1       7.721  22.299  55.208  1.00  0.00     0.021 A 
HETATM   15  C   UNL     1       7.881  22.071  53.824  1.00  0.00     0.012 A 
HETATM   16 BR   UNL     1       8.660  20.450  53.239  1.00  0.00    -0.051 Br
HETATM   17  C   UNL     1       7.477  23.016  52.882  1.00  0.00     0.035 A 
ENDBRANCH   2   5
BRANCH   1  18
HETATM   18  C   UNL     1       4.312  27.955  49.620  1.00  0.00     0.121 A 
HETATM   19  N   UNL     1       3.030  28.353  49.894  1.00  0.00    -0.272 N 
HETATM   20  N   UNL     1       2.725  29.581  49.445  1.00  0.00    -0.172 NA
HETATM   21  H   UNL     1       2.323  27.815  50.387  1.00  0.00     0.189 HD
HETATM   22  C   UNL     1       3.854  29.994  48.858  1.00  0.00     0.113 A 
HETATM   23  C   UNL     1       4.875  29.017  48.939  1.00  0.00     0.073 A 
BRANCH  22  24
HETATM   24  C   UNL     1       3.985  31.328  48.206  1.00  0.00     0.105 A 
HETATM   25  O   UNL     1       2.979  31.972  47.538  1.00  0.00    -0.320 OA
HETATM   26  C   UNL     1       3.482  33.151  47.090  1.00  0.00     0.142 A 
HETATM   27  C   UNL     1       4.800  33.284  47.458  1.00  0.00     0.027 A 
HETATM   28  C   UNL     1       5.125  32.110  48.177  1.00  0.00     0.041 A 
ENDBRANCH  22  24
ENDBRANCH   1  18
TORSDOF 3
ENDMDL
