MODEL 1
REMARK VINA RESULT:      -9.1      0.000      0.000
REMARK  7 active torsions:
REMARK  status: ('A' for Active; 'I' for Inactive)
REMARK    1  A    between atoms: C_2  and  O_3 
REMARK    2  A    between atoms: O_3  and  C_4 
REMARK    3  A    between atoms: C_4  and  C_5 
REMARK    4  A    between atoms: C_6  and  C_7 
REMARK    5  A    between atoms: C_18  and  S_19 
REMARK    6  A    between atoms: S_19  and  C_20 
REMARK    7  A    between atoms: C_20  and  C_21 
ROOT
HETATM    1  C   UNL     1       4.955  30.208  56.127  1.00  0.00     0.070 C 
HETATM    2  C   UNL     1       5.726  28.897  56.301  1.00  0.00     0.203 C 
HETATM    3  N   UNL     1       5.548  28.027  55.137  1.00  0.00    -0.082 N 
HETATM    4  C   UNL     1       5.092  28.463  53.925  1.00  0.00     0.726 A 
HETATM    5  N   UNL     1       4.714  29.751  53.797  1.00  0.00    -0.192 N 
HETATM    6  N   UNL     1       5.754  26.698  55.138  1.00  0.00    -0.128 NA
HETATM    7  C   UNL     1       5.463  26.403  53.867  1.00  0.00     0.226 A 
HETATM    8  N   UNL     1       5.075  27.463  53.082  1.00  0.00    -0.035 NA
HETATM    9  C   UNL     1       4.534  30.598  54.893  1.00  0.00     0.037 C 
HETATM   10  C   UNL     1       3.872  31.918  54.583  1.00  0.00     0.070 C 
HETATM   11  H   UNL     1       4.275  30.032  52.922  1.00  0.00     0.184 HD
ENDROOT
BRANCH   7  12
HETATM   12  S   UNL     1       5.542  24.767  53.289  1.00  0.00    -0.083 SA
BRANCH  12  13
HETATM   13  C   UNL     1       7.326  24.500  53.443  1.00  0.00     0.121 C 
BRANCH  13  14
HETATM   14  C   UNL     1       7.631  23.075  53.839  1.00  0.00    -0.047 A 
HETATM   15  C   UNL     1       7.776  22.725  55.191  1.00  0.00     0.031 A 
HETATM   16  C   UNL     1       8.088  21.411  55.545  1.00  0.00     0.034 A 
HETATM   17 CL   UNL     1       8.261  20.993  57.205  1.00  0.00    -0.084 Cl
HETATM   18  C   UNL     1       8.263  20.435  54.565  1.00  0.00     0.024 A 
HETATM   19  C   UNL     1       8.127  20.775  53.220  1.00  0.00     0.002 A 
HETATM   20  C   UNL     1       7.814  22.087  52.859  1.00  0.00     0.008 A 
ENDBRANCH  13  14
ENDBRANCH  12  13
ENDBRANCH   7  12
BRANCH   2  21
HETATM   21  C   UNL     1       7.223  29.121  56.539  1.00  0.00    -0.028 A 
HETATM   22  C   UNL     1       7.703  29.298  57.847  1.00  0.00     0.011 A 
HETATM   23  C   UNL     1       9.063  29.512  58.087  1.00  0.00     0.024 A 
HETATM   24  C   UNL     1       9.957  29.548  57.021  1.00  0.00     0.034 A 
HETATM   25 CL   UNL     1      11.631  29.815  57.316  1.00  0.00    -0.084 Cl
HETATM   26  C   UNL     1       9.504  29.372  55.717  1.00  0.00     0.024 A 
HETATM   27  C   UNL     1       8.145  29.159  55.475  1.00  0.00     0.011 A 
ENDBRANCH   2  21
BRANCH   1  28
HETATM   28  C   UNL     1       4.704  30.889  57.425  1.00  0.00     0.293 C 
HETATM   29  O   UNL     1       3.774  30.589  58.159  1.00  0.00    -0.259 OA
BRANCH  28  30
HETATM   30  O   UNL     1       5.548  31.927  57.632  1.00  0.00    -0.318 OA
BRANCH  30  31
HETATM   31  C   UNL     1       5.424  32.597  58.897  1.00  0.00     0.174 C 
HETATM   32  C   UNL     1       6.623  32.303  59.778  1.00  0.00     0.034 C 
ENDBRANCH  30  31
ENDBRANCH  28  30
ENDBRANCH   1  28
TORSDOF 7
ENDMDL
MODEL 2
REMARK VINA RESULT:      -9.0      3.631      8.260
REMARK  7 active torsions:
REMARK  status: ('A' for Active; 'I' for Inactive)
REMARK    1  A    between atoms: C_2  and  O_3 
REMARK    2  A    between atoms: O_3  and  C_4 
REMARK    3  A    between atoms: C_4  and  C_5 
REMARK    4  A    between atoms: C_6  and  C_7 
REMARK    5  A    between atoms: C_18  and  S_19 
REMARK    6  A    between atoms: S_19  and  C_20 
REMARK    7  A    between atoms: C_20  and  C_21 
ROOT
HETATM    1  C   UNL     1       5.462  28.159  52.553  1.00  0.00     0.070 C 
HETATM    2  C   UNL     1       6.754  27.767  53.276  1.00  0.00     0.203 C 
HETATM    3  N   UNL     1       6.751  28.257  54.656  1.00  0.00    -0.082 N 
HETATM    4  C   UNL     1       5.624  28.660  55.316  1.00  0.00     0.726 A 
HETATM    5  N   UNL     1       4.451  28.678  54.652  1.00  0.00    -0.192 N 
HETATM    6  N   UNL     1       7.852  28.425  55.409  1.00  0.00    -0.128 NA
HETATM    7  C   UNL     1       7.307  28.873  56.545  1.00  0.00     0.226 A 
HETATM    8  N   UNL     1       5.939  29.010  56.538  1.00  0.00    -0.035 NA
HETATM    9  C   UNL     1       4.367  28.541  53.265  1.00  0.00     0.037 C 
HETATM   10  C   UNL     1       3.011  28.836  52.671  1.00  0.00     0.070 C 
HETATM   11  H   UNL     1       3.645  29.083  55.124  1.00  0.00     0.184 HD
ENDROOT
BRANCH   7  12
HETATM   12  S   UNL     1       8.299  29.287  57.909  1.00  0.00    -0.083 SA
BRANCH  12  13
HETATM   13  C   UNL     1       7.534  30.870  58.344  1.00  0.00     0.121 C 
BRANCH  13  14
HETATM   14  C   UNL     1       7.853  31.255  59.768  1.00  0.00    -0.047 A 
HETATM   15  C   UNL     1       7.176  32.315  60.391  1.00  0.00     0.031 A 
HETATM   16  C   UNL     1       7.499  32.683  61.697  1.00  0.00     0.034 A 
HETATM   17 CL   UNL     1       6.659  33.982  62.451  1.00  0.00    -0.084 Cl
HETATM   18  C   UNL     1       8.499  32.010  62.396  1.00  0.00     0.024 A 
HETATM   19  C   UNL     1       9.183  30.960  61.784  1.00  0.00     0.002 A 
HETATM   20  C   UNL     1       8.863  30.585  60.478  1.00  0.00     0.008 A 
ENDBRANCH  13  14
ENDBRANCH  12  13
ENDBRANCH   7  12
BRANCH   2  21
HETATM   21  C   UNL     1       6.991  26.253  53.281  1.00  0.00    -0.028 A 
HETATM   22  C   UNL     1       7.881  25.684  52.354  1.00  0.00     0.011 A 
HETATM   23  C   UNL     1       8.106  24.305  52.335  1.00  0.00     0.024 A 
HETATM   24  C   UNL     1       7.446  23.482  53.243  1.00  0.00     0.034 A 
HETATM   25 CL   UNL     1       7.720  21.784  53.215  1.00  0.00    -0.084 Cl
HETATM   26  C   UNL     1       6.562  24.025  54.170  1.00  0.00     0.024 A 
HETATM   27  C   UNL     1       6.334  25.402  54.191  1.00  0.00     0.011 A 
ENDBRANCH   2  21
BRANCH   1  28
HETATM   28  C   UNL     1       5.613  28.122  51.074  1.00  0.00     0.293 C 
HETATM   29  O   UNL     1       6.028  29.073  50.429  1.00  0.00    -0.259 OA
BRANCH  28  30
HETATM   30  O   UNL     1       5.141  26.971  50.540  1.00  0.00    -0.318 OA
BRANCH  30  31
HETATM   31  C   UNL     1       4.151  27.117  49.509  1.00  0.00     0.174 C 
HETATM   32  C   UNL     1       4.744  26.801  48.149  1.00  0.00     0.034 C 
ENDBRANCH  30  31
ENDBRANCH  28  30
ENDBRANCH   1  28
TORSDOF 7
ENDMDL
MODEL 3
REMARK VINA RESULT:      -8.8      4.571      6.682
REMARK  7 active torsions:
REMARK  status: ('A' for Active; 'I' for Inactive)
REMARK    1  A    between atoms: C_2  and  O_3 
REMARK    2  A    between atoms: O_3  and  C_4 
REMARK    3  A    between atoms: C_4  and  C_5 
REMARK    4  A    between atoms: C_6  and  C_7 
REMARK    5  A    between atoms: C_18  and  S_19 
REMARK    6  A    between atoms: S_19  and  C_20 
REMARK    7  A    between atoms: C_20  and  C_21 
ROOT
HETATM    1  C   UNL     1       4.765  30.401  51.086  1.00  0.00     0.070 C 
HETATM    2  C   UNL     1       5.226  28.944  50.987  1.00  0.00     0.203 C 
HETATM    3  N   UNL     1       5.073  28.259  52.273  1.00  0.00    -0.082 N 
HETATM    4  C   UNL     1       4.288  28.722  53.291  1.00  0.00     0.726 A 
HETATM    5  N   UNL     1       3.666  29.909  53.147  1.00  0.00    -0.192 N 
HETATM    6  N   UNL     1       5.726  27.137  52.623  1.00  0.00    -0.128 NA
HETATM    7  C   UNL     1       5.234  26.939  53.851  1.00  0.00     0.226 A 
HETATM    8  N   UNL     1       4.330  27.877  54.290  1.00  0.00    -0.035 NA
HETATM    9  C   UNL     1       3.974  30.803  52.117  1.00  0.00     0.037 C 
HETATM   10  C   UNL     1       3.366  32.177  52.256  1.00  0.00     0.070 C 
HETATM   11  H   UNL     1       3.176  30.289  53.954  1.00  0.00     0.184 HD
ENDROOT
BRANCH   7  12
HETATM   12  S   UNL     1       5.760  25.595  54.817  1.00  0.00    -0.083 SA
BRANCH  12  13
HETATM   13  C   UNL     1       7.236  25.132  53.876  1.00  0.00     0.121 C 
BRANCH  13  14
HETATM   14  C   UNL     1       7.541  23.662  54.031  1.00  0.00    -0.047 A 
HETATM   15  C   UNL     1       7.748  23.105  55.303  1.00  0.00     0.031 A 
HETATM   16  C   UNL     1       8.059  21.751  55.433  1.00  0.00     0.034 A 
HETATM   17 CL   UNL     1       8.307  21.079  56.998  1.00  0.00    -0.084 Cl
HETATM   18  C   UNL     1       8.173  20.938  54.307  1.00  0.00     0.024 A 
HETATM   19  C   UNL     1       7.976  21.484  53.039  1.00  0.00     0.002 A 
HETATM   20  C   UNL     1       7.663  22.837  52.901  1.00  0.00     0.008 A 
ENDBRANCH  13  14
ENDBRANCH  12  13
ENDBRANCH   7  12
BRANCH   2  21
HETATM   21  C   UNL     1       4.475  28.160  49.907  1.00  0.00    -0.028 A 
HETATM   22  C   UNL     1       5.181  27.295  49.054  1.00  0.00     0.011 A 
HETATM   23  C   UNL     1       4.518  26.577  48.056  1.00  0.00     0.024 A 
HETATM   24  C   UNL     1       3.141  26.714  47.902  1.00  0.00     0.034 A 
HETATM   25 CL   UNL     1       2.326  25.832  46.670  1.00  0.00    -0.084 Cl
HETATM   26  C   UNL     1       2.421  27.563  48.736  1.00  0.00     0.024 A 
HETATM   27  C   UNL     1       3.082  28.283  49.734  1.00  0.00     0.011 A 
ENDBRANCH   2  21
BRANCH   1  28
HETATM   28  C   UNL     1       5.334  31.244  50.001  1.00  0.00     0.293 C 
HETATM   29  O   UNL     1       6.478  31.672  50.028  1.00  0.00    -0.259 OA
BRANCH  28  30
HETATM   30  O   UNL     1       4.413  31.559  49.060  1.00  0.00    -0.318 OA
BRANCH  30  31
HETATM   31  C   UNL     1       4.884  31.588  47.703  1.00  0.00     0.174 C 
HETATM   32  C   UNL     1       4.390  30.375  46.939  1.00  0.00     0.034 C 
ENDBRANCH  30  31
ENDBRANCH  28  30
ENDBRANCH   1  28
TORSDOF 7
ENDMDL
MODEL 4
REMARK VINA RESULT:      -8.8      4.733      6.756
REMARK  7 active torsions:
REMARK  status: ('A' for Active; 'I' for Inactive)
REMARK    1  A    between atoms: C_2  and  O_3 
REMARK    2  A    between atoms: O_3  and  C_4 
REMARK    3  A    between atoms: C_4  and  C_5 
REMARK    4  A    between atoms: C_6  and  C_7 
REMARK    5  A    between atoms: C_18  and  S_19 
REMARK    6  A    between atoms: S_19  and  C_20 
REMARK    7  A    between atoms: C_20  and  C_21 
ROOT
HETATM    1  C   UNL     1       3.582  28.052  49.284  1.00  0.00     0.070 C 
HETATM    2  C   UNL     1       3.723  28.495  50.743  1.00  0.00     0.203 C 
HETATM    3  N   UNL     1       4.567  27.563  51.493  1.00  0.00    -0.082 N 
HETATM    4  C   UNL     1       5.410  26.661  50.907  1.00  0.00     0.726 A 
HETATM    5  N   UNL     1       5.427  26.563  49.562  1.00  0.00    -0.192 N 
HETATM    6  N   UNL     1       4.569  27.443  52.833  1.00  0.00    -0.128 NA
HETATM    7  C   UNL     1       5.492  26.488  52.993  1.00  0.00     0.226 A 
HETATM    8  N   UNL     1       6.050  25.997  51.836  1.00  0.00    -0.035 NA
HETATM    9  C   UNL     1       4.458  27.159  48.750  1.00  0.00     0.037 C 
HETATM   10  C   UNL     1       4.489  26.739  47.301  1.00  0.00     0.070 C 
HETATM   11  H   UNL     1       5.977  25.814  49.148  1.00  0.00     0.184 HD
ENDROOT
BRANCH   7  12
HETATM   12  S   UNL     1       5.904  25.900  54.574  1.00  0.00    -0.083 SA
BRANCH  12  13
HETATM   13  C   UNL     1       7.607  25.381  54.247  1.00  0.00     0.121 C 
BRANCH  13  14
HETATM   14  C   UNL     1       7.728  23.877  54.254  1.00  0.00    -0.047 A 
HETATM   15  C   UNL     1       7.901  23.180  55.460  1.00  0.00     0.031 A 
HETATM   16  C   UNL     1       8.043  21.792  55.453  1.00  0.00     0.034 A 
HETATM   17 CL   UNL     1       8.250  20.947  56.939  1.00  0.00    -0.084 Cl
HETATM   18  C   UNL     1       8.020  21.082  54.254  1.00  0.00     0.024 A 
HETATM   19  C   UNL     1       7.856  21.766  53.050  1.00  0.00     0.002 A 
HETATM   20  C   UNL     1       7.712  23.155  53.050  1.00  0.00     0.008 A 
ENDBRANCH  13  14
ENDBRANCH  12  13
ENDBRANCH   7  12
BRANCH   2  21
HETATM   21  C   UNL     1       4.294  29.910  50.877  1.00  0.00    -0.028 A 
HETATM   22  C   UNL     1       3.733  30.803  51.805  1.00  0.00     0.011 A 
HETATM   23  C   UNL     1       4.233  32.101  51.938  1.00  0.00     0.024 A 
HETATM   24  C   UNL     1       5.298  32.519  51.147  1.00  0.00     0.034 A 
HETATM   25 CL   UNL     1       5.910  34.119  51.308  1.00  0.00    -0.084 Cl
HETATM   26  C   UNL     1       5.870  31.651  50.222  1.00  0.00     0.024 A 
HETATM   27  C   UNL     1       5.373  30.353  50.086  1.00  0.00     0.011 A 
ENDBRANCH   2  21
BRANCH   1  28
HETATM   28  C   UNL     1       2.391  28.654  48.627  1.00  0.00     0.293 C 
HETATM   29  O   UNL     1       2.412  29.761  48.109  1.00  0.00    -0.259 OA
BRANCH  28  30
HETATM   30  O   UNL     1       1.285  27.888  48.769  1.00  0.00    -0.318 OA
BRANCH  30  31
HETATM   31  C   UNL     1       0.961  27.038  47.657  1.00  0.00     0.174 C 
HETATM   32  C   UNL     1       0.067  27.765  46.671  1.00  0.00     0.034 C 
ENDBRANCH  30  31
ENDBRANCH  28  30
ENDBRANCH   1  28
TORSDOF 7
ENDMDL
MODEL 5
REMARK VINA RESULT:      -8.7      4.443      6.493
REMARK  7 active torsions:
REMARK  status: ('A' for Active; 'I' for Inactive)
REMARK    1  A    between atoms: C_2  and  O_3 
REMARK    2  A    between atoms: O_3  and  C_4 
REMARK    3  A    between atoms: C_4  and  C_5 
REMARK    4  A    between atoms: C_6  and  C_7 
REMARK    5  A    between atoms: C_18  and  S_19 
REMARK    6  A    between atoms: S_19  and  C_20 
REMARK    7  A    between atoms: C_20  and  C_21 
ROOT
HETATM    1  C   UNL     1       6.884  26.071  56.322  1.00  0.00     0.070 C 
HETATM    2  C   UNL     1       7.527  27.121  55.412  1.00  0.00     0.203 C 
HETATM    3  N   UNL     1       6.549  27.663  54.466  1.00  0.00    -0.082 N 
HETATM    4  C   UNL     1       5.197  27.543  54.620  1.00  0.00     0.726 A 
HETATM    5  N   UNL     1       4.720  26.829  55.659  1.00  0.00    -0.192 N 
HETATM    6  N   UNL     1       6.863  28.285  53.315  1.00  0.00    -0.128 NA
HETATM    7  C   UNL     1       5.642  28.574  52.852  1.00  0.00     0.226 A 
HETATM    8  N   UNL     1       4.592  28.156  53.635  1.00  0.00    -0.035 NA
HETATM    9  C   UNL     1       5.531  26.006  56.445  1.00  0.00     0.037 C 
HETATM   10  C   UNL     1       4.793  25.096  57.396  1.00  0.00     0.070 C 
HETATM   11  H   UNL     1       3.717  26.658  55.698  1.00  0.00     0.184 HD
ENDROOT
BRANCH   7  12
HETATM   12  S   UNL     1       5.434  29.389  51.332  1.00  0.00    -0.083 SA
BRANCH  12  13
HETATM   13  C   UNL     1       3.714  28.931  51.001  1.00  0.00     0.121 C 
BRANCH  13  14
HETATM   14  C   UNL     1       3.605  28.092  49.751  1.00  0.00    -0.047 A 
HETATM   15  C   UNL     1       2.410  28.054  49.017  1.00  0.00     0.031 A 
HETATM   16  C   UNL     1       2.310  27.252  47.880  1.00  0.00     0.034 A 
HETATM   17 CL   UNL     1       0.839  27.216  46.986  1.00  0.00    -0.084 Cl
HETATM   18  C   UNL     1       3.390  26.476  47.462  1.00  0.00     0.024 A 
HETATM   19  C   UNL     1       4.580  26.502  48.188  1.00  0.00     0.002 A 
HETATM   20  C   UNL     1       4.687  27.304  49.326  1.00  0.00     0.008 A 
ENDBRANCH  13  14
ENDBRANCH  12  13
ENDBRANCH   7  12
BRANCH   2  21
HETATM   21  C   UNL     1       8.160  28.274  56.197  1.00  0.00    -0.028 A 
HETATM   22  C   UNL     1       7.536  28.749  57.364  1.00  0.00     0.011 A 
HETATM   23  C   UNL     1       8.091  29.805  58.091  1.00  0.00     0.024 A 
HETATM   24  C   UNL     1       9.276  30.395  57.662  1.00  0.00     0.034 A 
HETATM   25 CL   UNL     1       9.957  31.698  58.556  1.00  0.00    -0.084 Cl
HETATM   26  C   UNL     1       9.912  29.940  56.511  1.00  0.00     0.024 A 
HETATM   27  C   UNL     1       9.359  28.885  55.782  1.00  0.00     0.011 A 
ENDBRANCH   2  21
BRANCH   1  28
HETATM   28  C   UNL     1       7.893  25.170  56.940  1.00  0.00     0.293 C 
HETATM   29  O   UNL     1       8.271  25.295  58.096  1.00  0.00    -0.259 OA
BRANCH  28  30
HETATM   30  O   UNL     1       8.406  24.289  56.050  1.00  0.00    -0.318 OA
BRANCH  30  31
HETATM   31  C   UNL     1       7.581  23.153  55.743  1.00  0.00     0.174 C 
HETATM   32  C   UNL     1       7.437  22.986  54.243  1.00  0.00     0.034 C 
ENDBRANCH  30  31
ENDBRANCH  28  30
ENDBRANCH   1  28
TORSDOF 7
ENDMDL
MODEL 6
REMARK VINA RESULT:      -8.6      4.244      9.042
REMARK  7 active torsions:
REMARK  status: ('A' for Active; 'I' for Inactive)
REMARK    1  A    between atoms: C_2  and  O_3 
REMARK    2  A    between atoms: O_3  and  C_4 
REMARK    3  A    between atoms: C_4  and  C_5 
REMARK    4  A    between atoms: C_6  and  C_7 
REMARK    5  A    between atoms: C_18  and  S_19 
REMARK    6  A    between atoms: S_19  and  C_20 
REMARK    7  A    between atoms: C_20  and  C_21 
ROOT
HETATM    1  C   UNL     1       6.524  26.394  56.880  1.00  0.00     0.070 C 
HETATM    2  C   UNL     1       5.716  27.684  56.715  1.00  0.00     0.203 C 
HETATM    3  N   UNL     1       6.369  28.802  57.399  1.00  0.00    -0.082 N 
HETATM    4  C   UNL     1       7.678  28.792  57.791  1.00  0.00     0.726 A 
HETATM    5  N   UNL     1       8.404  27.672  57.607  1.00  0.00    -0.192 N 
HETATM    6  N   UNL     1       5.749  29.936  57.772  1.00  0.00    -0.128 NA
HETATM    7  C   UNL     1       6.767  30.600  58.331  1.00  0.00     0.226 A 
HETATM    8  N   UNL     1       7.974  29.942  58.342  1.00  0.00    -0.035 NA
HETATM    9  C   UNL     1       7.828  26.446  57.262  1.00  0.00     0.037 C 
HETATM   10  C   UNL     1       8.753  25.257  57.345  1.00  0.00     0.070 C 
HETATM   11  H   UNL     1       9.342  27.644  58.002  1.00  0.00     0.184 HD
ENDROOT
BRANCH   7  12
HETATM   12  S   UNL     1       6.533  32.174  59.026  1.00  0.00    -0.083 SA
BRANCH  12  13
HETATM   13  C   UNL     1       7.961  32.206  60.138  1.00  0.00     0.121 C 
BRANCH  13  14
HETATM   14  C   UNL     1       7.571  32.698  61.511  1.00  0.00    -0.047 A 
HETATM   15  C   UNL     1       6.517  33.611  61.670  1.00  0.00     0.031 A 
HETATM   16  C   UNL     1       6.184  34.083  62.940  1.00  0.00     0.034 A 
HETATM   17 CL   UNL     1       4.887  35.199  63.123  1.00  0.00    -0.084 Cl
HETATM   18  C   UNL     1       6.895  33.660  64.063  1.00  0.00     0.024 A 
HETATM   19  C   UNL     1       7.948  32.759  63.914  1.00  0.00     0.002 A 
HETATM   20  C   UNL     1       8.285  32.281  62.646  1.00  0.00     0.008 A 
ENDBRANCH  13  14
ENDBRANCH  12  13
ENDBRANCH   7  12
BRANCH   2  21
HETATM   21  C   UNL     1       5.491  28.055  55.245  1.00  0.00    -0.028 A 
HETATM   22  C   UNL     1       4.199  28.373  54.796  1.00  0.00     0.011 A 
HETATM   23  C   UNL     1       3.970  28.706  53.458  1.00  0.00     0.024 A 
HETATM   24  C   UNL     1       5.030  28.728  52.557  1.00  0.00     0.034 A 
HETATM   25 CL   UNL     1       4.747  29.134  50.910  1.00  0.00    -0.084 Cl
HETATM   26  C   UNL     1       6.319  28.419  52.981  1.00  0.00     0.024 A 
HETATM   27  C   UNL     1       6.551  28.085  54.318  1.00  0.00     0.011 A 
ENDBRANCH   2  21
BRANCH   1  28
HETATM   28  C   UNL     1       5.699  25.180  56.642  1.00  0.00     0.293 C 
HETATM   29  O   UNL     1       4.639  24.979  57.216  1.00  0.00    -0.259 OA
BRANCH  28  30
HETATM   30  O   UNL     1       6.309  24.301  55.813  1.00  0.00    -0.318 OA
BRANCH  30  31
HETATM   31  C   UNL     1       6.180  24.568  54.407  1.00  0.00     0.174 C 
HETATM   32  C   UNL     1       7.526  24.452  53.716  1.00  0.00     0.034 C 
ENDBRANCH  30  31
ENDBRANCH  28  30
ENDBRANCH   1  28
TORSDOF 7
ENDMDL
MODEL 7
REMARK VINA RESULT:      -8.4      4.943      6.683
REMARK  7 active torsions:
REMARK  status: ('A' for Active; 'I' for Inactive)
REMARK    1  A    between atoms: C_2  and  O_3 
REMARK    2  A    between atoms: O_3  and  C_4 
REMARK    3  A    between atoms: C_4  and  C_5 
REMARK    4  A    between atoms: C_6  and  C_7 
REMARK    5  A    between atoms: C_18  and  S_19 
REMARK    6  A    between atoms: S_19  and  C_20 
REMARK    7  A    between atoms: C_20  and  C_21 
ROOT
HETATM    1  C   UNL     1       3.326  27.948  49.253  1.00  0.00     0.070 C 
HETATM    2  C   UNL     1       3.648  28.488  50.649  1.00  0.00     0.203 C 
HETATM    3  N   UNL     1       4.540  27.577  51.369  1.00  0.00    -0.082 N 
HETATM    4  C   UNL     1       5.278  26.600  50.763  1.00  0.00     0.726 A 
HETATM    5  N   UNL     1       5.137  26.405  49.437  1.00  0.00    -0.192 N 
HETATM    6  N   UNL     1       4.691  27.554  52.705  1.00  0.00    -0.128 NA
HETATM    7  C   UNL     1       5.592  26.574  52.834  1.00  0.00     0.226 A 
HETATM    8  N   UNL     1       5.996  25.977  51.663  1.00  0.00    -0.035 NA
HETATM    9  C   UNL     1       4.103  26.981  48.694  1.00  0.00     0.037 C 
HETATM   10  C   UNL     1       3.953  26.457  47.287  1.00  0.00     0.070 C 
HETATM   11  H   UNL     1       5.610  25.604  49.022  1.00  0.00     0.184 HD
ENDROOT
BRANCH   7  12
HETATM   12  S   UNL     1       6.161  26.085  54.400  1.00  0.00    -0.083 SA
BRANCH  12  13
HETATM   13  C   UNL     1       7.761  25.391  53.913  1.00  0.00     0.121 C 
BRANCH  13  14
HETATM   14  C   UNL     1       7.881  23.948  54.341  1.00  0.00    -0.047 A 
HETATM   15  C   UNL     1       8.012  22.928  53.385  1.00  0.00     0.031 A 
HETATM   16  C   UNL     1       8.092  21.595  53.789  1.00  0.00     0.034 A 
HETATM   17 CL   UNL     1       8.256  20.353  52.608  1.00  0.00    -0.084 Cl
HETATM   18  C   UNL     1       8.037  21.259  55.141  1.00  0.00     0.024 A 
HETATM   19  C   UNL     1       7.899  22.264  56.097  1.00  0.00     0.002 A 
HETATM   20  C   UNL     1       7.821  23.600  55.700  1.00  0.00     0.008 A 
ENDBRANCH  13  14
ENDBRANCH  12  13
ENDBRANCH   7  12
BRANCH   2  21
HETATM   21  C   UNL     1       4.280  29.883  50.609  1.00  0.00    -0.028 A 
HETATM   22  C   UNL     1       3.754  30.910  51.411  1.00  0.00     0.011 A 
HETATM   23  C   UNL     1       4.309  32.192  51.384  1.00  0.00     0.024 A 
HETATM   24  C   UNL     1       5.397  32.460  50.559  1.00  0.00     0.034 A 
HETATM   25 CL   UNL     1       6.076  34.040  50.523  1.00  0.00    -0.084 Cl
HETATM   26  C   UNL     1       5.935  31.458  49.758  1.00  0.00     0.024 A 
HETATM   27  C   UNL     1       5.382  30.175  49.782  1.00  0.00     0.011 A 
ENDBRANCH   2  21
BRANCH   1  28
HETATM   28  C   UNL     1       2.089  28.552  48.689  1.00  0.00     0.293 C 
HETATM   29  O   UNL     1       1.008  27.982  48.706  1.00  0.00    -0.259 OA
BRANCH  28  30
HETATM   30  O   UNL     1       2.331  29.733  48.073  1.00  0.00    -0.318 OA
BRANCH  30  31
HETATM   31  C   UNL     1       1.194  30.593  47.892  1.00  0.00     0.174 C 
HETATM   32  C   UNL     1       1.291  31.806  48.798  1.00  0.00     0.034 C 
ENDBRANCH  30  31
ENDBRANCH  28  30
ENDBRANCH   1  28
TORSDOF 7
ENDMDL
MODEL 8
REMARK VINA RESULT:      -8.0      4.905      6.949
REMARK  7 active torsions:
REMARK  status: ('A' for Active; 'I' for Inactive)
REMARK    1  A    between atoms: C_2  and  O_3 
REMARK    2  A    between atoms: O_3  and  C_4 
REMARK    3  A    between atoms: C_4  and  C_5 
REMARK    4  A    between atoms: C_6  and  C_7 
REMARK    5  A    between atoms: C_18  and  S_19 
REMARK    6  A    between atoms: S_19  and  C_20 
REMARK    7  A    between atoms: C_20  and  C_21 
ROOT
HETATM    1  C   UNL     1       5.012  30.751  50.675  1.00  0.00     0.070 C 
HETATM    2  C   UNL     1       5.322  29.252  50.619  1.00  0.00     0.203 C 
HETATM    3  N   UNL     1       5.172  28.638  51.939  1.00  0.00    -0.082 N 
HETATM    4  C   UNL     1       4.491  29.215  52.973  1.00  0.00     0.726 A 
HETATM    5  N   UNL     1       3.982  30.452  52.807  1.00  0.00    -0.192 N 
HETATM    6  N   UNL     1       5.731  27.470  52.306  1.00  0.00    -0.128 NA
HETATM    7  C   UNL     1       5.289  27.371  53.565  1.00  0.00     0.226 A 
HETATM    8  N   UNL     1       4.505  28.411  54.006  1.00  0.00    -0.035 NA
HETATM    9  C   UNL     1       4.320  31.269  51.725  1.00  0.00     0.037 C 
HETATM   10  C   UNL     1       3.857  32.701  51.832  1.00  0.00     0.070 C 
HETATM   11  H   UNL     1       3.574  30.911  53.620  1.00  0.00     0.184 HD
ENDROOT
BRANCH   7  12
HETATM   12  S   UNL     1       5.732  26.021  54.563  1.00  0.00    -0.083 SA
BRANCH  12  13
HETATM   13  C   UNL     1       6.523  24.987  53.303  1.00  0.00     0.121 C 
BRANCH  13  14
HETATM   14  C   UNL     1       7.097  23.732  53.913  1.00  0.00    -0.047 A 
HETATM   15  C   UNL     1       7.526  22.673  53.097  1.00  0.00     0.031 A 
HETATM   16  C   UNL     1       8.027  21.504  53.671  1.00  0.00     0.034 A 
HETATM   17 CL   UNL     1       8.553  20.214  52.660  1.00  0.00    -0.084 Cl
HETATM   18  C   UNL     1       8.104  21.371  55.056  1.00  0.00     0.024 A 
HETATM   19  C   UNL     1       7.675  22.414  55.875  1.00  0.00     0.002 A 
HETATM   20  C   UNL     1       7.173  23.587  55.307  1.00  0.00     0.008 A 
ENDBRANCH  13  14
ENDBRANCH  12  13
ENDBRANCH   7  12
BRANCH   2  21
HETATM   21  C   UNL     1       4.442  28.505  49.612  1.00  0.00    -0.028 A 
HETATM   22  C   UNL     1       3.043  28.618  49.690  1.00  0.00     0.011 A 
HETATM   23  C   UNL     1       2.221  27.939  48.788  1.00  0.00     0.024 A 
HETATM   24  C   UNL     1       2.787  27.142  47.797  1.00  0.00     0.034 A 
HETATM   25 CL   UNL     1       1.773  26.302  46.690  1.00  0.00    -0.084 Cl
HETATM   26  C   UNL     1       4.170  27.017  47.701  1.00  0.00     0.024 A 
HETATM   27  C   UNL     1       4.994  27.694  48.602  1.00  0.00     0.011 A 
ENDBRANCH   2  21
BRANCH   1  28
HETATM   28  C   UNL     1       5.601  31.489  49.526  1.00  0.00     0.293 C 
HETATM   29  O   UNL     1       6.768  31.850  49.502  1.00  0.00    -0.259 OA
BRANCH  28  30
HETATM   30  O   UNL     1       4.676  31.798  48.587  1.00  0.00    -0.318 OA
BRANCH  30  31
HETATM   31  C   UNL     1       4.808  33.092  47.977  1.00  0.00     0.174 C 
HETATM   32  C   UNL     1       4.336  33.055  46.536  1.00  0.00     0.034 C 
ENDBRANCH  30  31
ENDBRANCH  28  30
ENDBRANCH   1  28
TORSDOF 7
ENDMDL
MODEL 9
REMARK VINA RESULT:      -7.9      4.489      6.339
REMARK  7 active torsions:
REMARK  status: ('A' for Active; 'I' for Inactive)
REMARK    1  A    between atoms: C_2  and  O_3 
REMARK    2  A    between atoms: O_3  and  C_4 
REMARK    3  A    between atoms: C_4  and  C_5 
REMARK    4  A    between atoms: C_6  and  C_7 
REMARK    5  A    between atoms: C_18  and  S_19 
REMARK    6  A    between atoms: S_19  and  C_20 
REMARK    7  A    between atoms: C_20  and  C_21 
ROOT
HETATM    1  C   UNL     1       6.579  27.814  56.277  1.00  0.00     0.070 C 
HETATM    2  C   UNL     1       6.084  29.115  55.640  1.00  0.00     0.203 C 
HETATM    3  N   UNL     1       5.175  28.840  54.526  1.00  0.00    -0.082 N 
HETATM    4  C   UNL     1       4.558  27.636  54.329  1.00  0.00     0.726 A 
HETATM    5  N   UNL     1       4.847  26.613  55.158  1.00  0.00    -0.192 N 
HETATM    6  N   UNL     1       4.887  29.710  53.542  1.00  0.00    -0.128 NA
HETATM    7  C   UNL     1       4.033  28.983  52.813  1.00  0.00     0.226 A 
HETATM    8  N   UNL     1       3.786  27.712  53.275  1.00  0.00    -0.035 NA
HETATM    9  C   UNL     1       5.918  26.646  56.054  1.00  0.00     0.037 C 
HETATM   10  C   UNL     1       6.242  25.329  56.717  1.00  0.00     0.070 C 
HETATM   11  H   UNL     1       4.464  25.697  54.932  1.00  0.00     0.184 HD
ENDROOT
BRANCH   7  12
HETATM   12  S   UNL     1       3.333  29.622  51.358  1.00  0.00    -0.083 SA
BRANCH  12  13
HETATM   13  C   UNL     1       4.488  28.917  50.156  1.00  0.00     0.121 C 
BRANCH  13  14
HETATM   14  C   UNL     1       3.813  27.873  49.299  1.00  0.00    -0.047 A 
HETATM   15  C   UNL     1       2.557  28.124  48.724  1.00  0.00     0.031 A 
HETATM   16  C   UNL     1       1.928  27.142  47.959  1.00  0.00     0.034 A 
HETATM   17 CL   UNL     1       0.389  27.463  47.256  1.00  0.00    -0.084 Cl
HETATM   18  C   UNL     1       2.532  25.902  47.761  1.00  0.00     0.024 A 
HETATM   19  C   UNL     1       3.776  25.640  48.333  1.00  0.00     0.002 A 
HETATM   20  C   UNL     1       4.412  26.619  49.099  1.00  0.00     0.008 A 
ENDBRANCH  13  14
ENDBRANCH  12  13
ENDBRANCH   7  12
BRANCH   2  21
HETATM   21  C   UNL     1       5.384  30.035  56.646  1.00  0.00    -0.028 A 
HETATM   22  C   UNL     1       6.095  31.092  57.238  1.00  0.00     0.011 A 
HETATM   23  C   UNL     1       5.479  31.937  58.164  1.00  0.00     0.024 A 
HETATM   24  C   UNL     1       4.145  31.737  58.506  1.00  0.00     0.034 A 
HETATM   25 CL   UNL     1       3.388  32.775  59.649  1.00  0.00    -0.084 Cl
HETATM   26  C   UNL     1       3.420  30.697  57.930  1.00  0.00     0.024 A 
HETATM   27  C   UNL     1       4.034  29.850  57.005  1.00  0.00     0.011 A 
ENDBRANCH   2  21
BRANCH   1  28
HETATM   28  C   UNL     1       7.832  28.010  57.055  1.00  0.00     0.293 C 
HETATM   29  O   UNL     1       7.941  27.678  58.226  1.00  0.00    -0.259 OA
BRANCH  28  30
HETATM   30  O   UNL     1       8.771  28.684  56.351  1.00  0.00    -0.318 OA
BRANCH  30  31
HETATM   31  C   UNL     1       9.516  29.671  57.082  1.00  0.00     0.174 C 
HETATM   32  C   UNL     1      11.001  29.533  56.806  1.00  0.00     0.034 C 
ENDBRANCH  30  31
ENDBRANCH  28  30
ENDBRANCH   1  28
TORSDOF 7
ENDMDL
MODEL 10
REMARK VINA RESULT:      -7.8      5.298      9.165
REMARK  7 active torsions:
REMARK  status: ('A' for Active; 'I' for Inactive)
REMARK    1  A    between atoms: C_2  and  O_3 
REMARK    2  A    between atoms: O_3  and  C_4 
REMARK    3  A    between atoms: C_4  and  C_5 
REMARK    4  A    between atoms: C_6  and  C_7 
REMARK    5  A    between atoms: C_18  and  S_19 
REMARK    6  A    between atoms: S_19  and  C_20 
REMARK    7  A    between atoms: C_20  and  C_21 
ROOT
HETATM    1  C   UNL     1       6.576  29.782  57.549  1.00  0.00     0.070 C 
HETATM    2  C   UNL     1       6.657  31.281  57.849  1.00  0.00     0.203 C 
HETATM    3  N   UNL     1       5.395  31.948  57.521  1.00  0.00    -0.082 N 
HETATM    4  C   UNL     1       4.211  31.290  57.344  1.00  0.00     0.726 A 
HETATM    5  N   UNL     1       4.199  29.943  57.403  1.00  0.00    -0.192 N 
HETATM    6  N   UNL     1       5.265  33.269  57.298  1.00  0.00    -0.128 NA
HETATM    7  C   UNL     1       3.953  33.348  57.054  1.00  0.00     0.226 A 
HETATM    8  N   UNL     1       3.264  32.159  57.095  1.00  0.00    -0.035 NA
HETATM    9  C   UNL     1       5.368  29.177  57.393  1.00  0.00     0.037 C 
HETATM   10  C   UNL     1       5.161  27.693  57.212  1.00  0.00     0.070 C 
HETATM   11  H   UNL     1       3.334  29.465  57.161  1.00  0.00     0.184 HD
ENDROOT
BRANCH   7  12
HETATM   12  S   UNL     1       3.207  34.869  56.671  1.00  0.00    -0.083 SA
BRANCH  12  13
HETATM   13  C   UNL     1       3.749  35.820  58.113  1.00  0.00     0.121 C 
BRANCH  13  14
HETATM   14  C   UNL     1       2.965  35.435  59.344  1.00  0.00    -0.047 A 
HETATM   15  C   UNL     1       3.626  35.050  60.521  1.00  0.00     0.031 A 
HETATM   16  C   UNL     1       2.892  34.667  61.644  1.00  0.00     0.034 A 
HETATM   17 CL   UNL     1       3.714  34.200  63.083  1.00  0.00    -0.084 Cl
HETATM   18  C   UNL     1       1.499  34.656  61.611  1.00  0.00     0.024 A 
HETATM   19  C   UNL     1       0.833  35.030  60.445  1.00  0.00     0.002 A 
HETATM   20  C   UNL     1       1.561  35.416  59.318  1.00  0.00     0.008 A 
ENDBRANCH  13  14
ENDBRANCH  12  13
ENDBRANCH   7  12
BRANCH   2  21
HETATM   21  C   UNL     1       7.014  31.571  59.310  1.00  0.00    -0.028 A 
HETATM   22  C   UNL     1       6.054  32.140  60.164  1.00  0.00     0.011 A 
HETATM   23  C   UNL     1       6.361  32.421  61.498  1.00  0.00     0.024 A 
HETATM   24  C   UNL     1       7.630  32.134  61.993  1.00  0.00     0.034 A 
HETATM   25 CL   UNL     1       8.008  32.484  63.634  1.00  0.00    -0.084 Cl
HETATM   26  C   UNL     1       8.595  31.568  61.166  1.00  0.00     0.024 A 
HETATM   27  C   UNL     1       8.291  31.287  59.832  1.00  0.00     0.011 A 
ENDBRANCH   2  21
BRANCH   1  28
HETATM   28  C   UNL     1       7.922  29.166  57.400  1.00  0.00     0.293 C 
HETATM   29  O   UNL     1       8.310  28.248  58.107  1.00  0.00    -0.259 OA
BRANCH  28  30
HETATM   30  O   UNL     1       8.680  29.808  56.481  1.00  0.00    -0.318 OA
BRANCH  30  31
HETATM   31  C   UNL     1      10.088  29.524  56.518  1.00  0.00     0.174 C 
HETATM   32  C   UNL     1      10.813  30.528  57.394  1.00  0.00     0.034 C 
ENDBRANCH  30  31
ENDBRANCH  28  30
ENDBRANCH   1  28
TORSDOF 7
ENDMDL
