MODEL 1
REMARK VINA RESULT:      -8.6      0.000      0.000
REMARK  4 active torsions:
REMARK  status: ('A' for Active; 'I' for Inactive)
REMARK    1  A    between atoms: C_2  and  C_3 
REMARK    2  A    between atoms: C_3  and  N_4 
REMARK    3  A    between atoms: N_4  and  N_5 
REMARK    4  A    between atoms: C_10  and  C_11 
ROOT
HETATM    1  N   UNL     1       6.422  26.863  56.238  1.00  0.00    -0.231 N 
HETATM    2  C   UNL     1       5.275  27.471  56.713  1.00  0.00     0.211 A 
HETATM    3  S   UNL     1       4.935  29.080  56.918  1.00  0.00    -0.038 SA
HETATM    4  N   UNL     1       4.400  26.433  57.003  1.00  0.00    -0.250 N 
HETATM    5  N   UNL     1       4.967  25.226  56.692  1.00  0.00    -0.152 NA
HETATM    6  C   UNL     1       6.159  25.514  56.228  1.00  0.00     0.177 A 
HETATM    7  H   UNL     1       3.454  26.511  57.355  1.00  0.00     0.191 HD
ENDROOT
BRANCH   1   8
HETATM    8  N   UNL     1       7.574  27.542  55.827  1.00  0.00    -0.225 NA
HETATM    9  H   UNL     1       7.328  28.536  55.770  1.00  0.00     0.147 HD
BRANCH   8  10
HETATM   10  C   UNL     1       8.660  27.412  56.809  1.00  0.00     0.149 C 
BRANCH  10  11
HETATM   11  C   UNL     1       9.001  28.756  57.417  1.00  0.00    -0.041 A 
HETATM   12  C   UNL     1      10.146  29.464  56.978  1.00  0.00     0.011 A 
HETATM   13  C   UNL     1      10.483  30.705  57.531  1.00  0.00     0.040 A 
HETATM   14  C   UNL     1       9.666  31.211  58.518  1.00  0.00     0.105 A 
HETATM   15  C   UNL     1       8.549  30.537  58.948  1.00  0.00     0.105 A 
HETATM   16  O   UNL     1       9.846  32.389  59.172  1.00  0.00    -0.323 OA
HETATM   17  C   UNL     1       8.186  29.319  58.416  1.00  0.00     0.048 A 
HETATM   18  O   UNL     1       7.885  31.205  59.929  1.00  0.00    -0.323 OA
HETATM   19  C   UNL     1       8.722  32.371  60.077  1.00  0.00     0.352 A 
ENDBRANCH  10  11
ENDBRANCH   8  10
ENDBRANCH   1   8
BRANCH   6  20
HETATM   20  C   UNL     1       7.095  24.462  55.768  1.00  0.00     0.016 A 
HETATM   21  C   UNL     1       7.148  24.199  54.397  1.00  0.00     0.034 A 
HETATM   22  C   UNL     1       8.024  23.230  53.939  1.00  0.00     0.117 A 
HETATM   23  N   UNL     1       8.835  22.519  54.747  1.00  0.00    -0.273 NA
HETATM   24  C   UNL     1       8.782  22.803  56.066  1.00  0.00     0.117 A 
HETATM   25  C   UNL     1       7.948  23.761  56.618  1.00  0.00     0.034 A 
ENDBRANCH   6  20
TORSDOF 4
ENDMDL
MODEL 2
REMARK VINA RESULT:      -8.5      3.212      5.095
REMARK  4 active torsions:
REMARK  status: ('A' for Active; 'I' for Inactive)
REMARK    1  A    between atoms: C_2  and  C_3 
REMARK    2  A    between atoms: C_3  and  N_4 
REMARK    3  A    between atoms: N_4  and  N_5 
REMARK    4  A    between atoms: C_10  and  C_11 
ROOT
HETATM    1  N   UNL     1       7.526  22.657  54.852  1.00  0.00    -0.231 N 
HETATM    2  C   UNL     1       8.209  21.474  54.631  1.00  0.00     0.211 A 
HETATM    3  S   UNL     1       8.596  20.259  55.691  1.00  0.00    -0.038 SA
HETATM    4  N   UNL     1       8.529  21.480  53.281  1.00  0.00    -0.250 N 
HETATM    5  N   UNL     1       8.041  22.606  52.676  1.00  0.00    -0.152 NA
HETATM    6  C   UNL     1       7.439  23.276  53.629  1.00  0.00     0.177 A 
HETATM    7  H   UNL     1       9.017  20.758  52.765  1.00  0.00     0.191 HD
ENDROOT
BRANCH   1   8
HETATM    8  N   UNL     1       7.016  23.065  56.089  1.00  0.00    -0.225 NA
HETATM    9  H   UNL     1       6.897  22.218  56.655  1.00  0.00     0.147 HD
BRANCH   8  10
HETATM   10  C   UNL     1       7.957  23.942  56.801  1.00  0.00     0.149 C 
BRANCH  10  11
HETATM   11  C   UNL     1       7.366  25.323  56.994  1.00  0.00    -0.041 A 
HETATM   12  C   UNL     1       6.004  25.562  56.693  1.00  0.00     0.011 A 
HETATM   13  C   UNL     1       5.440  26.832  56.857  1.00  0.00     0.040 A 
HETATM   14  C   UNL     1       6.256  27.842  57.319  1.00  0.00     0.105 A 
HETATM   15  C   UNL     1       7.578  27.622  57.621  1.00  0.00     0.105 A 
HETATM   16  O   UNL     1       5.884  29.133  57.525  1.00  0.00    -0.323 OA
HETATM   17  C   UNL     1       8.159  26.379  57.478  1.00  0.00     0.048 A 
HETATM   18  O   UNL     1       8.207  28.747  58.055  1.00  0.00    -0.323 OA
HETATM   19  C   UNL     1       7.130  29.705  57.977  1.00  0.00     0.352 A 
ENDBRANCH  10  11
ENDBRANCH   8  10
ENDBRANCH   1   8
BRANCH   6  20
HETATM   20  C   UNL     1       6.764  24.571  53.371  1.00  0.00     0.016 A 
HETATM   21  C   UNL     1       7.561  25.719  53.342  1.00  0.00     0.034 A 
HETATM   22  C   UNL     1       6.959  26.939  53.090  1.00  0.00     0.117 A 
HETATM   23  N   UNL     1       5.638  27.085  52.869  1.00  0.00    -0.273 NA
HETATM   24  C   UNL     1       4.890  25.961  52.881  1.00  0.00     0.117 A 
HETATM   25  C   UNL     1       5.401  24.694  53.113  1.00  0.00     0.034 A 
ENDBRANCH   6  20
TORSDOF 4
ENDMDL
MODEL 3
REMARK VINA RESULT:      -8.4      1.254      1.586
REMARK  4 active torsions:
REMARK  status: ('A' for Active; 'I' for Inactive)
REMARK    1  A    between atoms: C_2  and  C_3 
REMARK    2  A    between atoms: C_3  and  N_4 
REMARK    3  A    between atoms: N_4  and  N_5 
REMARK    4  A    between atoms: C_10  and  C_11 
ROOT
HETATM    1  N   UNL     1       6.685  26.565  54.938  1.00  0.00    -0.231 N 
HETATM    2  C   UNL     1       5.557  27.296  54.612  1.00  0.00     0.211 A 
HETATM    3  S   UNL     1       5.272  28.923  54.751  1.00  0.00    -0.038 SA
HETATM    4  N   UNL     1       4.650  26.372  54.112  1.00  0.00    -0.250 N 
HETATM    5  N   UNL     1       5.199  25.118  54.098  1.00  0.00    -0.152 NA
HETATM    6  C   UNL     1       6.410  25.267  54.579  1.00  0.00     0.177 A 
HETATM    7  H   UNL     1       3.719  26.558  53.759  1.00  0.00     0.191 HD
ENDROOT
BRANCH   1   8
HETATM    8  N   UNL     1       7.855  27.103  55.483  1.00  0.00    -0.225 NA
HETATM    9  H   UNL     1       7.973  28.034  55.071  1.00  0.00     0.147 HD
BRANCH   8  10
HETATM   10  C   UNL     1       7.745  27.276  56.939  1.00  0.00     0.149 C 
BRANCH  10  11
HETATM   11  C   UNL     1       8.457  28.536  57.388  1.00  0.00    -0.041 A 
HETATM   12  C   UNL     1       9.652  28.943  56.747  1.00  0.00     0.011 A 
HETATM   13  C   UNL     1      10.329  30.099  57.151  1.00  0.00     0.040 A 
HETATM   14  C   UNL     1       9.795  30.825  58.193  1.00  0.00     0.105 A 
HETATM   15  C   UNL     1       8.633  30.444  58.819  1.00  0.00     0.105 A 
HETATM   16  O   UNL     1      10.322  31.961  58.722  1.00  0.00    -0.323 OA
HETATM   17  C   UNL     1       7.939  29.316  58.437  1.00  0.00     0.048 A 
HETATM   18  O   UNL     1       8.281  31.291  59.822  1.00  0.00    -0.323 OA
HETATM   19  C   UNL     1       9.365  32.242  59.766  1.00  0.00     0.352 A 
ENDBRANCH  10  11
ENDBRANCH   8  10
ENDBRANCH   1   8
BRANCH   6  20
HETATM   20  C   UNL     1       7.343  24.124  54.720  1.00  0.00     0.016 A 
HETATM   21  C   UNL     1       7.554  23.618  56.006  1.00  0.00     0.034 A 
HETATM   22  C   UNL     1       8.409  22.542  56.164  1.00  0.00     0.117 A 
HETATM   23  N   UNL     1       9.057  21.950  55.141  1.00  0.00    -0.273 NA
HETATM   24  C   UNL     1       8.822  22.441  53.906  1.00  0.00     0.117 A 
HETATM   25  C   UNL     1       7.976  23.506  53.644  1.00  0.00     0.034 A 
ENDBRANCH   6  20
TORSDOF 4
ENDMDL
MODEL 4
REMARK VINA RESULT:      -8.4      4.377      7.146
REMARK  4 active torsions:
REMARK  status: ('A' for Active; 'I' for Inactive)
REMARK    1  A    between atoms: C_2  and  C_3 
REMARK    2  A    between atoms: C_3  and  N_4 
REMARK    3  A    between atoms: N_4  and  N_5 
REMARK    4  A    between atoms: C_10  and  C_11 
ROOT
HETATM    1  N   UNL     1       5.877  26.283  52.912  1.00  0.00    -0.231 N 
HETATM    2  C   UNL     1       5.487  27.100  51.867  1.00  0.00     0.211 A 
HETATM    3  S   UNL     1       5.019  26.702  50.327  1.00  0.00    -0.038 SA
HETATM    4  N   UNL     1       5.554  28.393  52.365  1.00  0.00    -0.250 N 
HETATM    5  N   UNL     1       5.942  28.383  53.678  1.00  0.00    -0.152 NA
HETATM    6  C   UNL     1       6.112  27.118  53.977  1.00  0.00     0.177 A 
HETATM    7  H   UNL     1       5.319  29.250  51.878  1.00  0.00     0.191 HD
ENDROOT
BRANCH   1   8
HETATM    8  N   UNL     1       5.959  24.887  52.846  1.00  0.00    -0.225 NA
HETATM    9  H   UNL     1       5.375  24.593  52.057  1.00  0.00     0.147 HD
BRANCH   8  10
HETATM   10  C   UNL     1       7.331  24.437  52.572  1.00  0.00     0.149 C 
BRANCH  10  11
HETATM   11  C   UNL     1       7.678  23.222  53.408  1.00  0.00    -0.041 A 
HETATM   12  C   UNL     1       7.827  21.956  52.793  1.00  0.00     0.011 A 
HETATM   13  C   UNL     1       8.141  20.820  53.547  1.00  0.00     0.040 A 
HETATM   14  C   UNL     1       8.295  20.975  54.907  1.00  0.00     0.105 A 
HETATM   15  C   UNL     1       8.159  22.199  55.515  1.00  0.00     0.105 A 
HETATM   16  O   UNL     1       8.586  19.984  55.792  1.00  0.00    -0.323 OA
HETATM   17  C   UNL     1       7.860  23.337  54.797  1.00  0.00     0.048 A 
HETATM   18  O   UNL     1       8.345  22.135  56.861  1.00  0.00    -0.323 OA
HETATM   19  C   UNL     1       8.600  20.724  57.031  1.00  0.00     0.352 A 
ENDBRANCH  10  11
ENDBRANCH   8  10
ENDBRANCH   1   8
BRANCH   6  20
HETATM   20  C   UNL     1       6.531  26.683  55.330  1.00  0.00     0.016 A 
HETATM   21  C   UNL     1       7.741  27.181  55.822  1.00  0.00     0.034 A 
HETATM   22  C   UNL     1       8.150  26.801  57.089  1.00  0.00     0.117 A 
HETATM   23  N   UNL     1       7.442  25.972  57.881  1.00  0.00    -0.273 NA
HETATM   24  C   UNL     1       6.267  25.519  57.395  1.00  0.00     0.117 A 
HETATM   25  C   UNL     1       5.768  25.850  56.146  1.00  0.00     0.034 A 
ENDBRANCH   6  20
TORSDOF 4
ENDMDL
MODEL 5
REMARK VINA RESULT:      -8.3      4.017      7.812
REMARK  4 active torsions:
REMARK  status: ('A' for Active; 'I' for Inactive)
REMARK    1  A    between atoms: C_2  and  C_3 
REMARK    2  A    between atoms: C_3  and  N_4 
REMARK    3  A    between atoms: N_4  and  N_5 
REMARK    4  A    between atoms: C_10  and  C_11 
ROOT
HETATM    1  N   UNL     1       8.759  30.258  58.816  1.00  0.00    -0.231 N 
HETATM    2  C   UNL     1       9.853  30.451  57.992  1.00  0.00     0.211 A 
HETATM    3  S   UNL     1      10.555  29.418  56.901  1.00  0.00    -0.038 SA
HETATM    4  N   UNL     1      10.285  31.744  58.250  1.00  0.00    -0.250 N 
HETATM    5  N   UNL     1       9.476  32.345  59.175  1.00  0.00    -0.152 NA
HETATM    6  C   UNL     1       8.573  31.445  59.481  1.00  0.00     0.177 A 
HETATM    7  H   UNL     1      11.058  32.230  57.810  1.00  0.00     0.191 HD
ENDROOT
BRANCH   1   8
HETATM    8  N   UNL     1       8.009  29.078  58.884  1.00  0.00    -0.225 NA
HETATM    9  H   UNL     1       7.442  29.137  59.737  1.00  0.00     0.147 HD
BRANCH   8  10
HETATM   10  C   UNL     1       7.085  28.958  57.748  1.00  0.00     0.149 C 
BRANCH  10  11
HETATM   11  C   UNL     1       7.026  27.528  57.250  1.00  0.00    -0.041 A 
HETATM   12  C   UNL     1       5.871  27.056  56.582  1.00  0.00     0.011 A 
HETATM   13  C   UNL     1       5.794  25.737  56.120  1.00  0.00     0.040 A 
HETATM   14  C   UNL     1       6.877  24.915  56.340  1.00  0.00     0.105 A 
HETATM   15  C   UNL     1       8.006  25.363  56.981  1.00  0.00     0.105 A 
HETATM   16  O   UNL     1       6.971  23.609  55.973  1.00  0.00    -0.323 OA
HETATM   17  C   UNL     1       8.115  26.659  57.438  1.00  0.00     0.048 A 
HETATM   18  O   UNL     1       8.954  24.396  57.101  1.00  0.00    -0.323 OA
HETATM   19  C   UNL     1       8.285  23.282  56.474  1.00  0.00     0.352 A 
ENDBRANCH  10  11
ENDBRANCH   8  10
ENDBRANCH   1   8
BRANCH   6  20
HETATM   20  C   UNL     1       7.495  31.719  60.460  1.00  0.00     0.016 A 
HETATM   21  C   UNL     1       6.305  32.267  59.972  1.00  0.00     0.034 A 
HETATM   22  C   UNL     1       5.276  32.520  60.862  1.00  0.00     0.117 A 
HETATM   23  N   UNL     1       5.357  32.267  62.183  1.00  0.00    -0.273 NA
HETATM   24  C   UNL     1       6.507  31.719  62.630  1.00  0.00     0.117 A 
HETATM   25  C   UNL     1       7.588  31.420  61.817  1.00  0.00     0.034 A 
ENDBRANCH   6  20
TORSDOF 4
ENDMDL
MODEL 6
REMARK VINA RESULT:      -8.2      4.746      7.566
REMARK  4 active torsions:
REMARK  status: ('A' for Active; 'I' for Inactive)
REMARK    1  A    between atoms: C_2  and  C_3 
REMARK    2  A    between atoms: C_3  and  N_4 
REMARK    3  A    between atoms: N_4  and  N_5 
REMARK    4  A    between atoms: C_10  and  C_11 
ROOT
HETATM    1  N   UNL     1       5.518  26.870  51.778  1.00  0.00    -0.231 N 
HETATM    2  C   UNL     1       5.103  27.355  50.551  1.00  0.00     0.211 A 
HETATM    3  S   UNL     1       4.587  26.534  49.206  1.00  0.00    -0.038 SA
HETATM    4  N   UNL     1       5.196  28.736  50.649  1.00  0.00    -0.250 N 
HETATM    5  N   UNL     1       5.622  29.101  51.897  1.00  0.00    -0.152 NA
HETATM    6  C   UNL     1       5.790  27.975  52.548  1.00  0.00     0.177 A 
HETATM    7  H   UNL     1       4.954  29.417  49.940  1.00  0.00     0.191 HD
ENDROOT
BRANCH   1   8
HETATM    8  N   UNL     1       5.586  25.515  52.120  1.00  0.00    -0.225 NA
HETATM    9  H   UNL     1       5.031  25.006  51.424  1.00  0.00     0.147 HD
BRANCH   8  10
HETATM   10  C   UNL     1       6.963  25.006  52.044  1.00  0.00     0.149 C 
BRANCH  10  11
HETATM   11  C   UNL     1       7.231  24.009  53.152  1.00  0.00    -0.041 A 
HETATM   12  C   UNL     1       6.931  24.341  54.495  1.00  0.00     0.011 A 
HETATM   13  C   UNL     1       7.177  23.438  55.535  1.00  0.00     0.040 A 
HETATM   14  C   UNL     1       7.724  22.216  55.208  1.00  0.00     0.105 A 
HETATM   15  C   UNL     1       8.014  21.879  53.908  1.00  0.00     0.105 A 
HETATM   16  O   UNL     1       8.040  21.226  56.084  1.00  0.00    -0.323 OA
HETATM   17  C   UNL     1       7.774  22.744  52.862  1.00  0.00     0.048 A 
HETATM   18  O   UNL     1       8.551  20.634  53.802  1.00  0.00    -0.323 OA
HETATM   19  C   UNL     1       8.578  20.232  55.187  1.00  0.00     0.352 A 
ENDBRANCH  10  11
ENDBRANCH   8  10
ENDBRANCH   1   8
BRANCH   6  20
HETATM   20  C   UNL     1       6.245  27.946  53.958  1.00  0.00     0.016 A 
HETATM   21  C   UNL     1       5.279  27.722  54.943  1.00  0.00     0.034 A 
HETATM   22  C   UNL     1       5.678  27.676  56.267  1.00  0.00     0.117 A 
HETATM   23  N   UNL     1       6.956  27.837  56.664  1.00  0.00    -0.273 NA
HETATM   24  C   UNL     1       7.875  28.032  55.696  1.00  0.00     0.117 A 
HETATM   25  C   UNL     1       7.576  28.083  54.344  1.00  0.00     0.034 A 
ENDBRANCH   6  20
TORSDOF 4
ENDMDL
MODEL 7
REMARK VINA RESULT:      -8.1      4.509      6.275
REMARK  4 active torsions:
REMARK  status: ('A' for Active; 'I' for Inactive)
REMARK    1  A    between atoms: C_2  and  C_3 
REMARK    2  A    between atoms: C_3  and  N_4 
REMARK    3  A    between atoms: N_4  and  N_5 
REMARK    4  A    between atoms: C_10  and  C_11 
ROOT
HETATM    1  N   UNL     1       7.941  24.701  55.737  1.00  0.00    -0.231 N 
HETATM    2  C   UNL     1       7.968  25.396  56.932  1.00  0.00     0.211 A 
HETATM    3  S   UNL     1       7.639  26.992  57.238  1.00  0.00    -0.038 SA
HETATM    4  N   UNL     1       8.336  24.464  57.892  1.00  0.00    -0.250 N 
HETATM    5  N   UNL     1       8.504  23.230  57.325  1.00  0.00    -0.152 NA
HETATM    6  C   UNL     1       8.249  23.399  56.050  1.00  0.00     0.177 A 
HETATM    7  H   UNL     1       8.438  24.619  58.888  1.00  0.00     0.191 HD
ENDROOT
BRANCH   1   8
HETATM    8  N   UNL     1       7.619  25.260  54.495  1.00  0.00    -0.225 NA
HETATM    9  H   UNL     1       7.980  24.620  53.779  1.00  0.00     0.147 HD
BRANCH   8  10
HETATM   10  C   UNL     1       6.165  25.358  54.306  1.00  0.00     0.149 C 
BRANCH  10  11
HETATM   11  C   UNL     1       5.836  26.065  53.007  1.00  0.00    -0.041 A 
HETATM   12  C   UNL     1       5.306  25.335  51.916  1.00  0.00     0.011 A 
HETATM   13  C   UNL     1       5.001  25.968  50.705  1.00  0.00     0.040 A 
HETATM   14  C   UNL     1       5.239  27.322  50.611  1.00  0.00     0.105 A 
HETATM   15  C   UNL     1       5.747  28.042  51.664  1.00  0.00     0.105 A 
HETATM   16  O   UNL     1       5.016  28.092  49.513  1.00  0.00    -0.323 OA
HETATM   17  C   UNL     1       6.047  27.448  52.872  1.00  0.00     0.048 A 
HETATM   18  O   UNL     1       5.910  29.358  51.363  1.00  0.00    -0.323 OA
HETATM   19  C   UNL     1       5.459  29.380  49.993  1.00  0.00     0.352 A 
ENDBRANCH  10  11
ENDBRANCH   8  10
ENDBRANCH   1   8
BRANCH   6  20
HETATM   20  C   UNL     1       8.315  22.278  55.082  1.00  0.00     0.016 A 
HETATM   21  C   UNL     1       8.743  21.037  55.562  1.00  0.00     0.034 A 
HETATM   22  C   UNL     1       8.802  19.970  54.683  1.00  0.00     0.117 A 
HETATM   23  N   UNL     1       8.468  20.060  53.381  1.00  0.00    -0.273 NA
HETATM   24  C   UNL     1       8.038  21.262  52.943  1.00  0.00     0.117 A 
HETATM   25  C   UNL     1       7.934  22.385  53.747  1.00  0.00     0.034 A 
ENDBRANCH   6  20
TORSDOF 4
ENDMDL
MODEL 8
REMARK VINA RESULT:      -8.0      5.698      8.126
REMARK  4 active torsions:
REMARK  status: ('A' for Active; 'I' for Inactive)
REMARK    1  A    between atoms: C_2  and  C_3 
REMARK    2  A    between atoms: C_3  and  N_4 
REMARK    3  A    between atoms: N_4  and  N_5 
REMARK    4  A    between atoms: C_10  and  C_11 
ROOT
HETATM    1  N   UNL     1       5.497  27.279  52.307  1.00  0.00    -0.231 N 
HETATM    2  C   UNL     1       5.689  28.124  53.384  1.00  0.00     0.211 A 
HETATM    3  S   UNL     1       6.037  27.765  54.965  1.00  0.00    -0.038 SA
HETATM    4  N   UNL     1       5.536  29.407  52.879  1.00  0.00    -0.250 N 
HETATM    5  N   UNL     1       5.287  29.367  51.533  1.00  0.00    -0.152 NA
HETATM    6  C   UNL     1       5.285  28.093  51.221  1.00  0.00     0.177 A 
HETATM    7  H   UNL     1       5.626  30.279  53.386  1.00  0.00     0.191 HD
ENDROOT
BRANCH   1   8
HETATM    8  N   UNL     1       5.559  25.882  52.366  1.00  0.00    -0.225 NA
HETATM    9  H   UNL     1       4.999  25.527  51.584  1.00  0.00     0.147 HD
BRANCH   8  10
HETATM   10  C   UNL     1       6.933  25.392  52.183  1.00  0.00     0.149 C 
BRANCH  10  11
HETATM   11  C   UNL     1       7.225  24.241  53.122  1.00  0.00    -0.041 A 
HETATM   12  C   UNL     1       6.901  24.344  54.496  1.00  0.00     0.011 A 
HETATM   13  C   UNL     1       7.168  23.295  55.382  1.00  0.00     0.040 A 
HETATM   14  C   UNL     1       7.760  22.160  54.873  1.00  0.00     0.105 A 
HETATM   15  C   UNL     1       8.074  22.044  53.540  1.00  0.00     0.105 A 
HETATM   16  O   UNL     1       8.102  21.053  55.585  1.00  0.00    -0.323 OA
HETATM   17  C   UNL     1       7.813  23.057  52.642  1.00  0.00     0.048 A 
HETATM   18  O   UNL     1       8.654  20.850  53.245  1.00  0.00    -0.323 OA
HETATM   19  C   UNL     1       8.682  20.233  54.549  1.00  0.00     0.352 A 
ENDBRANCH  10  11
ENDBRANCH   8  10
ENDBRANCH   1   8
BRANCH   6  20
HETATM   20  C   UNL     1       5.056  27.628  49.833  1.00  0.00     0.016 A 
HETATM   21  C   UNL     1       5.544  28.428  48.795  1.00  0.00     0.034 A 
HETATM   22  C   UNL     1       5.355  28.010  47.489  1.00  0.00     0.117 A 
HETATM   23  N   UNL     1       4.722  26.867  47.158  1.00  0.00    -0.273 NA
HETATM   24  C   UNL     1       4.278  26.100  48.176  1.00  0.00     0.117 A 
HETATM   25  C   UNL     1       4.428  26.426  49.514  1.00  0.00     0.034 A 
ENDBRANCH   6  20
TORSDOF 4
ENDMDL
MODEL 9
REMARK VINA RESULT:      -7.9      4.521      7.573
REMARK  4 active torsions:
REMARK  status: ('A' for Active; 'I' for Inactive)
REMARK    1  A    between atoms: C_2  and  C_3 
REMARK    2  A    between atoms: C_3  and  N_4 
REMARK    3  A    between atoms: N_4  and  N_5 
REMARK    4  A    between atoms: C_10  and  C_11 
ROOT
HETATM    1  N   UNL     1       6.257  26.934  55.294  1.00  0.00    -0.231 N 
HETATM    2  C   UNL     1       6.892  27.212  56.491  1.00  0.00     0.211 A 
HETATM    3  S   UNL     1       7.624  26.183  57.567  1.00  0.00    -0.038 SA
HETATM    4  N   UNL     1       6.809  28.588  56.642  1.00  0.00    -0.250 N 
HETATM    5  N   UNL     1       6.175  29.152  55.569  1.00  0.00    -0.152 NA
HETATM    6  C   UNL     1       5.873  28.149  54.780  1.00  0.00     0.177 A 
HETATM    7  H   UNL     1       7.186  29.144  57.401  1.00  0.00     0.191 HD
ENDROOT
BRANCH   1   8
HETATM    8  N   UNL     1       6.105  25.654  54.749  1.00  0.00    -0.225 NA
HETATM    9  H   UNL     1       5.258  25.678  54.170  1.00  0.00     0.147 HD
BRANCH   8  10
HETATM   10  C   UNL     1       7.229  25.302  53.871  1.00  0.00     0.149 C 
BRANCH  10  11
HETATM   11  C   UNL     1       7.582  23.835  54.010  1.00  0.00    -0.041 A 
HETATM   12  C   UNL     1       7.781  23.040  52.856  1.00  0.00     0.011 A 
HETATM   13  C   UNL     1       8.101  21.682  52.961  1.00  0.00     0.040 A 
HETATM   14  C   UNL     1       8.212  21.145  54.225  1.00  0.00     0.105 A 
HETATM   15  C   UNL     1       8.028  21.907  55.353  1.00  0.00     0.105 A 
HETATM   16  O   UNL     1       8.503  19.849  54.514  1.00  0.00    -0.323 OA
HETATM   17  C   UNL     1       7.722  23.249  55.280  1.00  0.00     0.048 A 
HETATM   18  O   UNL     1       8.178  21.186  56.496  1.00  0.00    -0.323 OA
HETATM   19  C   UNL     1       8.463  19.879  55.957  1.00  0.00     0.352 A 
ENDBRANCH  10  11
ENDBRANCH   8  10
ENDBRANCH   1   8
BRANCH   6  20
HETATM   20  C   UNL     1       5.174  28.350  53.489  1.00  0.00     0.016 A 
HETATM   21  C   UNL     1       3.800  28.602  53.532  1.00  0.00     0.034 A 
HETATM   22  C   UNL     1       3.125  28.807  52.341  1.00  0.00     0.117 A 
HETATM   23  N   UNL     1       3.721  28.776  51.133  1.00  0.00    -0.273 NA
HETATM   24  C   UNL     1       5.052  28.552  51.116  1.00  0.00     0.117 A 
HETATM   25  C   UNL     1       5.816  28.346  52.253  1.00  0.00     0.034 A 
ENDBRANCH   6  20
TORSDOF 4
ENDMDL
MODEL 10
REMARK VINA RESULT:      -7.8      5.369      7.418
REMARK  4 active torsions:
REMARK  status: ('A' for Active; 'I' for Inactive)
REMARK    1  A    between atoms: C_2  and  C_3 
REMARK    2  A    between atoms: C_3  and  N_4 
REMARK    3  A    between atoms: N_4  and  N_5 
REMARK    4  A    between atoms: C_10  and  C_11 
ROOT
HETATM    1  N   UNL     1       4.782  27.698  52.199  1.00  0.00    -0.231 N 
HETATM    2  C   UNL     1       4.129  28.306  53.255  1.00  0.00     0.211 A 
HETATM    3  S   UNL     1       4.461  28.253  54.879  1.00  0.00    -0.038 SA
HETATM    4  N   UNL     1       3.084  29.018  52.683  1.00  0.00    -0.250 N 
HETATM    5  N   UNL     1       3.101  28.884  51.321  1.00  0.00    -0.152 NA
HETATM    6  C   UNL     1       4.127  28.109  51.063  1.00  0.00     0.177 A 
HETATM    7  H   UNL     1       2.406  29.600  53.160  1.00  0.00     0.191 HD
ENDROOT
BRANCH   1   8
HETATM    8  N   UNL     1       5.905  26.872  52.323  1.00  0.00    -0.225 NA
HETATM    9  H   UNL     1       6.334  27.091  53.228  1.00  0.00     0.147 HD
BRANCH   8  10
HETATM   10  C   UNL     1       5.532  25.451  52.342  1.00  0.00     0.149 C 
BRANCH  10  11
HETATM   11  C   UNL     1       6.462  24.662  53.241  1.00  0.00    -0.041 A 
HETATM   12  C   UNL     1       7.383  23.744  52.680  1.00  0.00     0.011 A 
HETATM   13  C   UNL     1       8.246  23.000  53.492  1.00  0.00     0.040 A 
HETATM   14  C   UNL     1       8.168  23.189  54.854  1.00  0.00     0.105 A 
HETATM   15  C   UNL     1       7.284  24.081  55.411  1.00  0.00     0.105 A 
HETATM   16  O   UNL     1       8.917  22.547  55.790  1.00  0.00    -0.323 OA
HETATM   17  C   UNL     1       6.428  24.835  54.636  1.00  0.00     0.048 A 
HETATM   18  O   UNL     1       7.363  24.113  56.768  1.00  0.00    -0.323 OA
HETATM   19  C   UNL     1       8.389  23.126  57.002  1.00  0.00     0.352 A 
ENDBRANCH  10  11
ENDBRANCH   8  10
ENDBRANCH   1   8
BRANCH   6  20
HETATM   20  C   UNL     1       4.492  27.728  49.678  1.00  0.00     0.016 A 
HETATM   21  C   UNL     1       4.020  26.502  49.201  1.00  0.00     0.034 A 
HETATM   22  C   UNL     1       4.335  26.127  47.906  1.00  0.00     0.117 A 
HETATM   23  N   UNL     1       5.078  26.883  47.074  1.00  0.00    -0.273 NA
HETATM   24  C   UNL     1       5.506  28.072  47.548  1.00  0.00     0.117 A 
HETATM   25  C   UNL     1       5.234  28.539  48.823  1.00  0.00     0.034 A 
ENDBRANCH   6  20
TORSDOF 4
ENDMDL
