MODEL 1
REMARK VINA RESULT:      -9.5      0.000      0.000
REMARK  4 active torsions:
REMARK  status: ('A' for Active; 'I' for Inactive)
REMARK    1  A    between atoms: C_5  and  C_6 
REMARK    2  A    between atoms: C_6  and  N_7 
REMARK    3  A    between atoms: C_6  and  C_18 
REMARK    4  A    between atoms: N_7  and  C_8 
ROOT
HETATM    1  C   UNL     1       6.941  23.819  55.144  1.00  0.00     0.290 C 
ENDROOT
BRANCH   1   2
HETATM    2  C   UNL     1       7.616  22.479  54.931  1.00  0.00     0.021 A 
HETATM    3  C   UNL     1       7.731  21.880  53.666  1.00  0.00     0.055 A 
HETATM    4  C   UNL     1       8.344  20.637  53.533  1.00  0.00     0.117 A 
HETATM    5  C   UNL     1       8.844  19.959  54.639  1.00  0.00     0.045 A 
HETATM    6  F   UNL     1       8.460  20.091  52.316  1.00  0.00    -0.206 F 
HETATM    7  C   UNL     1       8.729  20.533  55.903  1.00  0.00     0.046 A 
HETATM    8  C   UNL     1       8.119  21.780  56.039  1.00  0.00     0.125 A 
HETATM    9  F   UNL     1       8.027  22.321  57.261  1.00  0.00    -0.205 F 
ENDBRANCH   1   2
BRANCH   1  10
HETATM   10  N   UNL     1       7.709  24.766  55.989  1.00  0.00     0.101 N 
HETATM   11  H   UNL     1       8.075  25.488  55.373  1.00  0.00     0.317 HD
BRANCH  10  12
HETATM   12  C   UNL     1       7.003  25.302  57.160  1.00  0.00     0.225 C 
HETATM   13  C   UNL     1       5.635  25.953  56.862  1.00  0.00     0.069 C 
HETATM   14  C   UNL     1       5.796  27.265  56.119  1.00  0.00     0.190 C 
HETATM   15  N   UNL     1       6.653  28.185  56.947  1.00  0.00    -0.067 N 
HETATM   16  C   UNL     1       4.552  28.111  55.935  1.00  0.00     0.035 C 
HETATM   17  H   UNL     1       6.225  28.270  57.881  1.00  0.00     0.280 HD
HETATM   18  C   UNL     1       8.041  27.660  57.144  1.00  0.00     0.237 C 
HETATM   19  C   UNL     1       6.512  29.539  56.303  1.00  0.00     0.235 C 
HETATM   20  C   UNL     1       7.937  26.316  57.862  1.00  0.00     0.063 C 
HETATM   21  C   UNL     1       5.121  29.504  55.665  1.00  0.00     0.030 C 
ENDBRANCH  10  12
ENDBRANCH   1  10
BRANCH   1  22
HETATM   22  C   UNL     1       6.584  24.485  53.819  1.00  0.00    -0.018 A 
HETATM   23  C   UNL     1       7.592  25.020  53.006  1.00  0.00     0.029 A 
HETATM   24  C   UNL     1       7.240  25.612  51.803  1.00  0.00     0.116 A 
HETATM   25  N   UNL     1       5.969  25.710  51.362  1.00  0.00    -0.273 NA
HETATM   26  C   UNL     1       5.005  25.217  52.166  1.00  0.00     0.116 A 
HETATM   27  C   UNL     1       5.257  24.603  53.382  1.00  0.00     0.029 A 
ENDBRANCH   1  22
TORSDOF 4
ENDMDL
MODEL 2
REMARK VINA RESULT:      -9.0      3.043      7.291
REMARK  4 active torsions:
REMARK  status: ('A' for Active; 'I' for Inactive)
REMARK    1  A    between atoms: C_5  and  C_6 
REMARK    2  A    between atoms: C_6  and  N_7 
REMARK    3  A    between atoms: C_6  and  C_18 
REMARK    4  A    between atoms: N_7  and  C_8 
ROOT
HETATM    1  C   UNL     1       7.658  28.169  57.544  1.00  0.00     0.290 C 
ENDROOT
BRANCH   1   2
HETATM    2  C   UNL     1       6.469  28.646  56.734  1.00  0.00     0.021 A 
HETATM    3  C   UNL     1       5.276  29.088  57.328  1.00  0.00     0.055 A 
HETATM    4  C   UNL     1       4.207  29.495  56.533  1.00  0.00     0.117 A 
HETATM    5  C   UNL     1       4.290  29.465  55.146  1.00  0.00     0.045 A 
HETATM    6  F   UNL     1       3.084  29.930  57.118  1.00  0.00    -0.206 F 
HETATM    7  C   UNL     1       5.463  29.019  54.540  1.00  0.00     0.046 A 
HETATM    8  C   UNL     1       6.535  28.615  55.333  1.00  0.00     0.125 A 
HETATM    9  F   UNL     1       7.659  28.199  54.733  1.00  0.00    -0.205 F 
ENDBRANCH   1   2
BRANCH   1  10
HETATM   10  N   UNL     1       8.301  26.937  57.023  1.00  0.00     0.101 N 
HETATM   11  H   UNL     1       9.307  27.075  57.088  1.00  0.00     0.317 HD
BRANCH  10  12
HETATM   12  C   UNL     1       7.846  25.674  57.616  1.00  0.00     0.225 C 
HETATM   13  C   UNL     1       8.724  24.444  57.301  1.00  0.00     0.069 C 
HETATM   14  C   UNL     1       8.595  24.030  55.848  1.00  0.00     0.190 C 
HETATM   15  N   UNL     1       7.147  23.737  55.558  1.00  0.00    -0.067 N 
HETATM   16  C   UNL     1       9.244  22.722  55.443  1.00  0.00     0.035 C 
HETATM   17  H   UNL     1       6.819  23.032  56.236  1.00  0.00     0.280 HD
HETATM   18  C   UNL     1       6.271  24.941  55.714  1.00  0.00     0.237 C 
HETATM   19  C   UNL     1       7.145  23.050  54.217  1.00  0.00     0.235 C 
HETATM   20  C   UNL     1       6.390  25.423  57.157  1.00  0.00     0.063 C 
HETATM   21  C   UNL     1       8.509  22.357  54.153  1.00  0.00     0.030 C 
ENDBRANCH  10  12
ENDBRANCH   1  10
BRANCH   1  22
HETATM   22  C   UNL     1       8.705  29.266  57.707  1.00  0.00    -0.018 A 
HETATM   23  C   UNL     1       9.912  29.196  57.000  1.00  0.00     0.029 A 
HETATM   24  C   UNL     1      10.842  30.212  57.160  1.00  0.00     0.116 A 
HETATM   25  N   UNL     1      10.655  31.276  57.967  1.00  0.00    -0.273 NA
HETATM   26  C   UNL     1       9.501  31.319  58.663  1.00  0.00     0.116 A 
HETATM   27  C   UNL     1       8.509  30.356  58.567  1.00  0.00     0.029 A 
ENDBRANCH   1  22
TORSDOF 4
ENDMDL
MODEL 3
REMARK VINA RESULT:      -8.8      2.977      6.888
REMARK  4 active torsions:
REMARK  status: ('A' for Active; 'I' for Inactive)
REMARK    1  A    between atoms: C_5  and  C_6 
REMARK    2  A    between atoms: C_6  and  N_7 
REMARK    3  A    between atoms: C_6  and  C_18 
REMARK    4  A    between atoms: N_7  and  C_8 
ROOT
HETATM    1  C   UNL     1       7.571  27.739  57.182  1.00  0.00     0.290 C 
ENDROOT
BRANCH   1   2
HETATM    2  C   UNL     1       6.581  28.147  56.110  1.00  0.00     0.021 A 
HETATM    3  C   UNL     1       6.895  28.124  54.741  1.00  0.00     0.055 A 
HETATM    4  C   UNL     1       5.952  28.529  53.800  1.00  0.00     0.117 A 
HETATM    5  C   UNL     1       4.693  28.974  54.188  1.00  0.00     0.045 A 
HETATM    6  F   UNL     1       6.264  28.484  52.499  1.00  0.00    -0.206 F 
HETATM    7  C   UNL     1       4.369  29.012  55.542  1.00  0.00     0.046 A 
HETATM    8  C   UNL     1       5.309  28.603  56.486  1.00  0.00     0.125 A 
HETATM    9  F   UNL     1       4.975  28.638  57.784  1.00  0.00    -0.205 F 
ENDBRANCH   1   2
BRANCH   1  10
HETATM   10  N   UNL     1       8.393  26.551  56.839  1.00  0.00     0.101 N 
HETATM   11  H   UNL     1       9.354  26.771  57.087  1.00  0.00     0.317 HD
BRANCH  10  12
HETATM   12  C   UNL     1       7.928  25.269  57.383  1.00  0.00     0.225 C 
HETATM   13  C   UNL     1       8.829  24.055  57.068  1.00  0.00     0.069 C 
HETATM   14  C   UNL     1       8.755  23.678  55.601  1.00  0.00     0.190 C 
HETATM   15  N   UNL     1       7.321  23.381  55.251  1.00  0.00    -0.067 N 
HETATM   16  C   UNL     1       9.431  22.386  55.186  1.00  0.00     0.035 C 
HETATM   17  H   UNL     1       6.975  22.656  55.899  1.00  0.00     0.280 HD
HETATM   18  C   UNL     1       6.430  24.573  55.406  1.00  0.00     0.237 C 
HETATM   19  C   UNL     1       7.374  22.729  53.895  1.00  0.00     0.235 C 
HETATM   20  C   UNL     1       6.492  25.019  56.865  1.00  0.00     0.063 C 
HETATM   21  C   UNL     1       8.745  22.049  53.862  1.00  0.00     0.030 C 
ENDBRANCH  10  12
ENDBRANCH   1  10
BRANCH   1  22
HETATM   22  C   UNL     1       8.482  28.897  57.577  1.00  0.00    -0.018 A 
HETATM   23  C   UNL     1       9.726  29.057  56.955  1.00  0.00     0.029 A 
HETATM   24  C   UNL     1      10.530  30.124  57.327  1.00  0.00     0.116 A 
HETATM   25  N   UNL     1      10.184  31.027  58.267  1.00  0.00    -0.273 NA
HETATM   26  C   UNL     1       8.996  30.847  58.878  1.00  0.00     0.116 A 
HETATM   27  C   UNL     1       8.122  29.816  58.572  1.00  0.00     0.029 A 
ENDBRANCH   1  22
TORSDOF 4
ENDMDL
MODEL 4
REMARK VINA RESULT:      -8.6      2.719      6.460
REMARK  4 active torsions:
REMARK  status: ('A' for Active; 'I' for Inactive)
REMARK    1  A    between atoms: C_5  and  C_6 
REMARK    2  A    between atoms: C_6  and  N_7 
REMARK    3  A    between atoms: C_6  and  C_18 
REMARK    4  A    between atoms: N_7  and  C_8 
ROOT
HETATM    1  C   UNL     1       5.696  26.529  55.428  1.00  0.00     0.290 C 
ENDROOT
BRANCH   1   2
HETATM    2  C   UNL     1       5.182  26.990  54.079  1.00  0.00     0.021 A 
HETATM    3  C   UNL     1       5.614  26.422  52.870  1.00  0.00     0.055 A 
HETATM    4  C   UNL     1       5.123  26.900  51.657  1.00  0.00     0.117 A 
HETATM    5  C   UNL     1       4.210  27.948  51.613  1.00  0.00     0.045 A 
HETATM    6  F   UNL     1       5.533  26.334  50.515  1.00  0.00    -0.206 F 
HETATM    7  C   UNL     1       3.779  28.530  52.803  1.00  0.00     0.046 A 
HETATM    8  C   UNL     1       4.266  28.051  54.018  1.00  0.00     0.125 A 
HETATM    9  F   UNL     1       3.832  28.616  55.154  1.00  0.00    -0.205 F 
ENDBRANCH   1   2
BRANCH   1  10
HETATM   10  N   UNL     1       6.209  25.136  55.445  1.00  0.00     0.101 N 
HETATM   11  H   UNL     1       5.606  24.587  54.837  1.00  0.00     0.317 HD
BRANCH  10  12
HETATM   12  C   UNL     1       7.638  24.974  55.148  1.00  0.00     0.225 C 
HETATM   13  C   UNL     1       7.958  24.190  53.858  1.00  0.00     0.069 C 
HETATM   14  C   UNL     1       7.627  22.718  54.009  1.00  0.00     0.190 C 
HETATM   15  N   UNL     1       8.406  22.166  55.173  1.00  0.00    -0.067 N 
HETATM   16  C   UNL     1       8.072  21.792  52.895  1.00  0.00     0.035 C 
HETATM   17  H   UNL     1       9.405  22.367  55.016  1.00  0.00     0.280 HD
HETATM   18  C   UNL     1       8.027  22.800  56.475  1.00  0.00     0.237 C 
HETATM   19  C   UNL     1       8.265  20.670  55.067  1.00  0.00     0.235 C 
HETATM   20  C   UNL     1       8.309  24.297  56.367  1.00  0.00     0.063 C 
HETATM   21  C   UNL     1       8.077  20.420  53.569  1.00  0.00     0.030 C 
ENDBRANCH  10  12
ENDBRANCH   1  10
BRANCH   1  22
HETATM   22  C   UNL     1       6.757  27.475  55.980  1.00  0.00    -0.018 A 
HETATM   23  C   UNL     1       6.900  27.641  57.363  1.00  0.00     0.029 A 
HETATM   24  C   UNL     1       7.880  28.501  57.837  1.00  0.00     0.116 A 
HETATM   25  N   UNL     1       8.712  29.198  57.038  1.00  0.00    -0.273 NA
HETATM   26  C   UNL     1       8.546  29.051  55.707  1.00  0.00     0.116 A 
HETATM   27  C   UNL     1       7.601  28.213  55.139  1.00  0.00     0.029 A 
ENDBRANCH   1  22
TORSDOF 4
ENDMDL
MODEL 5
REMARK VINA RESULT:      -8.5      1.474      2.269
REMARK  4 active torsions:
REMARK  status: ('A' for Active; 'I' for Inactive)
REMARK    1  A    between atoms: C_5  and  C_6 
REMARK    2  A    between atoms: C_6  and  N_7 
REMARK    3  A    between atoms: C_6  and  C_18 
REMARK    4  A    between atoms: N_7  and  C_8 
ROOT
HETATM    1  C   UNL     1       6.794  24.654  55.098  1.00  0.00     0.290 C 
ENDROOT
BRANCH   1   2
HETATM    2  C   UNL     1       7.492  23.309  55.120  1.00  0.00     0.021 A 
HETATM    3  C   UNL     1       7.618  22.503  53.977  1.00  0.00     0.055 A 
HETATM    4  C   UNL     1       8.252  21.266  54.059  1.00  0.00     0.117 A 
HETATM    5  C   UNL     1       8.762  20.797  55.265  1.00  0.00     0.045 A 
HETATM    6  F   UNL     1       8.378  20.519  52.955  1.00  0.00    -0.206 F 
HETATM    7  C   UNL     1       8.637  21.580  56.411  1.00  0.00     0.046 A 
HETATM    8  C   UNL     1       8.006  22.820  56.330  1.00  0.00     0.125 A 
HETATM    9  F   UNL     1       7.904  23.564  57.441  1.00  0.00    -0.205 F 
ENDBRANCH   1   2
BRANCH   1  10
HETATM   10  N   UNL     1       7.607  25.775  55.631  1.00  0.00     0.101 N 
HETATM   11  H   UNL     1       8.545  25.671  55.252  1.00  0.00     0.317 HD
BRANCH  10  12
HETATM   12  C   UNL     1       7.049  27.121  55.442  1.00  0.00     0.225 C 
HETATM   13  C   UNL     1       8.049  28.184  54.937  1.00  0.00     0.069 C 
HETATM   14  C   UNL     1       9.060  28.545  56.009  1.00  0.00     0.190 C 
HETATM   15  N   UNL     1       8.319  29.045  57.220  1.00  0.00    -0.067 N 
HETATM   16  C   UNL     1       9.978  29.716  55.724  1.00  0.00     0.035 C 
HETATM   17  H   UNL     1       7.708  29.822  56.926  1.00  0.00     0.280 HD
HETATM   18  C   UNL     1       7.439  27.999  57.832  1.00  0.00     0.237 C 
HETATM   19  C   UNL     1       9.375  29.660  58.100  1.00  0.00     0.235 C 
HETATM   20  C   UNL     1       6.418  27.572  56.780  1.00  0.00     0.063 C 
HETATM   21  C   UNL     1      10.450  30.130  57.118  1.00  0.00     0.030 C 
ENDBRANCH  10  12
ENDBRANCH   1  10
BRANCH   1  22
HETATM   22  C   UNL     1       6.287  25.003  53.703  1.00  0.00    -0.018 A 
HETATM   23  C   UNL     1       7.191  25.376  52.700  1.00  0.00     0.029 A 
HETATM   24  C   UNL     1       6.704  25.680  51.438  1.00  0.00     0.116 A 
HETATM   25  N   UNL     1       5.396  25.641  51.112  1.00  0.00    -0.273 NA
HETATM   26  C   UNL     1       4.533  25.307  52.094  1.00  0.00     0.116 A 
HETATM   27  C   UNL     1       4.923  24.982  53.383  1.00  0.00     0.029 A 
ENDBRANCH   1  22
TORSDOF 4
ENDMDL
MODEL 6
REMARK VINA RESULT:      -8.3      2.022      4.406
REMARK  4 active torsions:
REMARK  status: ('A' for Active; 'I' for Inactive)
REMARK    1  A    between atoms: C_5  and  C_6 
REMARK    2  A    between atoms: C_6  and  N_7 
REMARK    3  A    between atoms: C_6  and  C_18 
REMARK    4  A    between atoms: N_7  and  C_8 
ROOT
HETATM    1  C   UNL     1       7.879  25.064  54.130  1.00  0.00     0.290 C 
ENDROOT
BRANCH   1   2
HETATM    2  C   UNL     1       8.139  23.572  54.190  1.00  0.00     0.021 A 
HETATM    3  C   UNL     1       7.583  22.669  53.269  1.00  0.00     0.055 A 
HETATM    4  C   UNL     1       7.840  21.305  53.384  1.00  0.00     0.117 A 
HETATM    5  C   UNL     1       8.636  20.807  54.409  1.00  0.00     0.045 A 
HETATM    6  F   UNL     1       7.315  20.462  52.487  1.00  0.00    -0.206 F 
HETATM    7  C   UNL     1       9.187  21.688  55.337  1.00  0.00     0.046 A 
HETATM    8  C   UNL     1       8.935  23.054  55.222  1.00  0.00     0.125 A 
HETATM    9  F   UNL     1       9.483  23.887  56.118  1.00  0.00    -0.205 F 
ENDBRANCH   1   2
BRANCH   1  10
HETATM   10  N   UNL     1       7.234  25.524  52.876  1.00  0.00     0.101 N 
HETATM   11  H   UNL     1       7.462  24.844  52.155  1.00  0.00     0.317 HD
BRANCH  10  12
HETATM   12  C   UNL     1       5.798  25.822  52.963  1.00  0.00     0.225 C 
HETATM   13  C   UNL     1       4.947  25.310  51.781  1.00  0.00     0.069 C 
HETATM   14  C   UNL     1       5.228  26.096  50.515  1.00  0.00     0.190 C 
HETATM   15  N   UNL     1       4.949  27.551  50.780  1.00  0.00    -0.067 N 
HETATM   16  C   UNL     1       4.324  25.836  49.327  1.00  0.00     0.035 C 
HETATM   17  H   UNL     1       3.983  27.635  51.132  1.00  0.00     0.280 HD
HETATM   18  C   UNL     1       5.851  28.132  51.824  1.00  0.00     0.237 C 
HETATM   19  C   UNL     1       4.952  28.205  49.423  1.00  0.00     0.235 C 
HETATM   20  C   UNL     1       5.633  27.352  53.118  1.00  0.00     0.063 C 
HETATM   21  C   UNL     1       4.512  27.090  48.472  1.00  0.00     0.030 C 
ENDBRANCH  10  12
ENDBRANCH   1  10
BRANCH   1  22
HETATM   22  C   UNL     1       7.069  25.542  55.331  1.00  0.00    -0.018 A 
HETATM   23  C   UNL     1       7.448  26.703  56.018  1.00  0.00     0.029 A 
HETATM   24  C   UNL     1       6.687  27.120  57.100  1.00  0.00     0.116 A 
HETATM   25  N   UNL     1       5.593  26.466  57.540  1.00  0.00    -0.273 NA
HETATM   26  C   UNL     1       5.254  25.336  56.888  1.00  0.00     0.116 A 
HETATM   27  C   UNL     1       5.947  24.842  55.794  1.00  0.00     0.029 A 
ENDBRANCH   1  22
TORSDOF 4
ENDMDL
MODEL 7
REMARK VINA RESULT:      -8.3      2.753      5.879
REMARK  4 active torsions:
REMARK  status: ('A' for Active; 'I' for Inactive)
REMARK    1  A    between atoms: C_5  and  C_6 
REMARK    2  A    between atoms: C_6  and  N_7 
REMARK    3  A    between atoms: C_6  and  C_18 
REMARK    4  A    between atoms: N_7  and  C_8 
ROOT
HETATM    1  C   UNL     1       6.616  25.400  54.609  1.00  0.00     0.290 C 
ENDROOT
BRANCH   1   2
HETATM    2  C   UNL     1       7.141  26.500  55.508  1.00  0.00     0.021 A 
HETATM    3  C   UNL     1       7.924  27.562  55.027  1.00  0.00     0.055 A 
HETATM    4  C   UNL     1       8.398  28.536  55.903  1.00  0.00     0.117 A 
HETATM    5  C   UNL     1       8.120  28.476  57.264  1.00  0.00     0.045 A 
HETATM    6  F   UNL     1       9.128  29.550  55.423  1.00  0.00    -0.206 F 
HETATM    7  C   UNL     1       7.353  27.424  57.760  1.00  0.00     0.046 A 
HETATM    8  C   UNL     1       6.874  26.450  56.884  1.00  0.00     0.125 A 
HETATM    9  F   UNL     1       6.129  25.451  57.378  1.00  0.00    -0.205 F 
ENDBRANCH   1   2
BRANCH   1  10
HETATM   10  N   UNL     1       6.305  25.835  53.225  1.00  0.00     0.101 N 
HETATM   11  H   UNL     1       6.923  25.320  52.603  1.00  0.00     0.317 HD
BRANCH  10  12
HETATM   12  C   UNL     1       4.892  25.763  52.830  1.00  0.00     0.225 C 
HETATM   13  C   UNL     1       4.639  25.422  51.346  1.00  0.00     0.069 C 
HETATM   14  C   UNL     1       5.032  26.571  50.439  1.00  0.00     0.190 C 
HETATM   15  N   UNL     1       4.251  27.793  50.843  1.00  0.00    -0.067 N 
HETATM   16  C   UNL     1       4.656  26.455  48.975  1.00  0.00     0.035 C 
HETATM   17  H   UNL     1       3.248  27.555  50.824  1.00  0.00     0.280 HD
HETATM   18  C   UNL     1       4.570  28.249  52.233  1.00  0.00     0.237 C 
HETATM   19  C   UNL     1       4.461  28.782  49.727  1.00  0.00     0.235 C 
HETATM   20  C   UNL     1       4.223  27.111  53.191  1.00  0.00     0.063 C 
HETATM   21  C   UNL     1       4.696  27.906  48.494  1.00  0.00     0.030 C 
ENDBRANCH  10  12
ENDBRANCH   1  10
BRANCH   1  22
HETATM   22  C   UNL     1       7.562  24.204  54.571  1.00  0.00    -0.018 A 
HETATM   23  C   UNL     1       7.681  23.438  53.404  1.00  0.00     0.029 A 
HETATM   24  C   UNL     1       8.555  22.362  53.395  1.00  0.00     0.116 A 
HETATM   25  N   UNL     1       9.306  22.000  54.456  1.00  0.00    -0.273 NA
HETATM   26  C   UNL     1       9.162  22.728  55.582  1.00  0.00     0.116 A 
HETATM   27  C   UNL     1       8.320  23.823  55.687  1.00  0.00     0.029 A 
ENDBRANCH   1  22
TORSDOF 4
ENDMDL
MODEL 8
REMARK VINA RESULT:      -8.2      2.441      5.384
REMARK  4 active torsions:
REMARK  status: ('A' for Active; 'I' for Inactive)
REMARK    1  A    between atoms: C_5  and  C_6 
REMARK    2  A    between atoms: C_6  and  N_7 
REMARK    3  A    between atoms: C_6  and  C_18 
REMARK    4  A    between atoms: N_7  and  C_8 
ROOT
HETATM    1  C   UNL     1       7.508  26.846  53.922  1.00  0.00     0.290 C 
ENDROOT
BRANCH   1   2
HETATM    2  C   UNL     1       7.547  25.332  53.962  1.00  0.00     0.021 A 
HETATM    3  C   UNL     1       7.192  24.596  55.105  1.00  0.00     0.055 A 
HETATM    4  C   UNL     1       7.266  23.205  55.092  1.00  0.00     0.117 A 
HETATM    5  C   UNL     1       7.700  22.518  53.963  1.00  0.00     0.045 A 
HETATM    6  F   UNL     1       6.907  22.520  56.184  1.00  0.00    -0.206 F 
HETATM    7  C   UNL     1       8.066  23.233  52.825  1.00  0.00     0.046 A 
HETATM    8  C   UNL     1       7.988  24.625  52.834  1.00  0.00     0.125 A 
HETATM    9  F   UNL     1       8.335  25.296  51.726  1.00  0.00    -0.205 F 
ENDBRANCH   1   2
BRANCH   1  10
HETATM   10  N   UNL     1       6.508  27.409  52.980  1.00  0.00     0.101 N 
HETATM   11  H   UNL     1       6.993  27.597  52.106  1.00  0.00     0.317 HD
BRANCH  10  12
HETATM   12  C   UNL     1       5.278  26.627  52.806  1.00  0.00     0.225 C 
HETATM   13  C   UNL     1       5.115  25.951  51.428  1.00  0.00     0.069 C 
HETATM   14  C   UNL     1       4.849  26.972  50.339  1.00  0.00     0.190 C 
HETATM   15  N   UNL     1       3.609  27.747  50.699  1.00  0.00    -0.067 N 
HETATM   16  C   UNL     1       4.472  26.439  48.971  1.00  0.00     0.035 C 
HETATM   17  H   UNL     1       2.843  27.075  50.855  1.00  0.00     0.280 HD
HETATM   18  C   UNL     1       3.768  28.536  51.961  1.00  0.00     0.237 C 
HETATM   19  C   UNL     1       3.244  28.507  49.451  1.00  0.00     0.235 C 
HETATM   20  C   UNL     1       4.074  27.556  53.092  1.00  0.00     0.063 C 
HETATM   21  C   UNL     1       3.782  27.635  48.314  1.00  0.00     0.030 C 
ENDBRANCH  10  12
ENDBRANCH   1  10
BRANCH   1  22
HETATM   22  C   UNL     1       7.298  27.442  55.310  1.00  0.00    -0.018 A 
HETATM   23  C   UNL     1       8.395  27.895  56.054  1.00  0.00     0.029 A 
HETATM   24  C   UNL     1       8.174  28.441  57.309  1.00  0.00     0.116 A 
HETATM   25  N   UNL     1       6.953  28.560  57.868  1.00  0.00    -0.273 NA
HETATM   26  C   UNL     1       5.908  28.095  57.154  1.00  0.00     0.116 A 
HETATM   27  C   UNL     1       6.026  27.539  55.890  1.00  0.00     0.029 A 
ENDBRANCH   1  22
TORSDOF 4
ENDMDL
MODEL 9
REMARK VINA RESULT:      -8.2      2.421      4.708
REMARK  4 active torsions:
REMARK  status: ('A' for Active; 'I' for Inactive)
REMARK    1  A    between atoms: C_5  and  C_6 
REMARK    2  A    between atoms: C_6  and  N_7 
REMARK    3  A    between atoms: C_6  and  C_18 
REMARK    4  A    between atoms: N_7  and  C_8 
ROOT
HETATM    1  C   UNL     1       7.846  25.562  54.683  1.00  0.00     0.290 C 
ENDROOT
BRANCH   1   2
HETATM    2  C   UNL     1       6.745  25.485  53.645  1.00  0.00     0.021 A 
HETATM    3  C   UNL     1       6.948  25.828  52.298  1.00  0.00     0.055 A 
HETATM    4  C   UNL     1       5.893  25.757  51.392  1.00  0.00     0.117 A 
HETATM    5  C   UNL     1       4.622  25.361  51.795  1.00  0.00     0.045 A 
HETATM    6  F   UNL     1       6.110  26.071  50.108  1.00  0.00    -0.206 F 
HETATM    7  C   UNL     1       4.401  25.028  53.129  1.00  0.00     0.046 A 
HETATM    8  C   UNL     1       5.456  25.093  54.038  1.00  0.00     0.125 A 
HETATM    9  F   UNL     1       5.227  24.759  55.316  1.00  0.00    -0.205 F 
ENDBRANCH   1   2
BRANCH   1  10
HETATM   10  N   UNL     1       7.597  26.542  55.769  1.00  0.00     0.101 N 
HETATM   11  H   UNL     1       8.329  26.412  56.463  1.00  0.00     0.317 HD
BRANCH  10  12
HETATM   12  C   UNL     1       7.435  27.940  55.349  1.00  0.00     0.225 C 
HETATM   13  C   UNL     1       8.661  28.847  55.591  1.00  0.00     0.069 C 
HETATM   14  C   UNL     1       8.869  29.114  57.070  1.00  0.00     0.190 C 
HETATM   15  N   UNL     1       7.621  29.749  57.624  1.00  0.00    -0.067 N 
HETATM   16  C   UNL     1       9.912  30.147  57.444  1.00  0.00     0.035 C 
HETATM   17  H   UNL     1       7.408  30.587  57.061  1.00  0.00     0.280 HD
HETATM   18  C   UNL     1       6.428  28.848  57.540  1.00  0.00     0.237 C 
HETATM   19  C   UNL     1       8.009  30.256  58.988  1.00  0.00     0.235 C 
HETATM   20  C   UNL     1       6.193  28.517  56.068  1.00  0.00     0.063 C 
HETATM   21  C   UNL     1       9.507  30.547  58.863  1.00  0.00     0.030 C 
ENDBRANCH  10  12
ENDBRANCH   1  10
BRANCH   1  22
HETATM   22  C   UNL     1       8.149  24.194  55.285  1.00  0.00    -0.018 A 
HETATM   23  C   UNL     1       8.123  24.015  56.674  1.00  0.00     0.029 A 
HETATM   24  C   UNL     1       8.393  22.758  57.193  1.00  0.00     0.116 A 
HETATM   25  N   UNL     1       8.687  21.683  56.434  1.00  0.00    -0.273 NA
HETATM   26  C   UNL     1       8.737  21.874  55.100  1.00  0.00     0.116 A 
HETATM   27  C   UNL     1       8.478  23.089  54.487  1.00  0.00     0.029 A 
ENDBRANCH   1  22
TORSDOF 4
ENDMDL
MODEL 10
REMARK VINA RESULT:      -8.2      2.828      4.389
REMARK  4 active torsions:
REMARK  status: ('A' for Active; 'I' for Inactive)
REMARK    1  A    between atoms: C_5  and  C_6 
REMARK    2  A    between atoms: C_6  and  N_7 
REMARK    3  A    between atoms: C_6  and  C_18 
REMARK    4  A    between atoms: N_7  and  C_8 
ROOT
HETATM    1  C   UNL     1       6.212  27.577  55.496  1.00  0.00     0.290 C 
ENDROOT
BRANCH   1   2
HETATM    2  C   UNL     1       6.703  26.324  54.798  1.00  0.00     0.021 A 
HETATM    3  C   UNL     1       7.474  26.364  53.624  1.00  0.00     0.055 A 
HETATM    4  C   UNL     1       7.880  25.180  53.014  1.00  0.00     0.117 A 
HETATM    5  C   UNL     1       7.527  23.941  53.539  1.00  0.00     0.045 A 
HETATM    6  F   UNL     1       8.629  25.238  51.906  1.00  0.00    -0.206 F 
HETATM    7  C   UNL     1       6.755  23.884  54.696  1.00  0.00     0.046 A 
HETATM    8  C   UNL     1       6.350  25.068  55.312  1.00  0.00     0.125 A 
HETATM    9  F   UNL     1       5.615  24.993  56.431  1.00  0.00    -0.205 F 
ENDBRANCH   1   2
BRANCH   1  10
HETATM   10  N   UNL     1       7.290  28.509  55.912  1.00  0.00     0.101 N 
HETATM   11  H   UNL     1       6.852  29.408  56.097  1.00  0.00     0.317 HD
BRANCH  10  12
HETATM   12  C   UNL     1       8.154  28.046  57.005  1.00  0.00     0.225 C 
HETATM   13  C   UNL     1       7.829  28.632  58.396  1.00  0.00     0.069 C 
HETATM   14  C   UNL     1       8.192  30.102  58.475  1.00  0.00     0.190 C 
HETATM   15  N   UNL     1       9.658  30.253  58.163  1.00  0.00    -0.067 N 
HETATM   16  C   UNL     1       8.114  30.760  59.838  1.00  0.00     0.035 C 
HETATM   17  H   UNL     1      10.188  29.645  58.806  1.00  0.00     0.280 HD
HETATM   18  C   UNL     1       9.999  29.828  56.770  1.00  0.00     0.237 C 
HETATM   19  C   UNL     1      10.000  31.666  58.558  1.00  0.00     0.235 C 
HETATM   20  C   UNL     1       9.621  28.356  56.622  1.00  0.00     0.063 C 
HETATM   21  C   UNL     1       9.008  31.990  59.678  1.00  0.00     0.030 C 
ENDBRANCH  10  12
ENDBRANCH   1  10
BRANCH   1  22
HETATM   22  C   UNL     1       5.183  28.324  54.654  1.00  0.00    -0.018 A 
HETATM   23  C   UNL     1       5.002  29.703  54.824  1.00  0.00     0.029 A 
HETATM   24  C   UNL     1       4.066  30.358  54.039  1.00  0.00     0.116 A 
HETATM   25  N   UNL     1       3.307  29.742  53.111  1.00  0.00    -0.273 NA
HETATM   26  C   UNL     1       3.471  28.410  52.975  1.00  0.00     0.116 A 
HETATM   27  C   UNL     1       4.382  27.669  53.708  1.00  0.00     0.029 A 
ENDBRANCH   1  22
TORSDOF 4
ENDMDL
