MODEL 1
REMARK VINA RESULT:     -10.1      0.000      0.000
REMARK  7 active torsions:
REMARK  status: ('A' for Active; 'I' for Inactive)
REMARK    1  A    between atoms: O_2  and  C_3 
REMARK    2  A    between atoms: C_5  and  C_6 
REMARK       I    between atoms: C_6  and  N_7 
REMARK    3  A    between atoms: N_7  and  C_8 
REMARK    4  A    between atoms: C_10  and  C_11 
REMARK    5  A    between atoms: C_11  and  C_12 
REMARK    6  A    between atoms: C_12  and  C_13 
REMARK    7  A    between atoms: C_13  and  C_14 
ROOT
HETATM    1  C   UNL     1       8.147  29.883  58.921  1.00  0.00     0.725 A 
HETATM    2  N   UNL     1       7.571  28.814  58.429  1.00  0.00    -0.046 NA
HETATM    3  C   UNL     1       8.446  28.409  57.448  1.00  0.00     0.165 A 
HETATM    4  N   UNL     1       9.534  29.178  57.310  1.00  0.00    -0.144 NA
HETATM    5  N   UNL     1       9.322  30.107  58.257  1.00  0.00    -0.106 N 
HETATM    6  H   UNL     1       9.994  30.850  58.428  1.00  0.00     0.208 HD
ENDROOT
BRANCH   3   7
HETATM    7  C   UNL     1       8.254  27.168  56.651  1.00  0.00     0.083 C 
BRANCH   7   8
HETATM    8  C   UNL     1       7.983  25.925  57.497  1.00  0.00     0.012 C 
BRANCH   8   9
HETATM    9  C   UNL     1       6.630  25.313  57.129  1.00  0.00     0.041 C 
BRANCH   9  10
HETATM   10  C   UNL     1       6.594  24.783  55.731  1.00  0.00    -0.030 A 
HETATM   11  C   UNL     1       7.440  23.771  55.173  1.00  0.00    -0.002 A 
HETATM   12  C   UNL     1       7.076  23.608  53.837  1.00  0.00     0.042 A 
HETATM   13  C   UNL     1       8.489  22.979  55.684  1.00  0.00     0.014 A 
HETATM   14  C   UNL     1       7.710  22.698  52.983  1.00  0.00     0.030 A 
HETATM   15  N   UNL     1       6.044  24.482  53.591  1.00  0.00    -0.365 N 
HETATM   16  C   UNL     1       8.748  21.926  53.514  1.00  0.00     0.002 A 
HETATM   17  C   UNL     1       9.133  22.061  54.845  1.00  0.00     0.001 A 
HETATM   18  H   UNL     1       5.579  24.584  52.700  1.00  0.00     0.165 HD
HETATM   19  C   UNL     1       5.744  25.193  54.722  1.00  0.00     0.096 A 
ENDBRANCH   9  10
ENDBRANCH   8   9
ENDBRANCH   7   8
ENDBRANCH   3   7
BRANCH   1  20
HETATM   20  N   UNL     1       7.663  30.651  59.949  1.00  0.00    -0.152 N 
HETATM   21  C   UNL     1       8.339  30.758  61.144  1.00  0.00     0.270 C 
HETATM   22  O   UNL     1       9.402  30.197  61.396  1.00  0.00    -0.267 OA
HETATM   23  H   UNL     1       6.745  31.048  59.805  1.00  0.00     0.187 HD
BRANCH  21  24
HETATM   24  C   UNL     1       7.678  31.589  62.181  1.00  0.00     0.035 A 
HETATM   25  C   UNL     1       6.279  31.618  62.218  1.00  0.00     0.053 A 
HETATM   26  C   UNL     1       5.612  32.385  63.176  1.00  0.00     0.069 A 
HETATM   27  C   UNL     1       6.353  33.116  64.106  1.00  0.00     0.037 A 
HETATM   28  C   UNL     1       7.752  33.076  64.082  1.00  0.00     0.004 A 
HETATM   29  C   UNL     1       8.418  32.314  63.121  1.00  0.00     0.017 A 
BRANCH  26  30
HETATM   30  O   UNL     1       4.248  32.339  63.092  1.00  0.00    -0.356 OA
HETATM   31  C   UNL     1       3.650  32.940  61.950  1.00  0.00     0.210 C 
ENDBRANCH  26  30
ENDBRANCH  21  24
ENDBRANCH   1  20
TORSDOF 7
ENDMDL
MODEL 2
REMARK VINA RESULT:     -10.0      1.361      1.446
REMARK  7 active torsions:
REMARK  status: ('A' for Active; 'I' for Inactive)
REMARK    1  A    between atoms: O_2  and  C_3 
REMARK    2  A    between atoms: C_5  and  C_6 
REMARK       I    between atoms: C_6  and  N_7 
REMARK    3  A    between atoms: N_7  and  C_8 
REMARK    4  A    between atoms: C_10  and  C_11 
REMARK    5  A    between atoms: C_11  and  C_12 
REMARK    6  A    between atoms: C_12  and  C_13 
REMARK    7  A    between atoms: C_13  and  C_14 
ROOT
HETATM    1  C   UNL     1       8.220  29.750  58.724  1.00  0.00     0.725 A 
HETATM    2  N   UNL     1       7.477  28.887  58.076  1.00  0.00    -0.046 NA
HETATM    3  C   UNL     1       8.295  28.477  57.049  1.00  0.00     0.165 A 
HETATM    4  N   UNL     1       9.507  29.047  57.030  1.00  0.00    -0.144 NA
HETATM    5  N   UNL     1       9.436  29.852  58.105  1.00  0.00    -0.106 N 
HETATM    6  H   UNL     1      10.225  30.428  58.386  1.00  0.00     0.208 HD
ENDROOT
BRANCH   3   7
HETATM    7  C   UNL     1       7.909  27.420  56.076  1.00  0.00     0.083 C 
BRANCH   7   8
HETATM    8  C   UNL     1       7.930  26.007  56.656  1.00  0.00     0.012 C 
BRANCH   8   9
HETATM    9  C   UNL     1       6.778  25.178  56.087  1.00  0.00     0.041 C 
BRANCH   9  10
HETATM   10  C   UNL     1       7.167  24.398  54.873  1.00  0.00    -0.030 A 
HETATM   11  C   UNL     1       7.495  23.006  54.815  1.00  0.00    -0.002 A 
HETATM   12  C   UNL     1       7.821  22.705  53.492  1.00  0.00     0.042 A 
HETATM   13  C   UNL     1       7.549  21.970  55.770  1.00  0.00     0.014 A 
HETATM   14  C   UNL     1       8.202  21.424  53.076  1.00  0.00     0.030 A 
HETATM   15  N   UNL     1       7.689  23.868  52.771  1.00  0.00    -0.365 N 
HETATM   16  C   UNL     1       8.250  20.416  54.044  1.00  0.00     0.002 A 
HETATM   17  C   UNL     1       7.926  20.681  55.372  1.00  0.00     0.001 A 
HETATM   18  H   UNL     1       7.864  23.950  51.780  1.00  0.00     0.165 HD
HETATM   19  C   UNL     1       7.296  24.893  53.589  1.00  0.00     0.096 A 
ENDBRANCH   9  10
ENDBRANCH   8   9
ENDBRANCH   7   8
ENDBRANCH   3   7
BRANCH   1  20
HETATM   20  N   UNL     1       7.850  30.436  59.852  1.00  0.00    -0.152 N 
HETATM   21  C   UNL     1       8.228  31.745  60.051  1.00  0.00     0.270 C 
HETATM   22  O   UNL     1       8.907  32.402  59.266  1.00  0.00    -0.267 OA
HETATM   23  H   UNL     1       7.372  29.894  60.558  1.00  0.00     0.187 HD
BRANCH  21  24
HETATM   24  C   UNL     1       7.792  32.349  61.335  1.00  0.00     0.035 A 
HETATM   25  C   UNL     1       6.626  33.125  61.343  1.00  0.00     0.053 A 
HETATM   26  C   UNL     1       6.175  33.714  62.527  1.00  0.00     0.069 A 
HETATM   27  C   UNL     1       6.891  33.512  63.707  1.00  0.00     0.037 A 
HETATM   28  C   UNL     1       8.047  32.723  63.707  1.00  0.00     0.004 A 
HETATM   29  C   UNL     1       8.500  32.140  62.522  1.00  0.00     0.017 A 
BRANCH  26  30
HETATM   30  O   UNL     1       5.036  34.459  62.393  1.00  0.00    -0.356 OA
HETATM   31  C   UNL     1       4.624  35.218  63.522  1.00  0.00     0.210 C 
ENDBRANCH  26  30
ENDBRANCH  21  24
ENDBRANCH   1  20
TORSDOF 7
ENDMDL
MODEL 3
REMARK VINA RESULT:      -9.4      5.714      9.219
REMARK  7 active torsions:
REMARK  status: ('A' for Active; 'I' for Inactive)
REMARK    1  A    between atoms: O_2  and  C_3 
REMARK    2  A    between atoms: C_5  and  C_6 
REMARK       I    between atoms: C_6  and  N_7 
REMARK    3  A    between atoms: N_7  and  C_8 
REMARK    4  A    between atoms: C_10  and  C_11 
REMARK    5  A    between atoms: C_11  and  C_12 
REMARK    6  A    between atoms: C_12  and  C_13 
REMARK    7  A    between atoms: C_13  and  C_14 
ROOT
HETATM    1  C   UNL     1       5.624  27.757  54.056  1.00  0.00     0.725 A 
HETATM    2  N   UNL     1       6.744  27.597  54.716  1.00  0.00    -0.046 NA
HETATM    3  C   UNL     1       6.320  27.338  55.998  1.00  0.00     0.165 A 
HETATM    4  N   UNL     1       4.990  27.333  56.162  1.00  0.00    -0.144 NA
HETATM    5  N   UNL     1       4.569  27.600  54.914  1.00  0.00    -0.106 N 
HETATM    6  H   UNL     1       3.579  27.649  54.689  1.00  0.00     0.208 HD
ENDROOT
BRANCH   3   7
HETATM    7  C   UNL     1       7.250  27.005  57.110  1.00  0.00     0.083 C 
BRANCH   7   8
HETATM    8  C   UNL     1       7.983  25.678  56.927  1.00  0.00     0.012 C 
BRANCH   8   9
HETATM    9  C   UNL     1       6.983  24.528  56.799  1.00  0.00     0.041 C 
BRANCH   9  10
HETATM   10  C   UNL     1       7.181  23.722  55.555  1.00  0.00    -0.030 A 
HETATM   11  C   UNL     1       7.758  22.415  55.461  1.00  0.00    -0.002 A 
HETATM   12  C   UNL     1       7.770  22.056  54.113  1.00  0.00     0.042 A 
HETATM   13  C   UNL     1       8.277  21.501  56.402  1.00  0.00     0.014 A 
HETATM   14  C   UNL     1       8.278  20.834  53.656  1.00  0.00     0.030 A 
HETATM   15  N   UNL     1       7.215  23.102  53.413  1.00  0.00    -0.365 N 
HETATM   16  C   UNL     1       8.788  19.948  54.610  1.00  0.00     0.002 A 
HETATM   17  C   UNL     1       8.788  20.273  55.964  1.00  0.00     0.001 A 
HETATM   18  H   UNL     1       7.096  23.120  52.411  1.00  0.00     0.165 HD
HETATM   19  C   UNL     1       6.857  24.109  54.268  1.00  0.00     0.096 A 
ENDBRANCH   9  10
ENDBRANCH   8   9
ENDBRANCH   7   8
ENDBRANCH   3   7
BRANCH   1  20
HETATM   20  N   UNL     1       5.516  28.024  52.715  1.00  0.00    -0.152 N 
HETATM   21  C   UNL     1       5.121  27.054  51.821  1.00  0.00     0.270 C 
HETATM   22  O   UNL     1       4.836  25.899  52.125  1.00  0.00    -0.267 OA
HETATM   23  H   UNL     1       5.833  28.937  52.423  1.00  0.00     0.187 HD
BRANCH  21  24
HETATM   24  C   UNL     1       5.088  27.472  50.396  1.00  0.00     0.035 A 
HETATM   25  C   UNL     1       4.680  26.536  49.439  1.00  0.00     0.053 A 
HETATM   26  C   UNL     1       4.632  26.883  48.086  1.00  0.00     0.069 A 
HETATM   27  C   UNL     1       4.984  28.175  47.697  1.00  0.00     0.037 A 
HETATM   28  C   UNL     1       5.377  29.118  48.654  1.00  0.00     0.004 A 
HETATM   29  C   UNL     1       5.430  28.770  50.005  1.00  0.00     0.017 A 
BRANCH  26  30
HETATM   30  O   UNL     1       4.233  25.873  47.254  1.00  0.00    -0.356 OA
HETATM   31  C   UNL     1       2.870  25.477  47.324  1.00  0.00     0.210 C 
ENDBRANCH  26  30
ENDBRANCH  21  24
ENDBRANCH   1  20
TORSDOF 7
ENDMDL
MODEL 4
REMARK VINA RESULT:      -9.4      2.014      2.851
REMARK  7 active torsions:
REMARK  status: ('A' for Active; 'I' for Inactive)
REMARK    1  A    between atoms: O_2  and  C_3 
REMARK    2  A    between atoms: C_5  and  C_6 
REMARK       I    between atoms: C_6  and  N_7 
REMARK    3  A    between atoms: N_7  and  C_8 
REMARK    4  A    between atoms: C_10  and  C_11 
REMARK    5  A    between atoms: C_11  and  C_12 
REMARK    6  A    between atoms: C_12  and  C_13 
REMARK    7  A    between atoms: C_13  and  C_14 
ROOT
HETATM    1  C   UNL     1       6.278  29.403  57.111  1.00  0.00     0.725 A 
HETATM    2  N   UNL     1       5.795  28.188  57.027  1.00  0.00    -0.046 NA
HETATM    3  C   UNL     1       5.661  27.996  55.672  1.00  0.00     0.165 A 
HETATM    4  N   UNL     1       6.036  29.036  54.915  1.00  0.00    -0.144 NA
HETATM    5  N   UNL     1       6.425  29.918  55.851  1.00  0.00    -0.106 N 
HETATM    6  H   UNL     1       6.792  30.831  55.597  1.00  0.00     0.208 HD
ENDROOT
BRANCH   3   7
HETATM    7  C   UNL     1       5.216  26.709  55.074  1.00  0.00     0.083 C 
BRANCH   7   8
HETATM    8  C   UNL     1       5.834  25.475  55.729  1.00  0.00     0.012 C 
BRANCH   8   9
HETATM    9  C   UNL     1       7.068  25.018  54.950  1.00  0.00     0.041 C 
BRANCH   9  10
HETATM   10  C   UNL     1       7.652  23.748  55.480  1.00  0.00    -0.030 A 
HETATM   11  C   UNL     1       7.943  22.560  54.736  1.00  0.00    -0.002 A 
HETATM   12  C   UNL     1       8.451  21.618  55.630  1.00  0.00     0.042 A 
HETATM   13  C   UNL     1       7.816  22.196  53.379  1.00  0.00     0.014 A 
HETATM   14  C   UNL     1       8.835  20.330  55.239  1.00  0.00     0.030 A 
HETATM   15  N   UNL     1       8.476  22.212  56.870  1.00  0.00    -0.365 N 
HETATM   16  C   UNL     1       8.697  19.994  53.889  1.00  0.00     0.002 A 
HETATM   17  C   UNL     1       8.197  20.913  52.969  1.00  0.00     0.001 A 
HETATM   18  H   UNL     1       8.797  21.760  57.714  1.00  0.00     0.165 HD
HETATM   19  C   UNL     1       7.999  23.492  56.793  1.00  0.00     0.096 A 
ENDBRANCH   9  10
ENDBRANCH   8   9
ENDBRANCH   7   8
ENDBRANCH   3   7
BRANCH   1  20
HETATM   20  N   UNL     1       6.601  30.058  58.272  1.00  0.00    -0.152 N 
HETATM   21  C   UNL     1       7.910  30.187  58.682  1.00  0.00     0.270 C 
HETATM   22  O   UNL     1       8.879  29.746  58.069  1.00  0.00    -0.267 OA
HETATM   23  H   UNL     1       5.820  30.348  58.843  1.00  0.00     0.187 HD
BRANCH  21  24
HETATM   24  C   UNL     1       8.109  30.882  59.978  1.00  0.00     0.035 A 
HETATM   25  C   UNL     1       7.086  31.712  60.451  1.00  0.00     0.053 A 
HETATM   26  C   UNL     1       7.227  32.387  61.666  1.00  0.00     0.069 A 
HETATM   27  C   UNL     1       8.394  32.218  62.412  1.00  0.00     0.037 A 
HETATM   28  C   UNL     1       9.411  31.376  61.950  1.00  0.00     0.004 A 
HETATM   29  C   UNL     1       9.272  30.706  60.734  1.00  0.00     0.017 A 
BRANCH  26  30
HETATM   30  O   UNL     1       6.163  33.178  62.004  1.00  0.00    -0.356 OA
HETATM   31  C   UNL     1       5.036  32.534  62.583  1.00  0.00     0.210 C 
ENDBRANCH  26  30
ENDBRANCH  21  24
ENDBRANCH   1  20
TORSDOF 7
ENDMDL
MODEL 5
REMARK VINA RESULT:      -9.2      2.894     10.877
REMARK  7 active torsions:
REMARK  status: ('A' for Active; 'I' for Inactive)
REMARK    1  A    between atoms: O_2  and  C_3 
REMARK    2  A    between atoms: C_5  and  C_6 
REMARK       I    between atoms: C_6  and  N_7 
REMARK    3  A    between atoms: N_7  and  C_8 
REMARK    4  A    between atoms: C_10  and  C_11 
REMARK    5  A    between atoms: C_11  and  C_12 
REMARK    6  A    between atoms: C_12  and  C_13 
REMARK    7  A    between atoms: C_13  and  C_14 
ROOT
HETATM    1  C   UNL     1       8.394  30.103  58.837  1.00  0.00     0.725 A 
HETATM    2  N   UNL     1       8.385  30.292  60.133  1.00  0.00    -0.046 NA
HETATM    3  C   UNL     1       8.975  31.526  60.275  1.00  0.00     0.165 A 
HETATM    4  N   UNL     1       9.350  32.107  59.128  1.00  0.00    -0.144 NA
HETATM    5  N   UNL     1       8.970  31.185  58.228  1.00  0.00    -0.106 N 
HETATM    6  H   UNL     1       9.101  31.334  57.231  1.00  0.00     0.208 HD
ENDROOT
BRANCH   3   7
HETATM    7  C   UNL     1       9.116  32.213  61.587  1.00  0.00     0.083 C 
BRANCH   7   8
HETATM    8  C   UNL     1       7.805  32.772  62.137  1.00  0.00     0.012 C 
BRANCH   8   9
HETATM    9  C   UNL     1       7.817  32.756  63.666  1.00  0.00     0.041 C 
BRANCH   9  10
HETATM   10  C   UNL     1       6.483  33.078  64.261  1.00  0.00    -0.030 A 
HETATM   11  C   UNL     1       6.232  33.647  65.551  1.00  0.00    -0.002 A 
HETATM   12  C   UNL     1       4.850  33.752  65.702  1.00  0.00     0.042 A 
HETATM   13  C   UNL     1       7.057  34.079  66.610  1.00  0.00     0.014 A 
HETATM   14  C   UNL     1       4.249  34.263  66.859  1.00  0.00     0.030 A 
HETATM   15  N   UNL     1       4.281  33.273  64.546  1.00  0.00    -0.365 N 
HETATM   16  C   UNL     1       5.090  34.682  67.894  1.00  0.00     0.002 A 
HETATM   17  C   UNL     1       6.475  34.595  67.774  1.00  0.00     0.001 A 
HETATM   18  H   UNL     1       3.287  33.226  64.375  1.00  0.00     0.165 HD
HETATM   19  C   UNL     1       5.251  32.865  63.672  1.00  0.00     0.096 A 
ENDBRANCH   9  10
ENDBRANCH   8   9
ENDBRANCH   7   8
ENDBRANCH   3   7
BRANCH   1  20
HETATM   20  N   UNL     1       7.895  29.005  58.184  1.00  0.00    -0.152 N 
HETATM   21  C   UNL     1       8.670  28.278  57.308  1.00  0.00     0.270 C 
HETATM   22  O   UNL     1       9.840  28.533  57.036  1.00  0.00    -0.267 OA
HETATM   23  H   UNL     1       6.909  28.827  58.316  1.00  0.00     0.187 HD
BRANCH  21  24
HETATM   24  C   UNL     1       7.988  27.140  56.643  1.00  0.00     0.035 A 
HETATM   25  C   UNL     1       7.145  27.412  55.558  1.00  0.00     0.053 A 
HETATM   26  C   UNL     1       6.482  26.374  54.899  1.00  0.00     0.069 A 
HETATM   27  C   UNL     1       6.675  25.059  55.324  1.00  0.00     0.037 A 
HETATM   28  C   UNL     1       7.529  24.782  56.398  1.00  0.00     0.004 A 
HETATM   29  C   UNL     1       8.187  25.820  57.059  1.00  0.00     0.017 A 
BRANCH  26  30
HETATM   30  O   UNL     1       5.677  26.777  53.870  1.00  0.00    -0.356 OA
HETATM   31  C   UNL     1       4.653  27.714  54.177  1.00  0.00     0.210 C 
ENDBRANCH  26  30
ENDBRANCH  21  24
ENDBRANCH   1  20
TORSDOF 7
ENDMDL
MODEL 6
REMARK VINA RESULT:      -9.1      3.243     10.081
REMARK  7 active torsions:
REMARK  status: ('A' for Active; 'I' for Inactive)
REMARK    1  A    between atoms: O_2  and  C_3 
REMARK    2  A    between atoms: C_5  and  C_6 
REMARK       I    between atoms: C_6  and  N_7 
REMARK    3  A    between atoms: N_7  and  C_8 
REMARK    4  A    between atoms: C_10  and  C_11 
REMARK    5  A    between atoms: C_11  and  C_12 
REMARK    6  A    between atoms: C_12  and  C_13 
REMARK    7  A    between atoms: C_13  and  C_14 
ROOT
HETATM    1  C   UNL     1       6.841  27.603  56.381  1.00  0.00     0.725 A 
HETATM    2  N   UNL     1       5.778  28.368  56.416  1.00  0.00    -0.046 NA
HETATM    3  C   UNL     1       6.069  29.264  57.417  1.00  0.00     0.165 A 
HETATM    4  N   UNL     1       7.260  29.088  58.004  1.00  0.00    -0.144 NA
HETATM    5  N   UNL     1       7.733  28.027  57.328  1.00  0.00    -0.106 N 
HETATM    6  H   UNL     1       8.652  27.642  57.525  1.00  0.00     0.208 HD
ENDROOT
BRANCH   3   7
HETATM    7  C   UNL     1       5.177  30.399  57.776  1.00  0.00     0.083 C 
BRANCH   7   8
HETATM    8  C   UNL     1       5.790  31.774  57.517  1.00  0.00     0.012 C 
BRANCH   8   9
HETATM    9  C   UNL     1       5.340  32.770  58.587  1.00  0.00     0.041 C 
BRANCH   9  10
HETATM   10  C   UNL     1       5.805  32.398  59.959  1.00  0.00    -0.030 A 
HETATM   11  C   UNL     1       7.156  32.184  60.379  1.00  0.00    -0.002 A 
HETATM   12  C   UNL     1       7.126  31.831  61.728  1.00  0.00     0.042 A 
HETATM   13  C   UNL     1       8.408  32.252  59.733  1.00  0.00     0.014 A 
HETATM   14  C   UNL     1       8.281  31.540  62.464  1.00  0.00     0.030 A 
HETATM   15  N   UNL     1       5.807  31.838  62.117  1.00  0.00    -0.365 N 
HETATM   16  C   UNL     1       9.508  31.614  61.798  1.00  0.00     0.002 A 
HETATM   17  C   UNL     1       9.574  31.966  60.452  1.00  0.00     0.001 A 
HETATM   18  H   UNL     1       5.484  31.619  63.048  1.00  0.00     0.165 HD
HETATM   19  C   UNL     1       5.003  32.178  61.063  1.00  0.00     0.096 A 
ENDBRANCH   9  10
ENDBRANCH   8   9
ENDBRANCH   7   8
ENDBRANCH   3   7
BRANCH   1  20
HETATM   20  N   UNL     1       7.042  26.551  55.524  1.00  0.00    -0.152 N 
HETATM   21  C   UNL     1       7.276  25.278  55.995  1.00  0.00     0.270 C 
HETATM   22  O   UNL     1       7.325  24.972  57.183  1.00  0.00    -0.267 OA
HETATM   23  H   UNL     1       7.101  26.789  54.544  1.00  0.00     0.187 HD
BRANCH  21  24
HETATM   24  C   UNL     1       7.517  24.246  54.955  1.00  0.00     0.035 A 
HETATM   25  C   UNL     1       7.554  22.903  55.349  1.00  0.00     0.053 A 
HETATM   26  C   UNL     1       7.777  21.895  54.407  1.00  0.00     0.069 A 
HETATM   27  C   UNL     1       7.952  22.238  53.066  1.00  0.00     0.037 A 
HETATM   28  C   UNL     1       7.899  23.578  52.667  1.00  0.00     0.004 A 
HETATM   29  C   UNL     1       7.681  24.585  53.609  1.00  0.00     0.017 A 
BRANCH  26  30
HETATM   30  O   UNL     1       7.806  20.630  54.925  1.00  0.00    -0.356 OA
HETATM   31  C   UNL     1       7.887  20.511  56.340  1.00  0.00     0.210 C 
ENDBRANCH  26  30
ENDBRANCH  21  24
ENDBRANCH   1  20
TORSDOF 7
ENDMDL
MODEL 7
REMARK VINA RESULT:      -9.0      7.176     10.310
REMARK  7 active torsions:
REMARK  status: ('A' for Active; 'I' for Inactive)
REMARK    1  A    between atoms: O_2  and  C_3 
REMARK    2  A    between atoms: C_5  and  C_6 
REMARK       I    between atoms: C_6  and  N_7 
REMARK    3  A    between atoms: N_7  and  C_8 
REMARK    4  A    between atoms: C_10  and  C_11 
REMARK    5  A    between atoms: C_11  and  C_12 
REMARK    6  A    between atoms: C_12  and  C_13 
REMARK    7  A    between atoms: C_13  and  C_14 
ROOT
HETATM    1  C   UNL     1       5.070  34.758  66.045  1.00  0.00     0.725 A 
HETATM    2  N   UNL     1       4.813  35.724  65.198  1.00  0.00    -0.046 NA
HETATM    3  C   UNL     1       3.891  35.160  64.348  1.00  0.00     0.165 A 
HETATM    4  N   UNL     1       3.568  33.890  64.628  1.00  0.00    -0.144 NA
HETATM    5  N   UNL     1       4.329  33.657  65.711  1.00  0.00    -0.106 N 
HETATM    6  H   UNL     1       4.303  32.762  66.192  1.00  0.00     0.208 HD
ENDROOT
BRANCH   3   7
HETATM    7  C   UNL     1       3.231  35.914  63.249  1.00  0.00     0.083 C 
BRANCH   7   8
HETATM    8  C   UNL     1       3.194  35.164  61.919  1.00  0.00     0.012 C 
BRANCH   8   9
HETATM    9  C   UNL     1       4.540  35.279  61.203  1.00  0.00     0.041 C 
BRANCH   9  10
HETATM   10  C   UNL     1       5.208  33.956  61.005  1.00  0.00    -0.030 A 
HETATM   11  C   UNL     1       6.213  33.368  61.838  1.00  0.00    -0.002 A 
HETATM   12  C   UNL     1       6.569  32.146  61.268  1.00  0.00     0.042 A 
HETATM   13  C   UNL     1       6.858  33.766  63.027  1.00  0.00     0.014 A 
HETATM   14  C   UNL     1       7.539  31.303  61.823  1.00  0.00     0.030 A 
HETATM   15  N   UNL     1       5.805  31.992  60.135  1.00  0.00    -0.365 N 
HETATM   16  C   UNL     1       8.165  31.723  63.000  1.00  0.00     0.002 A 
HETATM   17  C   UNL     1       7.830  32.935  63.598  1.00  0.00     0.001 A 
HETATM   18  H   UNL     1       5.852  31.195  59.518  1.00  0.00     0.165 HD
HETATM   19  C   UNL     1       4.983  33.073  59.966  1.00  0.00     0.096 A 
ENDBRANCH   9  10
ENDBRANCH   8   9
ENDBRANCH   7   8
ENDBRANCH   3   7
BRANCH   1  20
HETATM   20  N   UNL     1       5.932  34.835  67.108  1.00  0.00    -0.152 N 
HETATM   21  C   UNL     1       5.617  34.278  68.328  1.00  0.00     0.270 C 
HETATM   22  O   UNL     1       4.573  33.680  68.573  1.00  0.00    -0.267 OA
HETATM   23  H   UNL     1       6.757  35.400  66.964  1.00  0.00     0.187 HD
BRANCH  21  24
HETATM   24  C   UNL     1       6.626  34.472  69.400  1.00  0.00     0.035 A 
HETATM   25  C   UNL     1       6.897  33.402  70.260  1.00  0.00     0.053 A 
HETATM   26  C   UNL     1       7.838  33.536  71.284  1.00  0.00     0.069 A 
HETATM   27  C   UNL     1       8.516  34.746  71.435  1.00  0.00     0.037 A 
HETATM   28  C   UNL     1       8.260  35.813  70.567  1.00  0.00     0.004 A 
HETATM   29  C   UNL     1       7.316  35.679  69.548  1.00  0.00     0.017 A 
BRANCH  26  30
HETATM   30  O   UNL     1       7.994  32.423  72.062  1.00  0.00    -0.356 OA
HETATM   31  C   UNL     1       7.289  31.253  71.667  1.00  0.00     0.210 C 
ENDBRANCH  26  30
ENDBRANCH  21  24
ENDBRANCH   1  20
TORSDOF 7
ENDMDL
MODEL 8
REMARK VINA RESULT:      -9.0      2.656     10.831
REMARK  7 active torsions:
REMARK  status: ('A' for Active; 'I' for Inactive)
REMARK    1  A    between atoms: O_2  and  C_3 
REMARK    2  A    between atoms: C_5  and  C_6 
REMARK       I    between atoms: C_6  and  N_7 
REMARK    3  A    between atoms: N_7  and  C_8 
REMARK    4  A    between atoms: C_10  and  C_11 
REMARK    5  A    between atoms: C_11  and  C_12 
REMARK    6  A    between atoms: C_12  and  C_13 
REMARK    7  A    between atoms: C_13  and  C_14 
ROOT
HETATM    1  C   UNL     1       7.855  29.653  58.409  1.00  0.00     0.725 A 
HETATM    2  N   UNL     1       8.707  29.878  59.379  1.00  0.00    -0.046 NA
HETATM    3  C   UNL     1       8.401  31.159  59.774  1.00  0.00     0.165 A 
HETATM    4  N   UNL     1       7.403  31.737  59.094  1.00  0.00    -0.144 NA
HETATM    5  N   UNL     1       7.070  30.761  58.233  1.00  0.00    -0.106 N 
HETATM    6  H   UNL     1       6.311  30.878  57.568  1.00  0.00     0.208 HD
ENDROOT
BRANCH   3   7
HETATM    7  C   UNL     1       9.063  31.834  60.923  1.00  0.00     0.083 C 
BRANCH   7   8
HETATM    8  C   UNL     1       8.172  32.843  61.645  1.00  0.00     0.012 C 
BRANCH   8   9
HETATM    9  C   UNL     1       8.007  32.456  63.115  1.00  0.00     0.041 C 
BRANCH   9  10
HETATM   10  C   UNL     1       6.648  32.775  63.651  1.00  0.00    -0.030 A 
HETATM   11  C   UNL     1       6.342  33.380  64.912  1.00  0.00    -0.002 A 
HETATM   12  C   UNL     1       4.954  33.467  65.010  1.00  0.00     0.042 A 
HETATM   13  C   UNL     1       7.121  33.859  65.985  1.00  0.00     0.014 A 
HETATM   14  C   UNL     1       4.304  34.005  66.128  1.00  0.00     0.030 A 
HETATM   15  N   UNL     1       4.434  32.943  63.850  1.00  0.00    -0.365 N 
HETATM   16  C   UNL     1       5.100  34.470  67.178  1.00  0.00     0.002 A 
HETATM   17  C   UNL     1       6.489  34.402  67.110  1.00  0.00     0.001 A 
HETATM   18  H   UNL     1       3.448  32.874  63.645  1.00  0.00     0.165 HD
HETATM   19  C   UNL     1       5.442  32.524  63.025  1.00  0.00     0.096 A 
ENDBRANCH   9  10
ENDBRANCH   8   9
ENDBRANCH   7   8
ENDBRANCH   3   7
BRANCH   1  20
HETATM   20  N   UNL     1       7.749  28.490  57.691  1.00  0.00    -0.152 N 
HETATM   21  C   UNL     1       6.526  28.013  57.275  1.00  0.00     0.270 C 
HETATM   22  O   UNL     1       5.451  28.563  57.498  1.00  0.00    -0.267 OA
HETATM   23  H   UNL     1       8.606  27.968  57.573  1.00  0.00     0.187 HD
BRANCH  21  24
HETATM   24  C   UNL     1       6.558  26.722  56.542  1.00  0.00     0.035 A 
HETATM   25  C   UNL     1       7.565  25.803  56.858  1.00  0.00     0.053 A 
HETATM   26  C   UNL     1       7.636  24.574  56.197  1.00  0.00     0.069 A 
HETATM   27  C   UNL     1       6.685  24.265  55.223  1.00  0.00     0.037 A 
HETATM   28  C   UNL     1       5.667  25.175  54.916  1.00  0.00     0.004 A 
HETATM   29  C   UNL     1       5.600  26.405  55.574  1.00  0.00     0.017 A 
BRANCH  26  30
HETATM   30  O   UNL     1       8.676  23.777  56.588  1.00  0.00    -0.356 OA
HETATM   31  C   UNL     1       8.365  22.438  56.948  1.00  0.00     0.210 C 
ENDBRANCH  26  30
ENDBRANCH  21  24
ENDBRANCH   1  20
TORSDOF 7
ENDMDL
MODEL 9
REMARK VINA RESULT:      -8.8      2.643     10.761
REMARK  7 active torsions:
REMARK  status: ('A' for Active; 'I' for Inactive)
REMARK    1  A    between atoms: O_2  and  C_3 
REMARK    2  A    between atoms: C_5  and  C_6 
REMARK       I    between atoms: C_6  and  N_7 
REMARK    3  A    between atoms: N_7  and  C_8 
REMARK    4  A    between atoms: C_10  and  C_11 
REMARK    5  A    between atoms: C_11  and  C_12 
REMARK    6  A    between atoms: C_12  and  C_13 
REMARK    7  A    between atoms: C_13  and  C_14 
ROOT
HETATM    1  C   UNL     1       8.594  28.316  57.347  1.00  0.00     0.725 A 
HETATM    2  N   UNL     1       7.768  28.841  58.218  1.00  0.00    -0.046 NA
HETATM    3  C   UNL     1       8.419  29.984  58.619  1.00  0.00     0.165 A 
HETATM    4  N   UNL     1       9.609  30.188  58.040  1.00  0.00    -0.144 NA
HETATM    5  N   UNL     1       9.698  29.116  57.235  1.00  0.00    -0.106 N 
HETATM    6  H   UNL     1      10.500  28.978  56.625  1.00  0.00     0.208 HD
ENDROOT
BRANCH   3   7
HETATM    7  C   UNL     1       7.824  30.970  59.561  1.00  0.00     0.083 C 
BRANCH   7   8
HETATM    8  C   UNL     1       8.838  31.941  60.163  1.00  0.00     0.012 C 
BRANCH   8   9
HETATM    9  C   UNL     1       8.629  32.065  61.672  1.00  0.00     0.041 C 
BRANCH   9  10
HETATM   10  C   UNL     1       7.402  32.843  62.026  1.00  0.00    -0.030 A 
HETATM   11  C   UNL     1       7.020  33.299  63.329  1.00  0.00    -0.002 A 
HETATM   12  C   UNL     1       5.797  33.958  63.202  1.00  0.00     0.042 A 
HETATM   13  C   UNL     1       7.602  33.208  64.610  1.00  0.00     0.014 A 
HETATM   14  C   UNL     1       5.124  34.526  64.290  1.00  0.00     0.030 A 
HETATM   15  N   UNL     1       5.451  33.911  61.872  1.00  0.00    -0.365 N 
HETATM   16  C   UNL     1       5.722  34.420  65.549  1.00  0.00     0.002 A 
HETATM   17  C   UNL     1       6.945  33.772  65.710  1.00  0.00     0.001 A 
HETATM   18  H   UNL     1       4.607  34.310  61.486  1.00  0.00     0.165 HD
HETATM   19  C   UNL     1       6.407  33.244  61.155  1.00  0.00     0.096 A 
ENDBRANCH   9  10
ENDBRANCH   8   9
ENDBRANCH   7   8
ENDBRANCH   3   7
BRANCH   1  20
HETATM   20  N   UNL     1       8.386  27.156  56.645  1.00  0.00    -0.152 N 
HETATM   21  C   UNL     1       8.095  25.973  57.287  1.00  0.00     0.270 C 
HETATM   22  O   UNL     1       7.998  25.845  58.504  1.00  0.00    -0.267 OA
HETATM   23  H   UNL     1       8.551  27.210  55.650  1.00  0.00     0.187 HD
BRANCH  21  24
HETATM   24  C   UNL     1       7.935  24.789  56.405  1.00  0.00     0.035 A 
HETATM   25  C   UNL     1       8.315  23.536  56.899  1.00  0.00     0.053 A 
HETATM   26  C   UNL     1       8.182  22.392  56.107  1.00  0.00     0.069 A 
HETATM   27  C   UNL     1       7.656  22.509  54.820  1.00  0.00     0.037 A 
HETATM   28  C   UNL     1       7.259  23.758  54.329  1.00  0.00     0.004 A 
HETATM   29  C   UNL     1       7.397  24.900  55.119  1.00  0.00     0.017 A 
BRANCH  26  30
HETATM   30  O   UNL     1       8.606  21.236  56.702  1.00  0.00    -0.356 OA
HETATM   31  C   UNL     1       8.950  20.156  55.845  1.00  0.00     0.210 C 
ENDBRANCH  26  30
ENDBRANCH  21  24
ENDBRANCH   1  20
TORSDOF 7
ENDMDL
MODEL 10
REMARK VINA RESULT:      -8.8      3.590     10.188
REMARK  7 active torsions:
REMARK  status: ('A' for Active; 'I' for Inactive)
REMARK    1  A    between atoms: O_2  and  C_3 
REMARK    2  A    between atoms: C_5  and  C_6 
REMARK       I    between atoms: C_6  and  N_7 
REMARK    3  A    between atoms: N_7  and  C_8 
REMARK    4  A    between atoms: C_10  and  C_11 
REMARK    5  A    between atoms: C_11  and  C_12 
REMARK    6  A    between atoms: C_12  and  C_13 
REMARK    7  A    between atoms: C_13  and  C_14 
ROOT
HETATM    1  C   UNL     1       5.295  25.758  54.092  1.00  0.00     0.725 A 
HETATM    2  N   UNL     1       5.458  26.707  54.981  1.00  0.00    -0.046 NA
HETATM    3  C   UNL     1       4.704  27.741  54.479  1.00  0.00     0.165 A 
HETATM    4  N   UNL     1       4.085  27.478  53.321  1.00  0.00    -0.144 NA
HETATM    5  N   UNL     1       4.474  26.212  53.095  1.00  0.00    -0.106 N 
HETATM    6  H   UNL     1       4.153  25.697  52.280  1.00  0.00     0.208 HD
ENDROOT
BRANCH   3   7
HETATM    7  C   UNL     1       4.513  29.031  55.196  1.00  0.00     0.083 C 
BRANCH   7   8
HETATM    8  C   UNL     1       4.764  28.945  56.701  1.00  0.00     0.012 C 
BRANCH   8   9
HETATM    9  C   UNL     1       5.314  30.271  57.228  1.00  0.00     0.041 C 
BRANCH   9  10
HETATM   10  C   UNL     1       6.694  30.145  57.789  1.00  0.00    -0.030 A 
HETATM   11  C   UNL     1       7.276  30.945  58.825  1.00  0.00    -0.002 A 
HETATM   12  C   UNL     1       8.584  30.500  59.014  1.00  0.00     0.042 A 
HETATM   13  C   UNL     1       6.810  32.014  59.618  1.00  0.00     0.014 A 
HETATM   14  C   UNL     1       9.452  31.070  59.952  1.00  0.00     0.030 A 
HETATM   15  N   UNL     1       8.789  29.464  58.133  1.00  0.00    -0.365 N 
HETATM   16  C   UNL     1       8.966  32.129  60.724  1.00  0.00     0.002 A 
HETATM   17  C   UNL     1       7.663  32.596  60.564  1.00  0.00     0.001 A 
HETATM   18  H   UNL     1       9.653  28.949  58.047  1.00  0.00     0.165 HD
HETATM   19  C   UNL     1       7.660  29.241  57.392  1.00  0.00     0.096 A 
ENDBRANCH   9  10
ENDBRANCH   8   9
ENDBRANCH   7   8
ENDBRANCH   3   7
BRANCH   1  20
HETATM   20  N   UNL     1       5.844  24.503  54.152  1.00  0.00    -0.152 N 
HETATM   21  C   UNL     1       7.195  24.303  53.975  1.00  0.00     0.270 C 
HETATM   22  O   UNL     1       8.009  25.196  53.755  1.00  0.00    -0.267 OA
HETATM   23  H   UNL     1       5.187  23.741  54.238  1.00  0.00     0.187 HD
BRANCH  21  24
HETATM   24  C   UNL     1       7.645  22.889  54.024  1.00  0.00     0.035 A 
HETATM   25  C   UNL     1       7.958  22.335  55.271  1.00  0.00     0.053 A 
HETATM   26  C   UNL     1       8.385  21.008  55.369  1.00  0.00     0.069 A 
HETATM   27  C   UNL     1       8.485  20.234  54.212  1.00  0.00     0.037 A 
HETATM   28  C   UNL     1       8.156  20.780  52.966  1.00  0.00     0.004 A 
HETATM   29  C   UNL     1       7.735  22.107  52.869  1.00  0.00     0.017 A 
BRANCH  26  30
HETATM   30  O   UNL     1       8.676  20.597  56.640  1.00  0.00    -0.356 OA
HETATM   31  C   UNL     1       8.291  21.458  57.703  1.00  0.00     0.210 C 
ENDBRANCH  26  30
ENDBRANCH  21  24
ENDBRANCH   1  20
TORSDOF 7
ENDMDL
