MODEL 1
REMARK VINA RESULT:      -9.8      0.000      0.000
REMARK  3 active torsions:
REMARK  status: ('A' for Active; 'I' for Inactive)
REMARK    1  A    between atoms: C_2  and  N_3 
REMARK    2  A    between atoms: C_2  and  C_10 
REMARK    3  A    between atoms: C_13  and  C_14 
ROOT
HETATM    1  C   UNL     1       7.307  25.230  55.232  1.00  0.00    -0.028 A 
HETATM    2  C   UNL     1       7.248  26.484  54.604  1.00  0.00     0.010 A 
HETATM    3  C   UNL     1       7.663  27.645  55.269  1.00  0.00     0.013 A 
HETATM    4  C   UNL     1       8.156  27.596  56.580  1.00  0.00    -0.024 A 
HETATM    5  C   UNL     1       8.227  26.339  57.199  1.00  0.00     0.013 A 
HETATM    6  C   UNL     1       7.809  25.176  56.541  1.00  0.00     0.010 A 
ENDROOT
BRANCH   4   7
HETATM    7  C   UNL     1       8.579  28.820  57.282  1.00  0.00    -0.006 A 
HETATM    8  C   UNL     1       9.773  29.478  56.944  1.00  0.00     0.131 A 
HETATM    9  N   UNL     1      10.276  30.599  57.512  1.00  0.00    -0.239 NA
HETATM   10  C   UNL     1       9.518  31.103  58.507  1.00  0.00     0.177 A 
HETATM   11  C   UNL     1       8.322  30.527  58.917  1.00  0.00     0.082 A 
HETATM   12  N   UNL     1       9.807  32.219  59.239  1.00  0.00    -0.222 NA
HETATM   13  N   UNL     1       7.888  31.343  59.929  1.00  0.00    -0.348 N 
HETATM   14  C   UNL     1       7.812  29.372  58.322  1.00  0.00     0.047 A 
HETATM   15  H   UNL     1       7.041  31.234  60.469  1.00  0.00     0.167 HD
HETATM   16  C   UNL     1       8.811  32.340  60.086  1.00  0.00     0.210 A 
ENDBRANCH   4   7
BRANCH   1  17
HETATM   17  C   UNL     1       6.819  23.997  54.491  1.00  0.00     0.217 C 
HETATM   18  C   UNL     1       6.446  24.239  53.022  1.00  0.00     0.045 C 
BRANCH  17  19
HETATM   19  N   UNL     1       7.762  22.789  54.573  1.00  0.00    -0.063 N 
HETATM   20  H   UNL     1       8.705  23.189  54.640  1.00  0.00     0.280 HD
HETATM   21  C   UNL     1       7.574  21.913  55.795  1.00  0.00     0.235 C 
HETATM   22  C   UNL     1       8.716  20.906  55.867  1.00  0.00     0.028 C 
HETATM   23  C   UNL     1       8.810  20.068  54.598  1.00  0.00     0.003 C 
HETATM   24  C   UNL     1       8.893  20.951  53.357  1.00  0.00     0.028 C 
HETATM   25  C   UNL     1       7.753  21.959  53.307  1.00  0.00     0.235 C 
ENDBRANCH  17  19
ENDBRANCH   1  17
TORSDOF 3
ENDMDL
MODEL 2
REMARK VINA RESULT:      -9.3      4.559      8.379
REMARK  3 active torsions:
REMARK  status: ('A' for Active; 'I' for Inactive)
REMARK    1  A    between atoms: C_2  and  N_3 
REMARK    2  A    between atoms: C_2  and  C_10 
REMARK    3  A    between atoms: C_13  and  C_14 
ROOT
HETATM    1  C   UNL     1       7.942  31.578  60.051  1.00  0.00    -0.028 A 
HETATM    2  C   UNL     1       6.836  32.440  60.119  1.00  0.00     0.010 A 
HETATM    3  C   UNL     1       6.353  32.899  61.350  1.00  0.00     0.013 A 
HETATM    4  C   UNL     1       6.956  32.520  62.557  1.00  0.00    -0.024 A 
HETATM    5  C   UNL     1       8.070  31.669  62.485  1.00  0.00     0.013 A 
HETATM    6  C   UNL     1       8.555  31.203  61.256  1.00  0.00     0.010 A 
ENDROOT
BRANCH   4   7
HETATM    7  C   UNL     1       6.438  32.993  63.852  1.00  0.00    -0.006 A 
HETATM    8  C   UNL     1       5.064  32.970  64.139  1.00  0.00     0.131 A 
HETATM    9  N   UNL     1       4.461  33.379  65.279  1.00  0.00    -0.239 NA
HETATM   10  C   UNL     1       5.309  33.855  66.214  1.00  0.00     0.177 A 
HETATM   11  C   UNL     1       6.685  33.920  66.028  1.00  0.00     0.082 A 
HETATM   12  N   UNL     1       4.952  34.331  67.443  1.00  0.00    -0.222 NA
HETATM   13  N   UNL     1       7.156  34.453  67.200  1.00  0.00    -0.348 N 
HETATM   14  C   UNL     1       7.295  33.492  64.847  1.00  0.00     0.047 A 
HETATM   15  H   UNL     1       8.120  34.645  67.429  1.00  0.00     0.167 HD
HETATM   16  C   UNL     1       6.081  34.683  68.014  1.00  0.00     0.210 A 
ENDBRANCH   4   7
BRANCH   1  17
HETATM   17  C   UNL     1       8.419  31.076  58.700  1.00  0.00     0.217 C 
HETATM   18  C   UNL     1       9.943  30.985  58.552  1.00  0.00     0.045 C 
BRANCH  17  19
HETATM   19  N   UNL     1       7.796  29.744  58.258  1.00  0.00    -0.063 N 
HETATM   20  H   UNL     1       7.600  29.238  59.129  1.00  0.00     0.280 HD
HETATM   21  C   UNL     1       6.477  29.868  57.522  1.00  0.00     0.235 C 
HETATM   22  C   UNL     1       5.865  28.482  57.358  1.00  0.00     0.028 C 
HETATM   23  C   UNL     1       6.812  27.530  56.636  1.00  0.00     0.003 C 
HETATM   24  C   UNL     1       8.175  27.484  57.317  1.00  0.00     0.028 C 
HETATM   25  C   UNL     1       8.767  28.878  57.484  1.00  0.00     0.235 C 
ENDBRANCH  17  19
ENDBRANCH   1  17
TORSDOF 3
ENDMDL
MODEL 3
REMARK VINA RESULT:      -9.0      5.040      7.887
REMARK  3 active torsions:
REMARK  status: ('A' for Active; 'I' for Inactive)
REMARK    1  A    between atoms: C_2  and  N_3 
REMARK    2  A    between atoms: C_2  and  C_10 
REMARK    3  A    between atoms: C_13  and  C_14 
ROOT
HETATM    1  C   UNL     1       7.087  24.699  53.769  1.00  0.00    -0.028 A 
HETATM    2  C   UNL     1       5.711  24.923  53.936  1.00  0.00     0.010 A 
HETATM    3  C   UNL     1       4.949  25.522  52.926  1.00  0.00     0.013 A 
HETATM    4  C   UNL     1       5.529  25.917  51.713  1.00  0.00    -0.024 A 
HETATM    5  C   UNL     1       6.902  25.679  51.544  1.00  0.00     0.013 A 
HETATM    6  C   UNL     1       7.670  25.084  52.552  1.00  0.00     0.010 A 
ENDROOT
BRANCH   4   7
HETATM    7  C   UNL     1       4.729  26.561  50.657  1.00  0.00    -0.006 A 
HETATM    8  C   UNL     1       4.358  27.912  50.745  1.00  0.00     0.131 A 
HETATM    9  N   UNL     1       3.624  28.617  49.854  1.00  0.00    -0.239 NA
HETATM   10  C   UNL     1       3.223  27.905  48.781  1.00  0.00     0.177 A 
HETATM   11  C   UNL     1       3.536  26.564  48.600  1.00  0.00     0.082 A 
HETATM   12  N   UNL     1       2.471  28.383  47.746  1.00  0.00    -0.222 NA
HETATM   13  N   UNL     1       2.947  26.241  47.405  1.00  0.00    -0.348 N 
HETATM   14  C   UNL     1       4.297  25.848  49.526  1.00  0.00     0.047 A 
HETATM   15  H   UNL     1       2.966  25.340  46.949  1.00  0.00     0.167 HD
HETATM   16  C   UNL     1       2.320  27.362  46.933  1.00  0.00     0.210 A 
ENDBRANCH   4   7
BRANCH   1  17
HETATM   17  C   UNL     1       7.887  24.074  54.898  1.00  0.00     0.217 C 
HETATM   18  C   UNL     1       7.485  24.542  56.303  1.00  0.00     0.045 C 
BRANCH  17  19
HETATM   19  N   UNL     1       7.928  22.540  54.878  1.00  0.00    -0.063 N 
HETATM   20  H   UNL     1       6.956  22.248  54.721  1.00  0.00     0.280 HD
HETATM   21  C   UNL     1       8.748  21.937  53.756  1.00  0.00     0.235 C 
HETATM   22  C   UNL     1       8.509  20.432  53.715  1.00  0.00     0.028 C 
HETATM   23  C   UNL     1       8.833  19.774  55.050  1.00  0.00     0.003 C 
HETATM   24  C   UNL     1       8.086  20.448  56.195  1.00  0.00     0.028 C 
HETATM   25  C   UNL     1       8.326  21.952  56.215  1.00  0.00     0.235 C 
ENDBRANCH  17  19
ENDBRANCH   1  17
TORSDOF 3
ENDMDL
MODEL 4
REMARK VINA RESULT:      -8.9      1.617      8.756
REMARK  3 active torsions:
REMARK  status: ('A' for Active; 'I' for Inactive)
REMARK    1  A    between atoms: C_2  and  N_3 
REMARK    2  A    between atoms: C_2  and  C_10 
REMARK    3  A    between atoms: C_13  and  C_14 
ROOT
HETATM    1  C   UNL     1       7.319  29.413  57.805  1.00  0.00    -0.028 A 
HETATM    2  C   UNL     1       8.547  28.775  57.567  1.00  0.00     0.010 A 
HETATM    3  C   UNL     1       8.598  27.474  57.055  1.00  0.00     0.013 A 
HETATM    4  C   UNL     1       7.427  26.762  56.757  1.00  0.00    -0.024 A 
HETATM    5  C   UNL     1       6.202  27.407  56.983  1.00  0.00     0.013 A 
HETATM    6  C   UNL     1       6.146  28.708  57.500  1.00  0.00     0.010 A 
ENDROOT
BRANCH   4   7
HETATM    7  C   UNL     1       7.482  25.387  56.232  1.00  0.00    -0.006 A 
HETATM    8  C   UNL     1       6.963  25.069  54.967  1.00  0.00     0.131 A 
HETATM    9  N   UNL     1       6.944  23.853  54.374  1.00  0.00    -0.239 NA
HETATM   10  C   UNL     1       7.492  22.868  55.115  1.00  0.00     0.177 A 
HETATM   11  C   UNL     1       8.032  23.078  56.377  1.00  0.00     0.082 A 
HETATM   12  N   UNL     1       7.591  21.557  54.745  1.00  0.00    -0.222 NA
HETATM   13  N   UNL     1       8.472  21.839  56.763  1.00  0.00    -0.348 N 
HETATM   14  C   UNL     1       8.047  24.339  56.977  1.00  0.00     0.047 A 
HETATM   15  H   UNL     1       8.926  21.606  57.635  1.00  0.00     0.167 HD
HETATM   16  C   UNL     1       8.184  20.961  55.754  1.00  0.00     0.210 A 
ENDBRANCH   4   7
BRANCH   1  17
HETATM   17  C   UNL     1       7.304  30.814  58.390  1.00  0.00     0.217 C 
HETATM   18  C   UNL     1       6.040  31.626  58.076  1.00  0.00     0.045 C 
BRANCH  17  19
HETATM   19  N   UNL     1       7.572  30.878  59.901  1.00  0.00    -0.063 N 
HETATM   20  H   UNL     1       7.159  30.019  60.283  1.00  0.00     0.280 HD
HETATM   21  C   UNL     1       9.036  30.865  60.291  1.00  0.00     0.235 C 
HETATM   22  C   UNL     1       9.149  30.693  61.801  1.00  0.00     0.028 C 
HETATM   23  C   UNL     1       8.388  31.780  62.550  1.00  0.00     0.003 C 
HETATM   24  C   UNL     1       6.939  31.863  62.083  1.00  0.00     0.028 C 
HETATM   25  C   UNL     1       6.844  32.023  60.572  1.00  0.00     0.235 C 
ENDBRANCH  17  19
ENDBRANCH   1  17
TORSDOF 3
ENDMDL
MODEL 5
REMARK VINA RESULT:      -8.8      5.063      8.464
REMARK  3 active torsions:
REMARK  status: ('A' for Active; 'I' for Inactive)
REMARK    1  A    between atoms: C_2  and  N_3 
REMARK    2  A    between atoms: C_2  and  C_10 
REMARK    3  A    between atoms: C_13  and  C_14 
ROOT
HETATM    1  C   UNL     1       5.230  26.671  51.314  1.00  0.00    -0.028 A 
HETATM    2  C   UNL     1       6.406  26.981  52.016  1.00  0.00     0.010 A 
HETATM    3  C   UNL     1       6.982  26.064  52.903  1.00  0.00     0.013 A 
HETATM    4  C   UNL     1       6.409  24.803  53.121  1.00  0.00    -0.024 A 
HETATM    5  C   UNL     1       5.242  24.490  52.408  1.00  0.00     0.013 A 
HETATM    6  C   UNL     1       4.660  25.406  51.522  1.00  0.00     0.010 A 
ENDROOT
BRANCH   4   7
HETATM    7  C   UNL     1       7.009  23.845  54.066  1.00  0.00    -0.006 A 
HETATM    8  C   UNL     1       7.076  24.123  55.440  1.00  0.00     0.131 A 
HETATM    9  N   UNL     1       7.603  23.337  56.407  1.00  0.00    -0.239 NA
HETATM   10  C   UNL     1       8.110  22.171  55.957  1.00  0.00     0.177 A 
HETATM   11  C   UNL     1       8.093  21.802  54.617  1.00  0.00     0.082 A 
HETATM   12  N   UNL     1       8.700  21.210  56.728  1.00  0.00    -0.222 NA
HETATM   13  N   UNL     1       8.695  20.571  54.601  1.00  0.00    -0.348 N 
HETATM   14  C   UNL     1       7.544  22.622  53.629  1.00  0.00     0.047 A 
HETATM   15  H   UNL     1       8.857  19.991  53.790  1.00  0.00     0.167 HD
HETATM   16  C   UNL     1       9.041  20.260  55.887  1.00  0.00     0.210 A 
ENDBRANCH   4   7
BRANCH   1  17
HETATM   17  C   UNL     1       4.618  27.702  50.383  1.00  0.00     0.217 C 
HETATM   18  C   UNL     1       5.635  28.541  49.599  1.00  0.00     0.045 C 
BRANCH  17  19
HETATM   19  N   UNL     1       3.576  27.140  49.405  1.00  0.00    -0.063 N 
HETATM   20  H   UNL     1       3.120  26.373  49.912  1.00  0.00     0.280 HD
HETATM   21  C   UNL     1       2.483  28.110  49.009  1.00  0.00     0.235 C 
HETATM   22  C   UNL     1       1.404  27.359  48.237  1.00  0.00     0.028 C 
HETATM   23  C   UNL     1       1.977  26.645  47.019  1.00  0.00     0.003 C 
HETATM   24  C   UNL     1       3.147  25.747  47.403  1.00  0.00     0.028 C 
HETATM   25  C   UNL     1       4.209  26.510  48.183  1.00  0.00     0.235 C 
ENDBRANCH  17  19
ENDBRANCH   1  17
TORSDOF 3
ENDMDL
MODEL 6
REMARK VINA RESULT:      -8.7      3.777      7.136
REMARK  3 active torsions:
REMARK  status: ('A' for Active; 'I' for Inactive)
REMARK    1  A    between atoms: C_2  and  N_3 
REMARK    2  A    between atoms: C_2  and  C_10 
REMARK    3  A    between atoms: C_13  and  C_14 
ROOT
HETATM    1  C   UNL     1       8.554  30.752  58.870  1.00  0.00    -0.028 A 
HETATM    2  C   UNL     1       9.159  30.523  60.116  1.00  0.00     0.010 A 
HETATM    3  C   UNL     1       8.584  31.004  61.298  1.00  0.00     0.013 A 
HETATM    4  C   UNL     1       7.383  31.727  61.282  1.00  0.00    -0.024 A 
HETATM    5  C   UNL     1       6.773  31.941  60.037  1.00  0.00     0.013 A 
HETATM    6  C   UNL     1       7.347  31.466  58.851  1.00  0.00     0.010 A 
ENDROOT
BRANCH   4   7
HETATM    7  C   UNL     1       6.786  32.244  62.526  1.00  0.00    -0.006 A 
HETATM    8  C   UNL     1       5.424  32.061  62.811  1.00  0.00     0.131 A 
HETATM    9  N   UNL     1       4.754  32.490  63.906  1.00  0.00    -0.239 NA
HETATM   10  C   UNL     1       5.517  33.163  64.792  1.00  0.00     0.177 A 
HETATM   11  C   UNL     1       6.873  33.397  64.603  1.00  0.00     0.082 A 
HETATM   12  N   UNL     1       5.080  33.700  65.970  1.00  0.00    -0.222 NA
HETATM   13  N   UNL     1       7.251  34.097  65.720  1.00  0.00    -0.348 N 
HETATM   14  C   UNL     1       7.553  32.948  63.470  1.00  0.00     0.047 A 
HETATM   15  H   UNL     1       8.177  34.440  65.930  1.00  0.00     0.167 HD
HETATM   16  C   UNL     1       6.143  34.255  66.507  1.00  0.00     0.210 A 
ENDBRANCH   4   7
BRANCH   1  17
HETATM   17  C   UNL     1       9.223  30.241  57.607  1.00  0.00     0.217 C 
HETATM   18  C   UNL     1      10.749  30.102  57.701  1.00  0.00     0.045 C 
BRANCH  17  19
HETATM   19  N   UNL     1       8.638  28.932  57.059  1.00  0.00    -0.063 N 
HETATM   20  H   UNL     1       9.451  28.337  56.862  1.00  0.00     0.280 HD
HETATM   21  C   UNL     1       7.765  28.166  58.031  1.00  0.00     0.235 C 
HETATM   22  C   UNL     1       7.453  26.793  57.448  1.00  0.00     0.028 C 
HETATM   23  C   UNL     1       6.791  26.900  56.079  1.00  0.00     0.003 C 
HETATM   24  C   UNL     1       7.620  27.759  55.130  1.00  0.00     0.028 C 
HETATM   25  C   UNL     1       7.932  29.122  55.733  1.00  0.00     0.235 C 
ENDBRANCH  17  19
ENDBRANCH   1  17
TORSDOF 3
ENDMDL
MODEL 7
REMARK VINA RESULT:      -8.5      1.822      2.545
REMARK  3 active torsions:
REMARK  status: ('A' for Active; 'I' for Inactive)
REMARK    1  A    between atoms: C_2  and  N_3 
REMARK    2  A    between atoms: C_2  and  C_10 
REMARK    3  A    between atoms: C_13  and  C_14 
ROOT
HETATM    1  C   UNL     1       6.819  25.714  54.077  1.00  0.00    -0.028 A 
HETATM    2  C   UNL     1       5.946  25.747  55.176  1.00  0.00     0.010 A 
HETATM    3  C   UNL     1       5.813  26.899  55.959  1.00  0.00     0.013 A 
HETATM    4  C   UNL     1       6.542  28.062  55.674  1.00  0.00    -0.024 A 
HETATM    5  C   UNL     1       7.403  28.032  54.566  1.00  0.00     0.013 A 
HETATM    6  C   UNL     1       7.543  26.880  53.782  1.00  0.00     0.010 A 
ENDROOT
BRANCH   4   7
HETATM    7  C   UNL     1       6.411  29.270  56.508  1.00  0.00    -0.006 A 
HETATM    8  C   UNL     1       5.667  30.378  56.073  1.00  0.00     0.131 A 
HETATM    9  N   UNL     1       5.475  31.543  56.735  1.00  0.00    -0.239 NA
HETATM   10  C   UNL     1       6.084  31.603  57.937  1.00  0.00     0.177 A 
HETATM   11  C   UNL     1       6.843  30.561  58.457  1.00  0.00     0.082 A 
HETATM   12  N   UNL     1       6.048  32.666  58.794  1.00  0.00    -0.222 NA
HETATM   13  N   UNL     1       7.267  31.031  59.673  1.00  0.00    -0.348 N 
HETATM   14  C   UNL     1       7.031  29.364  57.765  1.00  0.00     0.047 A 
HETATM   15  H   UNL     1       7.845  30.539  60.339  1.00  0.00     0.167 HD
HETATM   16  C   UNL     1       6.767  32.294  59.829  1.00  0.00     0.210 A 
ENDBRANCH   4   7
BRANCH   1  17
HETATM   17  C   UNL     1       6.960  24.437  53.269  1.00  0.00     0.217 C 
HETATM   18  C   UNL     1       7.872  24.553  52.040  1.00  0.00     0.045 C 
BRANCH  17  19
HETATM   19  N   UNL     1       7.381  23.208  54.087  1.00  0.00    -0.063 N 
HETATM   20  H   UNL     1       6.556  22.964  54.648  1.00  0.00     0.280 HD
HETATM   21  C   UNL     1       7.724  21.981  53.267  1.00  0.00     0.235 C 
HETATM   22  C   UNL     1       7.889  20.787  54.199  1.00  0.00     0.028 C 
HETATM   23  C   UNL     1       8.943  21.049  55.269  1.00  0.00     0.003 C 
HETATM   24  C   UNL     1       8.654  22.340  56.026  1.00  0.00     0.028 C 
HETATM   25  C   UNL     1       8.481  23.520  55.079  1.00  0.00     0.235 C 
ENDBRANCH  17  19
ENDBRANCH   1  17
TORSDOF 3
ENDMDL
MODEL 8
REMARK VINA RESULT:      -8.3      1.985      2.905
REMARK  3 active torsions:
REMARK  status: ('A' for Active; 'I' for Inactive)
REMARK    1  A    between atoms: C_2  and  N_3 
REMARK    2  A    between atoms: C_2  and  C_10 
REMARK    3  A    between atoms: C_13  and  C_14 
ROOT
HETATM    1  C   UNL     1       5.828  27.289  54.846  1.00  0.00    -0.028 A 
HETATM    2  C   UNL     1       4.991  27.603  55.929  1.00  0.00     0.010 A 
HETATM    3  C   UNL     1       5.404  28.493  56.927  1.00  0.00     0.013 A 
HETATM    4  C   UNL     1       6.664  29.106  56.881  1.00  0.00    -0.024 A 
HETATM    5  C   UNL     1       7.492  28.802  55.791  1.00  0.00     0.013 A 
HETATM    6  C   UNL     1       7.086  27.908  54.791  1.00  0.00     0.010 A 
ENDROOT
BRANCH   4   7
HETATM    7  C   UNL     1       7.102  30.031  57.940  1.00  0.00    -0.006 A 
HETATM    8  C   UNL     1       6.520  31.301  58.085  1.00  0.00     0.131 A 
HETATM    9  N   UNL     1       6.834  32.242  59.006  1.00  0.00    -0.239 NA
HETATM   10  C   UNL     1       7.819  31.881  59.853  1.00  0.00     0.177 A 
HETATM   11  C   UNL     1       8.458  30.649  59.793  1.00  0.00     0.082 A 
HETATM   12  N   UNL     1       8.319  32.651  60.864  1.00  0.00    -0.222 NA
HETATM   13  N   UNL     1       9.370  30.695  60.815  1.00  0.00    -0.348 N 
HETATM   14  C   UNL     1       8.124  29.685  58.840  1.00  0.00     0.047 A 
HETATM   15  H   UNL     1      10.019  29.966  61.077  1.00  0.00     0.167 HD
HETATM   16  C   UNL     1       9.250  31.914  61.426  1.00  0.00     0.210 A 
ENDBRANCH   4   7
BRANCH   1  17
HETATM   17  C   UNL     1       5.358  26.296  53.798  1.00  0.00     0.217 C 
HETATM   18  C   UNL     1       5.220  26.875  52.384  1.00  0.00     0.045 C 
BRANCH  17  19
HETATM   19  N   UNL     1       6.183  25.003  53.729  1.00  0.00    -0.063 N 
HETATM   20  H   UNL     1       5.533  24.289  53.380  1.00  0.00     0.280 HD
HETATM   21  C   UNL     1       7.348  25.040  52.761  1.00  0.00     0.235 C 
HETATM   22  C   UNL     1       7.924  23.636  52.619  1.00  0.00     0.028 C 
HETATM   23  C   UNL     1       8.343  23.060  53.967  1.00  0.00     0.003 C 
HETATM   24  C   UNL     1       7.200  23.119  54.974  1.00  0.00     0.028 C 
HETATM   25  C   UNL     1       6.630  24.526  55.094  1.00  0.00     0.235 C 
ENDBRANCH  17  19
ENDBRANCH   1  17
TORSDOF 3
ENDMDL
MODEL 9
REMARK VINA RESULT:      -8.2      1.835      8.677
REMARK  3 active torsions:
REMARK  status: ('A' for Active; 'I' for Inactive)
REMARK    1  A    between atoms: C_2  and  N_3 
REMARK    2  A    between atoms: C_2  and  C_10 
REMARK    3  A    between atoms: C_13  and  C_14 
ROOT
HETATM    1  C   UNL     1       6.264  28.348  56.658  1.00  0.00    -0.028 A 
HETATM    2  C   UNL     1       5.518  27.247  57.107  1.00  0.00     0.010 A 
HETATM    3  C   UNL     1       5.892  25.939  56.778  1.00  0.00     0.013 A 
HETATM    4  C   UNL     1       7.024  25.680  55.994  1.00  0.00    -0.024 A 
HETATM    5  C   UNL     1       7.776  26.782  55.559  1.00  0.00     0.013 A 
HETATM    6  C   UNL     1       7.404  28.093  55.881  1.00  0.00     0.010 A 
ENDROOT
BRANCH   4   7
HETATM    7  C   UNL     1       7.408  24.303  55.637  1.00  0.00    -0.006 A 
HETATM    8  C   UNL     1       7.976  23.437  56.584  1.00  0.00     0.131 A 
HETATM    9  N   UNL     1       8.377  22.159  56.386  1.00  0.00    -0.239 NA
HETATM   10  C   UNL     1       8.194  21.712  55.126  1.00  0.00     0.177 A 
HETATM   11  C   UNL     1       7.641  22.490  54.117  1.00  0.00     0.082 A 
HETATM   12  N   UNL     1       8.518  20.466  54.671  1.00  0.00    -0.222 NA
HETATM   13  N   UNL     1       7.636  21.664  53.023  1.00  0.00    -0.348 N 
HETATM   14  C   UNL     1       7.230  23.806  54.335  1.00  0.00     0.047 A 
HETATM   15  H   UNL     1       7.300  21.892  52.098  1.00  0.00     0.167 HD
HETATM   16  C   UNL     1       8.172  20.465  53.404  1.00  0.00     0.210 A 
ENDBRANCH   4   7
BRANCH   1  17
HETATM   17  C   UNL     1       5.810  29.754  57.009  1.00  0.00     0.217 C 
HETATM   18  C   UNL     1       4.290  29.928  57.121  1.00  0.00     0.045 C 
BRANCH  17  19
HETATM   19  N   UNL     1       6.472  30.344  58.262  1.00  0.00    -0.063 N 
HETATM   20  H   UNL     1       5.986  29.904  59.053  1.00  0.00     0.280 HD
HETATM   21  C   UNL     1       7.942  30.019  58.422  1.00  0.00     0.235 C 
HETATM   22  C   UNL     1       8.404  30.458  59.807  1.00  0.00     0.028 C 
HETATM   23  C   UNL     1       8.137  31.939  60.046  1.00  0.00     0.003 C 
HETATM   24  C   UNL     1       6.676  32.287  59.784  1.00  0.00     0.028 C 
HETATM   25  C   UNL     1       6.229  31.832  58.402  1.00  0.00     0.235 C 
ENDBRANCH  17  19
ENDBRANCH   1  17
TORSDOF 3
ENDMDL
MODEL 10
REMARK VINA RESULT:      -7.8      3.001      8.696
REMARK  3 active torsions:
REMARK  status: ('A' for Active; 'I' for Inactive)
REMARK    1  A    between atoms: C_2  and  N_3 
REMARK    2  A    between atoms: C_2  and  C_10 
REMARK    3  A    between atoms: C_13  and  C_14 
ROOT
HETATM    1  C   UNL     1       6.031  27.637  56.619  1.00  0.00    -0.028 A 
HETATM    2  C   UNL     1       5.313  26.478  56.956  1.00  0.00     0.010 A 
HETATM    3  C   UNL     1       5.778  25.209  56.592  1.00  0.00     0.013 A 
HETATM    4  C   UNL     1       6.977  25.047  55.884  1.00  0.00    -0.024 A 
HETATM    5  C   UNL     1       7.699  26.206  55.562  1.00  0.00     0.013 A 
HETATM    6  C   UNL     1       7.237  27.479  55.919  1.00  0.00     0.010 A 
ENDROOT
BRANCH   4   7
HETATM    7  C   UNL     1       7.457  23.712  55.490  1.00  0.00    -0.006 A 
HETATM    8  C   UNL     1       8.022  22.835  56.429  1.00  0.00     0.131 A 
HETATM    9  N   UNL     1       8.505  21.592  56.198  1.00  0.00    -0.239 NA
HETATM   10  C   UNL     1       8.415  21.194  54.912  1.00  0.00     0.177 A 
HETATM   11  C   UNL     1       7.873  21.986  53.908  1.00  0.00     0.082 A 
HETATM   12  N   UNL     1       8.834  19.990  54.422  1.00  0.00    -0.222 NA
HETATM   13  N   UNL     1       7.973  21.213  52.781  1.00  0.00    -0.348 N 
HETATM   14  C   UNL     1       7.376  23.266  54.160  1.00  0.00     0.047 A 
HETATM   15  H   UNL     1       7.674  21.465  51.850  1.00  0.00     0.167 HD
HETATM   16  C   UNL     1       8.556  20.028  53.139  1.00  0.00     0.210 A 
ENDBRANCH   4   7
BRANCH   1  17
HETATM   17  C   UNL     1       5.481  28.999  57.004  1.00  0.00     0.217 C 
HETATM   18  C   UNL     1       6.440  29.868  57.828  1.00  0.00     0.045 C 
BRANCH  17  19
HETATM   19  N   UNL     1       4.946  29.827  55.827  1.00  0.00    -0.063 N 
HETATM   20  H   UNL     1       5.773  30.051  55.260  1.00  0.00     0.280 HD
HETATM   21  C   UNL     1       3.982  29.095  54.916  1.00  0.00     0.235 C 
HETATM   22  C   UNL     1       3.722  29.944  53.677  1.00  0.00     0.028 C 
HETATM   23  C   UNL     1       3.196  31.327  54.042  1.00  0.00     0.003 C 
HETATM   24  C   UNL     1       4.114  32.023  55.040  1.00  0.00     0.028 C 
HETATM   25  C   UNL     1       4.372  31.157  56.266  1.00  0.00     0.235 C 
ENDBRANCH  17  19
ENDBRANCH   1  17
TORSDOF 3
ENDMDL
