MODEL 1
REMARK VINA RESULT:     -11.8      0.000      0.000
REMARK  7 active torsions:
REMARK  status: ('A' for Active; 'I' for Inactive)
REMARK    1  A    between atoms: C_3  and  C_4 
REMARK       I    between atoms: C_4  and  N_5 
REMARK    2  A    between atoms: N_5  and  C_6 
REMARK    3  A    between atoms: C_6  and  C_7 
REMARK    4  A    between atoms: N_23  and  C_24 
REMARK    5  A    between atoms: C_24  and  C_25 
REMARK       I    between atoms: C_25  and  N_26 
REMARK    6  A    between atoms: N_26  and  C_27 
REMARK    7  A    between atoms: C_29  and  C_30 
ROOT
HETATM    1  C   UNL     1       9.332  29.708  57.098  1.00  0.00     0.051 C 
HETATM    2  C   UNL     1       7.897  30.140  57.130  1.00  0.00    -0.021 C 
HETATM    3  C   UNL     1       7.337  30.957  58.114  1.00  0.00     0.081 C 
HETATM    4  S   UNL     1       5.697  31.329  57.756  1.00  0.00    -0.063 SA
HETATM    5  C   UNL     1       5.668  30.296  56.410  1.00  0.00     0.116 A 
HETATM    6  C   UNL     1       6.890  29.700  56.195  1.00  0.00     0.075 A 
HETATM    7  C   UNL     1       6.971  28.728  55.115  1.00  0.00     0.262 A 
HETATM    8  O   UNL     1       8.011  28.156  54.787  1.00  0.00    -0.267 OA
HETATM    9  N   UNL     1       5.757  28.479  54.478  1.00  0.00    -0.299 N 
HETATM   10  C   UNL     1       4.623  29.209  54.770  1.00  0.00     0.214 A 
HETATM   11  N   UNL     1       4.530  30.109  55.695  1.00  0.00    -0.235 NA
ENDROOT
BRANCH   3  12
HETATM   12  C   UNL     1       7.962  31.457  59.339  1.00  0.00     0.259 C 
HETATM   13  N   UNL     1       7.567  30.849  60.513  1.00  0.00    -0.354 N 
HETATM   14  H   UNL     1       6.787  30.203  60.480  1.00  0.00     0.162 HD
HETATM   15  O   UNL     1       8.819  32.339  59.354  1.00  0.00    -0.267 OA
BRANCH  13  16
HETATM   16  C   UNL     1       8.149  31.185  61.801  1.00  0.00     0.157 C 
BRANCH  16  17
HETATM   17  C   UNL     1       7.100  31.521  62.867  1.00  0.00     0.171 C 
HETATM   18  O   UNL     1       7.666  32.512  63.747  1.00  0.00    -0.339 OA
HETATM   19  C   UNL     1       6.706  33.091  64.535  1.00  0.00     0.102 A 
HETATM   20  C   UNL     1       5.337  33.009  64.261  1.00  0.00     0.102 A 
HETATM   21  C   UNL     1       7.153  33.801  65.647  1.00  0.00     0.039 A 
HETATM   22  O   UNL     1       4.826  32.353  63.171  1.00  0.00    -0.346 OA
HETATM   23  C   UNL     1       4.416  33.603  65.120  1.00  0.00     0.039 A 
HETATM   24  C   UNL     1       5.843  32.078  62.201  1.00  0.00     0.209 C 
HETATM   25  C   UNL     1       4.863  34.303  66.243  1.00  0.00     0.003 A 
HETATM   26  C   UNL     1       6.230  34.405  66.503  1.00  0.00     0.003 A 
ENDBRANCH  16  17
ENDBRANCH  13  16
ENDBRANCH   3  12
BRANCH   9  27
HETATM   27  C   UNL     1       5.695  27.395  53.516  1.00  0.00     0.236 C 
BRANCH  27  28
HETATM   28  C   UNL     1       5.923  26.049  54.195  1.00  0.00     0.240 C 
HETATM   29  N   UNL     1       7.098  25.436  53.795  1.00  0.00    -0.326 N 
HETATM   30  H   UNL     1       7.546  25.816  52.960  1.00  0.00     0.169 HD
HETATM   31  O   UNL     1       5.091  25.596  54.976  1.00  0.00    -0.271 OA
BRANCH  29  32
HETATM   32  C   UNL     1       7.696  24.290  54.354  1.00  0.00     0.035 A 
HETATM   33  C   UNL     1       7.734  23.047  53.717  1.00  0.00     0.045 A 
HETATM   34  C   UNL     1       8.302  21.929  54.354  1.00  0.00     0.050 A 
HETATM   35  C   UNL     1       8.846  22.078  55.639  1.00  0.00     0.016 A 
HETATM   36  C   UNL     1       8.813  23.315  56.277  1.00  0.00     0.003 A 
HETATM   37  C   UNL     1       8.235  24.413  55.639  1.00  0.00     0.029 A 
BRANCH  34  38
HETATM   38  C   UNL     1       8.327  20.578  53.682  1.00  0.00     0.417 C 
HETATM   39  F   UNL     1       7.237  20.325  52.907  1.00  0.00    -0.166 F 
HETATM   40  F   UNL     1       9.409  20.421  52.869  1.00  0.00    -0.166 F 
HETATM   41  F   UNL     1       8.387  19.555  54.581  1.00  0.00    -0.166 F 
ENDBRANCH  34  38
ENDBRANCH  29  32
ENDBRANCH  27  28
ENDBRANCH   9  27
TORSDOF 7
ENDMDL
MODEL 2
REMARK VINA RESULT:     -11.7      2.002      2.840
REMARK  7 active torsions:
REMARK  status: ('A' for Active; 'I' for Inactive)
REMARK    1  A    between atoms: C_3  and  C_4 
REMARK       I    between atoms: C_4  and  N_5 
REMARK    2  A    between atoms: N_5  and  C_6 
REMARK    3  A    between atoms: C_6  and  C_7 
REMARK    4  A    between atoms: N_23  and  C_24 
REMARK    5  A    between atoms: C_24  and  C_25 
REMARK       I    between atoms: C_25  and  N_26 
REMARK    6  A    between atoms: N_26  and  C_27 
REMARK    7  A    between atoms: C_29  and  C_30 
ROOT
HETATM    1  C   UNL     1       3.815  30.605  56.402  1.00  0.00     0.051 C 
HETATM    2  C   UNL     1       5.179  30.347  56.966  1.00  0.00    -0.021 C 
HETATM    3  C   UNL     1       5.730  31.026  58.054  1.00  0.00     0.081 C 
HETATM    4  S   UNL     1       7.264  30.380  58.482  1.00  0.00    -0.063 SA
HETATM    5  C   UNL     1       7.286  29.327  57.151  1.00  0.00     0.116 A 
HETATM    6  C   UNL     1       6.133  29.421  56.404  1.00  0.00     0.075 A 
HETATM    7  C   UNL     1       6.066  28.624  55.188  1.00  0.00     0.262 A 
HETATM    8  O   UNL     1       5.078  28.580  54.454  1.00  0.00    -0.267 OA
HETATM    9  N   UNL     1       7.230  27.913  54.907  1.00  0.00    -0.299 N 
HETATM   10  C   UNL     1       8.287  27.872  55.793  1.00  0.00     0.214 A 
HETATM   11  N   UNL     1       8.359  28.535  56.901  1.00  0.00    -0.235 NA
ENDROOT
BRANCH   3  12
HETATM   12  C   UNL     1       5.175  32.167  58.784  1.00  0.00     0.259 C 
HETATM   13  N   UNL     1       4.140  31.887  59.653  1.00  0.00    -0.354 N 
HETATM   14  H   UNL     1       3.740  30.956  59.637  1.00  0.00     0.162 HD
HETATM   15  O   UNL     1       5.605  33.315  58.680  1.00  0.00    -0.267 OA
BRANCH  13  16
HETATM   16  C   UNL     1       3.535  32.899  60.499  1.00  0.00     0.157 C 
BRANCH  16  17
HETATM   17  C   UNL     1       3.965  32.795  61.966  1.00  0.00     0.171 C 
HETATM   18  O   UNL     1       5.354  33.168  62.048  1.00  0.00    -0.339 OA
HETATM   19  C   UNL     1       5.738  33.399  63.344  1.00  0.00     0.102 A 
HETATM   20  C   UNL     1       4.829  33.612  64.385  1.00  0.00     0.102 A 
HETATM   21  C   UNL     1       7.108  33.429  63.596  1.00  0.00     0.039 A 
HETATM   22  O   UNL     1       3.470  33.625  64.207  1.00  0.00    -0.346 OA
HETATM   23  C   UNL     1       5.291  33.817  65.683  1.00  0.00     0.039 A 
HETATM   24  C   UNL     1       3.124  33.740  62.823  1.00  0.00     0.209 C 
HETATM   25  C   UNL     1       6.664  33.835  65.939  1.00  0.00     0.003 A 
HETATM   26  C   UNL     1       7.571  33.645  64.895  1.00  0.00     0.003 A 
ENDBRANCH  16  17
ENDBRANCH  13  16
ENDBRANCH   3  12
BRANCH   9  27
HETATM   27  C   UNL     1       7.330  27.237  53.626  1.00  0.00     0.236 C 
BRANCH  27  28
HETATM   28  C   UNL     1       6.934  25.770  53.752  1.00  0.00     0.240 C 
HETATM   29  N   UNL     1       8.000  24.906  53.567  1.00  0.00    -0.326 N 
HETATM   30  H   UNL     1       8.844  25.309  53.156  1.00  0.00     0.169 HD
HETATM   31  O   UNL     1       5.765  25.455  53.957  1.00  0.00    -0.271 OA
BRANCH  29  32
HETATM   32  C   UNL     1       8.022  23.517  53.794  1.00  0.00     0.035 A 
HETATM   33  C   UNL     1       8.158  22.940  55.059  1.00  0.00     0.045 A 
HETATM   34  C   UNL     1       8.225  21.543  55.211  1.00  0.00     0.050 A 
HETATM   35  C   UNL     1       8.142  20.728  54.072  1.00  0.00     0.016 A 
HETATM   36  C   UNL     1       8.003  21.297  52.809  1.00  0.00     0.003 A 
HETATM   37  C   UNL     1       7.951  22.685  52.671  1.00  0.00     0.029 A 
BRANCH  34  38
HETATM   38  C   UNL     1       8.394  20.915  56.572  1.00  0.00     0.417 C 
HETATM   39  F   UNL     1       9.559  20.228  56.725  1.00  0.00    -0.166 F 
HETATM   40  F   UNL     1       8.366  21.833  57.577  1.00  0.00    -0.166 F 
HETATM   41  F   UNL     1       7.400  20.024  56.856  1.00  0.00    -0.166 F 
ENDBRANCH  34  38
ENDBRANCH  29  32
ENDBRANCH  27  28
ENDBRANCH   9  27
TORSDOF 7
ENDMDL
MODEL 3
REMARK VINA RESULT:     -11.6      1.837      2.695
REMARK  7 active torsions:
REMARK  status: ('A' for Active; 'I' for Inactive)
REMARK    1  A    between atoms: C_3  and  C_4 
REMARK       I    between atoms: C_4  and  N_5 
REMARK    2  A    between atoms: N_5  and  C_6 
REMARK    3  A    between atoms: C_6  and  C_7 
REMARK    4  A    between atoms: N_23  and  C_24 
REMARK    5  A    between atoms: C_24  and  C_25 
REMARK       I    between atoms: C_25  and  N_26 
REMARK    6  A    between atoms: N_26  and  C_27 
REMARK    7  A    between atoms: C_29  and  C_30 
ROOT
HETATM    1  C   UNL     1       6.720  31.331  58.519  1.00  0.00     0.051 C 
HETATM    2  C   UNL     1       5.583  30.939  57.624  1.00  0.00    -0.021 C 
HETATM    3  C   UNL     1       4.248  31.284  57.840  1.00  0.00     0.081 C 
HETATM    4  S   UNL     1       3.249  30.754  56.545  1.00  0.00    -0.063 SA
HETATM    5  C   UNL     1       4.525  29.935  55.784  1.00  0.00     0.116 A 
HETATM    6  C   UNL     1       5.711  30.085  56.467  1.00  0.00     0.075 A 
HETATM    7  C   UNL     1       6.865  29.360  55.957  1.00  0.00     0.262 A 
HETATM    8  O   UNL     1       7.993  29.441  56.444  1.00  0.00    -0.267 OA
HETATM    9  N   UNL     1       6.589  28.544  54.863  1.00  0.00    -0.299 N 
HETATM   10  C   UNL     1       5.353  28.549  54.248  1.00  0.00     0.214 A 
HETATM   11  N   UNL     1       4.319  29.214  54.653  1.00  0.00    -0.235 NA
ENDROOT
BRANCH   3  12
HETATM   12  C   UNL     1       3.667  31.972  58.993  1.00  0.00     0.259 C 
HETATM   13  N   UNL     1       3.812  31.342  60.213  1.00  0.00    -0.354 N 
HETATM   14  H   UNL     1       4.182  30.399  60.223  1.00  0.00     0.162 HD
HETATM   15  O   UNL     1       3.108  33.066  58.922  1.00  0.00    -0.267 OA
BRANCH  13  16
HETATM   16  C   UNL     1       3.353  31.933  61.457  1.00  0.00     0.157 C 
BRANCH  16  17
HETATM   17  C   UNL     1       4.460  32.671  62.218  1.00  0.00     0.171 C 
HETATM   18  O   UNL     1       4.009  32.871  63.571  1.00  0.00    -0.339 OA
HETATM   19  C   UNL     1       5.039  33.243  64.396  1.00  0.00     0.102 A 
HETATM   20  C   UNL     1       6.386  33.081  64.058  1.00  0.00     0.102 A 
HETATM   21  C   UNL     1       4.690  33.792  65.627  1.00  0.00     0.039 A 
HETATM   22  O   UNL     1       6.805  32.522  62.878  1.00  0.00    -0.346 OA
HETATM   23  C   UNL     1       7.382  33.503  64.937  1.00  0.00     0.039 A 
HETATM   24  C   UNL     1       5.738  31.833  62.218  1.00  0.00     0.209 C 
HETATM   25  C   UNL     1       7.032  34.066  66.166  1.00  0.00     0.003 A 
HETATM   26  C   UNL     1       5.687  34.207  66.512  1.00  0.00     0.003 A 
ENDBRANCH  16  17
ENDBRANCH  13  16
ENDBRANCH   3  12
BRANCH   9  27
HETATM   27  C   UNL     1       7.627  27.643  54.397  1.00  0.00     0.236 C 
BRANCH  27  28
HETATM   28  C   UNL     1       7.274  26.194  54.715  1.00  0.00     0.240 C 
HETATM   29  N   UNL     1       7.859  25.292  53.842  1.00  0.00    -0.326 N 
HETATM   30  H   UNL     1       8.251  25.682  52.984  1.00  0.00     0.169 HD
HETATM   31  O   UNL     1       6.512  25.927  55.640  1.00  0.00    -0.271 OA
BRANCH  29  32
HETATM   32  C   UNL     1       7.891  23.890  53.958  1.00  0.00     0.035 A 
HETATM   33  C   UNL     1       8.069  23.216  55.169  1.00  0.00     0.045 A 
HETATM   34  C   UNL     1       8.144  21.812  55.208  1.00  0.00     0.050 A 
HETATM   35  C   UNL     1       8.025  21.088  54.012  1.00  0.00     0.016 A 
HETATM   36  C   UNL     1       7.845  21.755  52.802  1.00  0.00     0.003 A 
HETATM   37  C   UNL     1       7.784  23.148  52.776  1.00  0.00     0.029 A 
BRANCH  34  38
HETATM   38  C   UNL     1       8.357  21.079  56.509  1.00  0.00     0.417 C 
HETATM   39  F   UNL     1       7.408  20.141  56.779  1.00  0.00    -0.166 F 
HETATM   40  F   UNL     1       9.552  20.426  56.550  1.00  0.00    -0.166 F 
HETATM   41  F   UNL     1       8.359  21.921  57.582  1.00  0.00    -0.166 F 
ENDBRANCH  34  38
ENDBRANCH  29  32
ENDBRANCH  27  28
ENDBRANCH   9  27
TORSDOF 7
ENDMDL
MODEL 4
REMARK VINA RESULT:     -11.5      5.831     12.547
REMARK  7 active torsions:
REMARK  status: ('A' for Active; 'I' for Inactive)
REMARK    1  A    between atoms: C_3  and  C_4 
REMARK       I    between atoms: C_4  and  N_5 
REMARK    2  A    between atoms: N_5  and  C_6 
REMARK    3  A    between atoms: C_6  and  C_7 
REMARK    4  A    between atoms: N_23  and  C_24 
REMARK    5  A    between atoms: C_24  and  C_25 
REMARK       I    between atoms: C_25  and  N_26 
REMARK    6  A    between atoms: N_26  and  C_27 
REMARK    7  A    between atoms: C_29  and  C_30 
ROOT
HETATM    1  C   UNL     1       8.481  27.921  57.619  1.00  0.00     0.051 C 
HETATM    2  C   UNL     1       7.450  28.947  57.260  1.00  0.00    -0.021 C 
HETATM    3  C   UNL     1       6.701  28.942  56.083  1.00  0.00     0.081 C 
HETATM    4  S   UNL     1       5.542  30.211  56.074  1.00  0.00    -0.063 SA
HETATM    5  C   UNL     1       6.124  30.866  57.528  1.00  0.00     0.116 A 
HETATM    6  C   UNL     1       7.157  30.121  58.048  1.00  0.00     0.075 A 
HETATM    7  C   UNL     1       7.796  30.627  59.254  1.00  0.00     0.262 A 
HETATM    8  O   UNL     1       8.700  30.037  59.847  1.00  0.00    -0.267 OA
HETATM    9  N   UNL     1       7.307  31.858  59.686  1.00  0.00    -0.299 N 
HETATM   10  C   UNL     1       6.216  32.454  59.088  1.00  0.00     0.214 A 
HETATM   11  N   UNL     1       5.600  32.008  58.041  1.00  0.00    -0.235 NA
ENDROOT
BRANCH   3  12
HETATM   12  C   UNL     1       6.827  28.044  54.934  1.00  0.00     0.259 C 
HETATM   13  N   UNL     1       6.137  26.851  55.017  1.00  0.00    -0.354 N 
HETATM   14  H   UNL     1       5.705  26.609  55.901  1.00  0.00     0.162 HD
HETATM   15  O   UNL     1       7.471  28.319  53.922  1.00  0.00    -0.267 OA
BRANCH  13  16
HETATM   16  C   UNL     1       6.106  25.890  53.930  1.00  0.00     0.157 C 
BRANCH  16  17
HETATM   17  C   UNL     1       6.341  24.448  54.393  1.00  0.00     0.171 C 
HETATM   18  O   UNL     1       7.033  23.751  53.339  1.00  0.00    -0.339 OA
HETATM   19  C   UNL     1       7.551  22.561  53.778  1.00  0.00     0.102 A 
HETATM   20  C   UNL     1       7.715  22.249  55.131  1.00  0.00     0.102 A 
HETATM   21  C   UNL     1       7.936  21.646  52.800  1.00  0.00     0.039 A 
HETATM   22  O   UNL     1       7.386  23.110  56.147  1.00  0.00    -0.346 OA
HETATM   23  C   UNL     1       8.228  21.009  55.504  1.00  0.00     0.039 A 
HETATM   24  C   UNL     1       7.193  24.443  55.661  1.00  0.00     0.209 C 
HETATM   25  C   UNL     1       8.601  20.087  54.525  1.00  0.00     0.003 A 
HETATM   26  C   UNL     1       8.459  20.407  53.174  1.00  0.00     0.003 A 
ENDBRANCH  16  17
ENDBRANCH  13  16
ENDBRANCH   3  12
BRANCH   9  27
HETATM   27  C   UNL     1       8.001  32.532  60.767  1.00  0.00     0.236 C 
BRANCH  27  28
HETATM   28  C   UNL     1       7.191  32.469  62.058  1.00  0.00     0.240 C 
HETATM   29  N   UNL     1       6.783  33.715  62.500  1.00  0.00    -0.326 N 
HETATM   30  H   UNL     1       7.241  34.521  62.070  1.00  0.00     0.169 HD
HETATM   31  O   UNL     1       6.992  31.394  62.616  1.00  0.00    -0.271 OA
BRANCH  29  32
HETATM   32  C   UNL     1       5.878  33.998  63.541  1.00  0.00     0.035 A 
HETATM   33  C   UNL     1       6.251  34.118  64.882  1.00  0.00     0.045 A 
HETATM   34  C   UNL     1       5.287  34.350  65.879  1.00  0.00     0.050 A 
HETATM   35  C   UNL     1       3.940  34.474  65.511  1.00  0.00     0.016 A 
HETATM   36  C   UNL     1       3.562  34.358  64.176  1.00  0.00     0.003 A 
HETATM   37  C   UNL     1       4.527  34.115  63.197  1.00  0.00     0.029 A 
BRANCH  34  38
HETATM   38  C   UNL     1       5.680  34.459  67.332  1.00  0.00     0.417 C 
HETATM   39  F   UNL     1       4.947  33.670  68.165  1.00  0.00    -0.166 F 
HETATM   40  F   UNL     1       6.983  34.121  67.546  1.00  0.00    -0.166 F 
HETATM   41  F   UNL     1       5.544  35.729  67.810  1.00  0.00    -0.166 F 
ENDBRANCH  34  38
ENDBRANCH  29  32
ENDBRANCH  27  28
ENDBRANCH   9  27
TORSDOF 7
ENDMDL
MODEL 5
REMARK VINA RESULT:     -11.2      5.868     12.279
REMARK  7 active torsions:
REMARK  status: ('A' for Active; 'I' for Inactive)
REMARK    1  A    between atoms: C_3  and  C_4 
REMARK       I    between atoms: C_4  and  N_5 
REMARK    2  A    between atoms: N_5  and  C_6 
REMARK    3  A    between atoms: C_6  and  C_7 
REMARK    4  A    between atoms: N_23  and  C_24 
REMARK    5  A    between atoms: C_24  and  C_25 
REMARK       I    between atoms: C_25  and  N_26 
REMARK    6  A    between atoms: N_26  and  C_27 
REMARK    7  A    between atoms: C_29  and  C_30 
ROOT
HETATM    1  C   UNL     1       4.020  29.790  54.907  1.00  0.00     0.051 C 
HETATM    2  C   UNL     1       5.253  29.848  55.758  1.00  0.00    -0.021 C 
HETATM    3  C   UNL     1       6.428  29.141  55.502  1.00  0.00     0.081 C 
HETATM    4  S   UNL     1       7.660  29.547  56.630  1.00  0.00    -0.063 SA
HETATM    5  C   UNL     1       6.615  30.519  57.548  1.00  0.00     0.116 A 
HETATM    6  C   UNL     1       5.355  30.579  56.998  1.00  0.00     0.075 A 
HETATM    7  C   UNL     1       4.344  31.319  57.740  1.00  0.00     0.262 A 
HETATM    8  O   UNL     1       3.192  31.489  57.340  1.00  0.00    -0.267 OA
HETATM    9  N   UNL     1       4.784  31.817  58.964  1.00  0.00    -0.299 N 
HETATM   10  C   UNL     1       6.106  31.727  59.350  1.00  0.00     0.214 A 
HETATM   11  N   UNL     1       7.036  31.112  58.694  1.00  0.00    -0.235 NA
ENDROOT
BRANCH   3  12
HETATM   12  C   UNL     1       6.674  28.140  54.462  1.00  0.00     0.259 C 
HETATM   13  N   UNL     1       6.058  26.918  54.638  1.00  0.00    -0.354 N 
HETATM   14  H   UNL     1       5.594  26.738  55.521  1.00  0.00     0.162 HD
HETATM   15  O   UNL     1       7.352  28.355  53.458  1.00  0.00    -0.267 OA
BRANCH  13  16
HETATM   16  C   UNL     1       6.147  25.850  53.659  1.00  0.00     0.157 C 
BRANCH  16  17
HETATM   17  C   UNL     1       6.375  24.472  54.288  1.00  0.00     0.171 C 
HETATM   18  O   UNL     1       7.046  23.647  53.317  1.00  0.00    -0.339 OA
HETATM   19  C   UNL     1       7.560  22.512  53.889  1.00  0.00     0.102 A 
HETATM   20  C   UNL     1       7.737  22.362  55.268  1.00  0.00     0.102 A 
HETATM   21  C   UNL     1       7.924  21.483  53.023  1.00  0.00     0.039 A 
HETATM   22  O   UNL     1       7.429  23.341  56.177  1.00  0.00    -0.346 OA
HETATM   23  C   UNL     1       8.244  21.170  55.781  1.00  0.00     0.039 A 
HETATM   24  C   UNL     1       7.242  24.609  55.538  1.00  0.00     0.209 C 
HETATM   25  C   UNL     1       8.596  20.134  54.915  1.00  0.00     0.003 A 
HETATM   26  C   UNL     1       8.440  20.292  53.537  1.00  0.00     0.003 A 
ENDBRANCH  16  17
ENDBRANCH  13  16
ENDBRANCH   3  12
BRANCH   9  27
HETATM   27  C   UNL     1       3.805  32.407  59.858  1.00  0.00     0.236 C 
BRANCH  27  28
HETATM   28  C   UNL     1       4.487  33.217  60.955  1.00  0.00     0.240 C 
HETATM   29  N   UNL     1       4.780  32.464  62.079  1.00  0.00    -0.326 N 
HETATM   30  H   UNL     1       4.323  31.553  62.146  1.00  0.00     0.169 HD
HETATM   31  O   UNL     1       4.690  34.419  60.807  1.00  0.00    -0.271 OA
BRANCH  29  32
HETATM   32  C   UNL     1       5.562  32.849  63.184  1.00  0.00     0.035 A 
HETATM   33  C   UNL     1       5.033  33.404  64.353  1.00  0.00     0.045 A 
HETATM   34  C   UNL     1       5.877  33.815  65.400  1.00  0.00     0.050 A 
HETATM   35  C   UNL     1       7.263  33.650  65.266  1.00  0.00     0.016 A 
HETATM   36  C   UNL     1       7.796  33.095  64.104  1.00  0.00     0.003 A 
HETATM   37  C   UNL     1       6.949  32.703  63.067  1.00  0.00     0.029 A 
BRANCH  34  38
HETATM   38  C   UNL     1       5.314  34.435  66.656  1.00  0.00     0.417 C 
HETATM   39  F   UNL     1       6.219  34.561  67.665  1.00  0.00    -0.166 F 
HETATM   40  F   UNL     1       4.815  35.684  66.442  1.00  0.00    -0.166 F 
HETATM   41  F   UNL     1       4.283  33.707  67.174  1.00  0.00    -0.166 F 
ENDBRANCH  34  38
ENDBRANCH  29  32
ENDBRANCH  27  28
ENDBRANCH   9  27
TORSDOF 7
ENDMDL
MODEL 6
REMARK VINA RESULT:     -11.0      5.877     12.628
REMARK  7 active torsions:
REMARK  status: ('A' for Active; 'I' for Inactive)
REMARK    1  A    between atoms: C_3  and  C_4 
REMARK       I    between atoms: C_4  and  N_5 
REMARK    2  A    between atoms: N_5  and  C_6 
REMARK    3  A    between atoms: C_6  and  C_7 
REMARK    4  A    between atoms: N_23  and  C_24 
REMARK    5  A    between atoms: C_24  and  C_25 
REMARK       I    between atoms: C_25  and  N_26 
REMARK    6  A    between atoms: N_26  and  C_27 
REMARK    7  A    between atoms: C_29  and  C_30 
ROOT
HETATM    1  C   UNL     1       5.140  30.840  56.340  1.00  0.00     0.051 C 
HETATM    2  C   UNL     1       6.177  30.028  57.055  1.00  0.00    -0.021 C 
HETATM    3  C   UNL     1       6.419  28.673  56.827  1.00  0.00     0.081 C 
HETATM    4  S   UNL     1       7.756  28.113  57.751  1.00  0.00    -0.063 SA
HETATM    5  C   UNL     1       7.917  29.591  58.570  1.00  0.00     0.116 A 
HETATM    6  C   UNL     1       7.002  30.522  58.131  1.00  0.00     0.075 A 
HETATM    7  C   UNL     1       6.986  31.807  58.815  1.00  0.00     0.262 A 
HETATM    8  O   UNL     1       6.252  32.742  58.494  1.00  0.00    -0.267 OA
HETATM    9  N   UNL     1       7.872  31.894  59.887  1.00  0.00    -0.299 N 
HETATM   10  C   UNL     1       8.775  30.889  60.165  1.00  0.00     0.214 A 
HETATM   11  N   UNL     1       8.842  29.753  59.549  1.00  0.00    -0.235 NA
ENDROOT
BRANCH   3  12
HETATM   12  C   UNL     1       5.675  27.753  55.965  1.00  0.00     0.259 C 
HETATM   13  N   UNL     1       6.429  27.004  55.084  1.00  0.00    -0.354 N 
HETATM   14  H   UNL     1       7.414  27.224  54.989  1.00  0.00     0.162 HD
HETATM   15  O   UNL     1       4.455  27.604  56.021  1.00  0.00    -0.267 OA
BRANCH  13  16
HETATM   16  C   UNL     1       5.844  25.998  54.216  1.00  0.00     0.157 C 
BRANCH  16  17
HETATM   17  C   UNL     1       6.176  24.564  54.645  1.00  0.00     0.171 C 
HETATM   18  O   UNL     1       6.842  23.915  53.545  1.00  0.00    -0.339 OA
HETATM   19  C   UNL     1       7.443  22.748  53.938  1.00  0.00     0.102 A 
HETATM   20  C   UNL     1       7.695  22.429  55.276  1.00  0.00     0.102 A 
HETATM   21  C   UNL     1       7.818  21.865  52.928  1.00  0.00     0.039 A 
HETATM   22  O   UNL     1       7.380  23.260  56.320  1.00  0.00    -0.346 OA
HETATM   23  C   UNL     1       8.288  21.212  55.604  1.00  0.00     0.039 A 
HETATM   24  C   UNL     1       7.095  24.587  55.865  1.00  0.00     0.209 C 
HETATM   25  C   UNL     1       8.653  20.321  54.592  1.00  0.00     0.003 A 
HETATM   26  C   UNL     1       8.422  20.649  53.255  1.00  0.00     0.003 A 
ENDBRANCH  16  17
ENDBRANCH  13  16
ENDBRANCH   3  12
BRANCH   9  27
HETATM   27  C   UNL     1       7.800  33.063  60.744  1.00  0.00     0.236 C 
BRANCH  27  28
HETATM   28  C   UNL     1       6.828  32.835  61.897  1.00  0.00     0.240 C 
HETATM   29  N   UNL     1       6.696  33.941  62.718  1.00  0.00    -0.326 N 
HETATM   30  H   UNL     1       7.400  34.673  62.609  1.00  0.00     0.169 HD
HETATM   31  O   UNL     1       6.284  31.745  62.046  1.00  0.00    -0.271 OA
BRANCH  29  32
HETATM   32  C   UNL     1       5.758  34.132  63.750  1.00  0.00     0.035 A 
HETATM   33  C   UNL     1       6.094  34.183  65.105  1.00  0.00     0.045 A 
HETATM   34  C   UNL     1       5.099  34.324  66.089  1.00  0.00     0.050 A 
HETATM   35  C   UNL     1       3.757  34.426  65.694  1.00  0.00     0.016 A 
HETATM   36  C   UNL     1       3.416  34.379  64.345  1.00  0.00     0.003 A 
HETATM   37  C   UNL     1       4.411  34.226  63.379  1.00  0.00     0.029 A 
BRANCH  34  38
HETATM   38  C   UNL     1       5.454  34.359  67.555  1.00  0.00     0.417 C 
HETATM   39  F   UNL     1       5.381  35.598  68.114  1.00  0.00    -0.166 F 
HETATM   40  F   UNL     1       4.644  33.561  68.306  1.00  0.00    -0.166 F 
HETATM   41  F   UNL     1       6.725  33.922  67.790  1.00  0.00    -0.166 F 
ENDBRANCH  34  38
ENDBRANCH  29  32
ENDBRANCH  27  28
ENDBRANCH   9  27
TORSDOF 7
ENDMDL
MODEL 7
REMARK VINA RESULT:     -10.6      4.342     10.868
REMARK  7 active torsions:
REMARK  status: ('A' for Active; 'I' for Inactive)
REMARK    1  A    between atoms: C_3  and  C_4 
REMARK       I    between atoms: C_4  and  N_5 
REMARK    2  A    between atoms: N_5  and  C_6 
REMARK    3  A    between atoms: C_6  and  C_7 
REMARK    4  A    between atoms: N_23  and  C_24 
REMARK    5  A    between atoms: C_24  and  C_25 
REMARK       I    between atoms: C_25  and  N_26 
REMARK    6  A    between atoms: N_26  and  C_27 
REMARK    7  A    between atoms: C_29  and  C_30 
ROOT
HETATM    1  C   UNL     1       4.838  27.705  56.611  1.00  0.00     0.051 C 
HETATM    2  C   UNL     1       4.541  28.767  55.596  1.00  0.00    -0.021 C 
HETATM    3  C   UNL     1       4.741  28.630  54.222  1.00  0.00     0.081 C 
HETATM    4  S   UNL     1       4.181  30.013  53.368  1.00  0.00    -0.063 SA
HETATM    5  C   UNL     1       3.829  30.857  54.798  1.00  0.00     0.116 A 
HETATM    6  C   UNL     1       4.088  30.099  55.918  1.00  0.00     0.075 A 
HETATM    7  C   UNL     1       3.903  30.743  57.210  1.00  0.00     0.262 A 
HETATM    8  O   UNL     1       4.055  30.168  58.288  1.00  0.00    -0.267 OA
HETATM    9  N   UNL     1       3.546  32.088  57.132  1.00  0.00    -0.299 N 
HETATM   10  C   UNL     1       3.260  32.693  55.925  1.00  0.00     0.214 A 
HETATM   11  N   UNL     1       3.375  32.135  54.763  1.00  0.00    -0.235 NA
ENDROOT
BRANCH   3  12
HETATM   12  C   UNL     1       5.364  27.516  53.505  1.00  0.00     0.259 C 
HETATM   13  N   UNL     1       6.718  27.345  53.710  1.00  0.00    -0.354 N 
HETATM   14  H   UNL     1       7.220  28.062  54.222  1.00  0.00     0.162 HD
HETATM   15  O   UNL     1       4.741  26.738  52.784  1.00  0.00    -0.267 OA
BRANCH  13  16
HETATM   16  C   UNL     1       7.463  26.244  53.126  1.00  0.00     0.157 C 
BRANCH  16  17
HETATM   17  C   UNL     1       7.185  24.900  53.808  1.00  0.00     0.171 C 
HETATM   18  O   UNL     1       7.890  23.878  53.077  1.00  0.00    -0.339 OA
HETATM   19  C   UNL     1       7.950  22.705  53.782  1.00  0.00     0.102 A 
HETATM   20  C   UNL     1       7.701  22.623  55.156  1.00  0.00     0.102 A 
HETATM   21  C   UNL     1       8.293  21.559  53.067  1.00  0.00     0.039 A 
HETATM   22  O   UNL     1       7.387  23.711  55.930  1.00  0.00    -0.346 OA
HETATM   23  C   UNL     1       7.757  21.391  55.804  1.00  0.00     0.039 A 
HETATM   24  C   UNL     1       7.680  24.937  55.252  1.00  0.00     0.209 C 
HETATM   25  C   UNL     1       8.087  20.241  55.084  1.00  0.00     0.003 A 
HETATM   26  C   UNL     1       8.359  20.326  53.718  1.00  0.00     0.003 A 
ENDBRANCH  16  17
ENDBRANCH  13  16
ENDBRANCH   3  12
BRANCH   9  27
HETATM   27  C   UNL     1       3.518  32.864  58.358  1.00  0.00     0.236 C 
BRANCH  27  28
HETATM   28  C   UNL     1       4.908  32.951  58.979  1.00  0.00     0.240 C 
HETATM   29  N   UNL     1       4.890  32.838  60.359  1.00  0.00    -0.326 N 
HETATM   30  H   UNL     1       3.979  32.938  60.810  1.00  0.00     0.169 HD
HETATM   31  O   UNL     1       5.894  33.143  58.274  1.00  0.00    -0.271 OA
BRANCH  29  32
HETATM   32  C   UNL     1       5.995  32.693  61.218  1.00  0.00     0.035 A 
HETATM   33  C   UNL     1       7.145  31.971  60.888  1.00  0.00     0.045 A 
HETATM   34  C   UNL     1       8.193  31.822  61.814  1.00  0.00     0.050 A 
HETATM   35  C   UNL     1       8.078  32.421  63.077  1.00  0.00     0.016 A 
HETATM   36  C   UNL     1       6.936  33.144  63.411  1.00  0.00     0.003 A 
HETATM   37  C   UNL     1       5.898  33.274  62.488  1.00  0.00     0.029 A 
BRANCH  34  38
HETATM   38  C   UNL     1       9.427  31.025  61.472  1.00  0.00     0.417 C 
HETATM   39  F   UNL     1      10.588  31.729  61.577  1.00  0.00    -0.166 F 
HETATM   40  F   UNL     1       9.579  29.931  62.268  1.00  0.00    -0.166 F 
HETATM   41  F   UNL     1       9.398  30.551  60.193  1.00  0.00    -0.166 F 
ENDBRANCH  34  38
ENDBRANCH  29  32
ENDBRANCH  27  28
ENDBRANCH   9  27
TORSDOF 7
ENDMDL
MODEL 8
REMARK VINA RESULT:     -10.4      6.007     12.673
REMARK  7 active torsions:
REMARK  status: ('A' for Active; 'I' for Inactive)
REMARK    1  A    between atoms: C_3  and  C_4 
REMARK       I    between atoms: C_4  and  N_5 
REMARK    2  A    between atoms: N_5  and  C_6 
REMARK    3  A    between atoms: C_6  and  C_7 
REMARK    4  A    between atoms: N_23  and  C_24 
REMARK    5  A    between atoms: C_24  and  C_25 
REMARK       I    between atoms: C_25  and  N_26 
REMARK    6  A    between atoms: N_26  and  C_27 
REMARK    7  A    between atoms: C_29  and  C_30 
ROOT
HETATM    1  C   UNL     1       4.890  30.691  57.201  1.00  0.00     0.051 C 
HETATM    2  C   UNL     1       6.182  30.030  57.576  1.00  0.00    -0.021 C 
HETATM    3  C   UNL     1       6.561  28.747  57.180  1.00  0.00     0.081 C 
HETATM    4  S   UNL     1       8.154  28.375  57.708  1.00  0.00    -0.063 SA
HETATM    5  C   UNL     1       8.288  29.818  58.591  1.00  0.00     0.116 A 
HETATM    6  C   UNL     1       7.165  30.603  58.464  1.00  0.00     0.075 A 
HETATM    7  C   UNL     1       7.126  31.833  59.242  1.00  0.00     0.262 A 
HETATM    8  O   UNL     1       6.203  32.647  59.188  1.00  0.00    -0.267 OA
HETATM    9  N   UNL     1       8.226  32.016  60.077  1.00  0.00    -0.299 N 
HETATM   10  C   UNL     1       9.310  31.163  60.044  1.00  0.00     0.214 A 
HETATM   11  N   UNL     1       9.393  30.085  59.333  1.00  0.00    -0.235 NA
ENDROOT
BRANCH   3  12
HETATM   12  C   UNL     1       5.773  27.758  56.441  1.00  0.00     0.259 C 
HETATM   13  N   UNL     1       6.490  26.852  55.687  1.00  0.00    -0.354 N 
HETATM   14  H   UNL     1       7.487  27.001  55.579  1.00  0.00     0.162 HD
HETATM   15  O   UNL     1       4.546  27.687  56.497  1.00  0.00    -0.267 OA
BRANCH  13  16
HETATM   16  C   UNL     1       5.856  25.768  54.958  1.00  0.00     0.157 C 
BRANCH  16  17
HETATM   17  C   UNL     1       6.851  24.714  54.460  1.00  0.00     0.171 C 
HETATM   18  O   UNL     1       6.812  23.601  55.374  1.00  0.00    -0.339 OA
HETATM   19  C   UNL     1       7.431  22.497  54.850  1.00  0.00     0.102 A 
HETATM   20  C   UNL     1       7.720  22.354  53.489  1.00  0.00     0.102 A 
HETATM   21  C   UNL     1       7.762  21.480  55.743  1.00  0.00     0.039 A 
HETATM   22  O   UNL     1       7.398  23.299  52.548  1.00  0.00    -0.346 OA
HETATM   23  C   UNL     1       8.373  21.213  53.030  1.00  0.00     0.039 A 
HETATM   24  C   UNL     1       6.455  24.247  53.060  1.00  0.00     0.209 C 
HETATM   25  C   UNL     1       8.717  20.200  53.927  1.00  0.00     0.003 A 
HETATM   26  C   UNL     1       8.408  20.332  55.282  1.00  0.00     0.003 A 
ENDBRANCH  16  17
ENDBRANCH  13  16
ENDBRANCH   3  12
BRANCH   9  27
HETATM   27  C   UNL     1       8.194  33.114  61.025  1.00  0.00     0.236 C 
BRANCH  27  28
HETATM   28  C   UNL     1       7.071  32.926  62.039  1.00  0.00     0.240 C 
HETATM   29  N   UNL     1       6.307  34.067  62.215  1.00  0.00    -0.326 N 
HETATM   30  H   UNL     1       6.697  34.935  61.845  1.00  0.00     0.169 HD
HETATM   31  O   UNL     1       6.940  31.859  62.632  1.00  0.00    -0.271 OA
BRANCH  29  32
HETATM   32  C   UNL     1       5.098  34.183  62.927  1.00  0.00     0.035 A 
HETATM   33  C   UNL     1       5.018  34.615  64.253  1.00  0.00     0.045 A 
HETATM   34  C   UNL     1       3.782  34.658  64.923  1.00  0.00     0.050 A 
HETATM   35  C   UNL     1       2.620  34.274  64.238  1.00  0.00     0.016 A 
HETATM   36  C   UNL     1       2.693  33.845  62.915  1.00  0.00     0.003 A 
HETATM   37  C   UNL     1       3.927  33.794  62.266  1.00  0.00     0.029 A 
BRANCH  34  38
HETATM   38  C   UNL     1       3.691  35.103  66.362  1.00  0.00     0.417 C 
HETATM   39  F   UNL     1       2.416  35.271  66.811  1.00  0.00    -0.166 F 
HETATM   40  F   UNL     1       4.276  34.220  67.218  1.00  0.00    -0.166 F 
HETATM   41  F   UNL     1       4.317  36.296  66.575  1.00  0.00    -0.166 F 
ENDBRANCH  34  38
ENDBRANCH  29  32
ENDBRANCH  27  28
ENDBRANCH   9  27
TORSDOF 7
ENDMDL
MODEL 9
REMARK VINA RESULT:     -10.3      2.002      2.665
REMARK  7 active torsions:
REMARK  status: ('A' for Active; 'I' for Inactive)
REMARK    1  A    between atoms: C_3  and  C_4 
REMARK       I    between atoms: C_4  and  N_5 
REMARK    2  A    between atoms: N_5  and  C_6 
REMARK    3  A    between atoms: C_6  and  C_7 
REMARK    4  A    between atoms: N_23  and  C_24 
REMARK    5  A    between atoms: C_24  and  C_25 
REMARK       I    between atoms: C_25  and  N_26 
REMARK    6  A    between atoms: N_26  and  C_27 
REMARK    7  A    between atoms: C_29  and  C_30 
ROOT
HETATM    1  C   UNL     1       5.689  31.173  58.857  1.00  0.00     0.051 C 
HETATM    2  C   UNL     1       7.038  30.644  58.473  1.00  0.00    -0.021 C 
HETATM    3  C   UNL     1       8.230  30.964  59.125  1.00  0.00     0.081 C 
HETATM    4  S   UNL     1       9.553  30.081  58.475  1.00  0.00    -0.063 SA
HETATM    5  C   UNL     1       8.605  29.406  57.240  1.00  0.00     0.116 A 
HETATM    6  C   UNL     1       7.290  29.802  57.329  1.00  0.00     0.075 A 
HETATM    7  C   UNL     1       6.391  29.352  56.276  1.00  0.00     0.262 A 
HETATM    8  O   UNL     1       5.184  29.596  56.258  1.00  0.00    -0.267 OA
HETATM    9  N   UNL     1       7.014  28.624  55.266  1.00  0.00    -0.299 N 
HETATM   10  C   UNL     1       8.341  28.252  55.352  1.00  0.00     0.214 A 
HETATM   11  N   UNL     1       9.155  28.601  56.296  1.00  0.00    -0.235 NA
ENDROOT
BRANCH   3  12
HETATM   12  C   UNL     1       8.440  31.932  60.204  1.00  0.00     0.259 C 
HETATM   13  N   UNL     1       8.148  31.491  61.479  1.00  0.00    -0.354 N 
HETATM   14  H   UNL     1       7.687  30.595  61.582  1.00  0.00     0.162 HD
HETATM   15  O   UNL     1       8.885  33.065  60.024  1.00  0.00    -0.267 OA
BRANCH  13  16
HETATM   16  C   UNL     1       8.373  32.308  62.658  1.00  0.00     0.157 C 
BRANCH  16  17
HETATM   17  C   UNL     1       7.084  32.911  63.228  1.00  0.00     0.171 C 
HETATM   18  O   UNL     1       6.850  34.167  62.562  1.00  0.00    -0.339 OA
HETATM   19  C   UNL     1       5.577  34.624  62.783  1.00  0.00     0.102 A 
HETATM   20  C   UNL     1       4.544  33.812  63.261  1.00  0.00     0.102 A 
HETATM   21  C   UNL     1       5.333  35.964  62.491  1.00  0.00     0.039 A 
HETATM   22  O   UNL     1       4.703  32.479  63.542  1.00  0.00    -0.346 OA
HETATM   23  C   UNL     1       3.279  34.351  63.484  1.00  0.00     0.039 A 
HETATM   24  C   UNL     1       5.912  31.965  62.974  1.00  0.00     0.209 C 
HETATM   25  C   UNL     1       3.037  35.698  63.205  1.00  0.00     0.003 A 
HETATM   26  C   UNL     1       4.063  36.502  62.705  1.00  0.00     0.003 A 
ENDBRANCH  16  17
ENDBRANCH  13  16
ENDBRANCH   3  12
BRANCH   9  27
HETATM   27  C   UNL     1       6.243  28.290  54.083  1.00  0.00     0.236 C 
BRANCH  27  28
HETATM   28  C   UNL     1       6.107  26.780  53.928  1.00  0.00     0.240 C 
HETATM   29  N   UNL     1       7.326  26.139  53.793  1.00  0.00    -0.326 N 
HETATM   30  H   UNL     1       8.130  26.734  53.585  1.00  0.00     0.169 HD
HETATM   31  O   UNL     1       4.998  26.255  53.896  1.00  0.00    -0.271 OA
BRANCH  29  32
HETATM   32  C   UNL     1       7.570  24.753  53.816  1.00  0.00     0.035 A 
HETATM   33  C   UNL     1       7.721  24.011  54.990  1.00  0.00     0.045 A 
HETATM   34  C   UNL     1       8.015  22.637  54.942  1.00  0.00     0.050 A 
HETATM   35  C   UNL     1       8.142  22.009  53.694  1.00  0.00     0.016 A 
HETATM   36  C   UNL     1       7.990  22.743  52.519  1.00  0.00     0.003 A 
HETATM   37  C   UNL     1       7.711  24.108  52.582  1.00  0.00     0.029 A 
BRANCH  34  38
HETATM   38  C   UNL     1       8.201  21.835  56.206  1.00  0.00     0.417 C 
HETATM   39  F   UNL     1       7.282  20.845  56.375  1.00  0.00    -0.166 F 
HETATM   40  F   UNL     1       9.419  21.228  56.264  1.00  0.00    -0.166 F 
HETATM   41  F   UNL     1       8.119  22.610  57.326  1.00  0.00    -0.166 F 
ENDBRANCH  34  38
ENDBRANCH  29  32
ENDBRANCH  27  28
ENDBRANCH   9  27
TORSDOF 7
ENDMDL
MODEL 10
REMARK VINA RESULT:     -10.3      2.615      3.410
REMARK  7 active torsions:
REMARK  status: ('A' for Active; 'I' for Inactive)
REMARK    1  A    between atoms: C_3  and  C_4 
REMARK       I    between atoms: C_4  and  N_5 
REMARK    2  A    between atoms: N_5  and  C_6 
REMARK    3  A    between atoms: C_6  and  C_7 
REMARK    4  A    between atoms: N_23  and  C_24 
REMARK    5  A    between atoms: C_24  and  C_25 
REMARK       I    between atoms: C_25  and  N_26 
REMARK    6  A    between atoms: N_26  and  C_27 
REMARK    7  A    between atoms: C_29  and  C_30 
ROOT
HETATM    1  C   UNL     1       3.913  30.823  58.288  1.00  0.00     0.051 C 
HETATM    2  C   UNL     1       3.855  31.511  56.957  1.00  0.00    -0.021 C 
HETATM    3  C   UNL     1       3.576  32.866  56.776  1.00  0.00     0.081 C 
HETATM    4  S   UNL     1       3.708  33.315  55.122  1.00  0.00    -0.063 SA
HETATM    5  C   UNL     1       3.967  31.714  54.621  1.00  0.00     0.116 A 
HETATM    6  C   UNL     1       3.997  30.842  55.686  1.00  0.00     0.075 A 
HETATM    7  C   UNL     1       4.132  29.426  55.378  1.00  0.00     0.262 A 
HETATM    8  O   UNL     1       4.218  28.546  56.235  1.00  0.00    -0.267 OA
HETATM    9  N   UNL     1       4.144  29.137  54.016  1.00  0.00    -0.299 N 
HETATM   10  C   UNL     1       4.169  30.135  53.063  1.00  0.00     0.214 A 
HETATM   11  N   UNL     1       4.092  31.403  53.306  1.00  0.00    -0.235 NA
ENDROOT
BRANCH   3  12
HETATM   12  C   UNL     1       3.182  33.852  57.784  1.00  0.00     0.259 C 
HETATM   13  N   UNL     1       4.129  34.152  58.742  1.00  0.00    -0.354 N 
HETATM   14  H   UNL     1       4.971  33.588  58.776  1.00  0.00     0.162 HD
HETATM   15  O   UNL     1       2.094  34.426  57.785  1.00  0.00    -0.267 OA
BRANCH  13  16
HETATM   16  C   UNL     1       3.914  35.160  59.764  1.00  0.00     0.157 C 
BRANCH  16  17
HETATM   17  C   UNL     1       4.392  34.723  61.153  1.00  0.00     0.171 C 
HETATM   18  O   UNL     1       5.567  33.907  60.980  1.00  0.00    -0.339 OA
HETATM   19  C   UNL     1       6.234  33.728  62.164  1.00  0.00     0.102 A 
HETATM   20  C   UNL     1       6.021  34.527  63.292  1.00  0.00     0.102 A 
HETATM   21  C   UNL     1       7.173  32.699  62.206  1.00  0.00     0.039 A 
HETATM   22  O   UNL     1       5.136  35.574  63.316  1.00  0.00    -0.346 OA
HETATM   23  C   UNL     1       6.719  34.272  64.470  1.00  0.00     0.039 A 
HETATM   24  C   UNL     1       4.735  35.951  61.994  1.00  0.00     0.209 C 
HETATM   25  C   UNL     1       7.650  33.232  64.516  1.00  0.00     0.003 A 
HETATM   26  C   UNL     1       7.879  32.450  63.383  1.00  0.00     0.003 A 
ENDBRANCH  16  17
ENDBRANCH  13  16
ENDBRANCH   3  12
BRANCH   9  27
HETATM   27  C   UNL     1       4.088  27.745  53.608  1.00  0.00     0.236 C 
BRANCH  27  28
HETATM   28  C   UNL     1       5.409  27.040  53.896  1.00  0.00     0.240 C 
HETATM   29  N   UNL     1       5.267  25.952  54.740  1.00  0.00    -0.326 N 
HETATM   30  H   UNL     1       4.380  25.880  55.242  1.00  0.00     0.169 HD
HETATM   31  O   UNL     1       6.459  27.469  53.427  1.00  0.00    -0.271 OA
BRANCH  29  32
HETATM   32  C   UNL     1       6.239  24.984  55.057  1.00  0.00     0.035 A 
HETATM   33  C   UNL     1       6.679  24.005  54.163  1.00  0.00     0.045 A 
HETATM   34  C   UNL     1       7.616  23.034  54.560  1.00  0.00     0.050 A 
HETATM   35  C   UNL     1       8.119  23.067  55.869  1.00  0.00     0.016 A 
HETATM   36  C   UNL     1       7.687  24.043  56.764  1.00  0.00     0.003 A 
HETATM   37  C   UNL     1       6.747  24.992  56.361  1.00  0.00     0.029 A 
BRANCH  34  38
HETATM   38  C   UNL     1       8.078  21.961  53.606  1.00  0.00     0.417 C 
HETATM   39  F   UNL     1       7.407  20.783  53.729  1.00  0.00    -0.166 F 
HETATM   40  F   UNL     1       7.948  22.331  52.302  1.00  0.00    -0.166 F 
HETATM   41  F   UNL     1       9.397  21.654  53.774  1.00  0.00    -0.166 F 
ENDBRANCH  34  38
ENDBRANCH  29  32
ENDBRANCH  27  28
ENDBRANCH   9  27
TORSDOF 7
ENDMDL
