MODEL 1
REMARK VINA RESULT:      -9.4      0.000      0.000
REMARK  3 active torsions:
REMARK  status: ('A' for Active; 'I' for Inactive)
REMARK    1  A    between atoms: C_9  and  C_10 
REMARK    2  A    between atoms: C_10  and  C_11 
REMARK       I    between atoms: C_11  and  N_12 
REMARK    3  A    between atoms: N_12  and  C_13 
ROOT
HETATM    1  C   UNL     1       8.170  20.674  53.137  1.00  0.00     0.001 A 
HETATM    2  C   UNL     1       7.893  22.008  52.825  1.00  0.00     0.014 A 
HETATM    3  C   UNL     1       7.914  22.982  53.833  1.00  0.00     0.006 A 
HETATM    4  C   UNL     1       8.200  22.602  55.143  1.00  0.00     0.046 A 
HETATM    5  C   UNL     1       8.195  23.624  56.202  1.00  0.00     0.272 A 
HETATM    6  O   UNL     1       8.440  23.338  57.369  1.00  0.00    -0.266 OA
HETATM    7  N   UNL     1       7.895  24.902  55.804  1.00  0.00    -0.243 N 
HETATM    8  N   UNL     1       7.634  25.306  54.534  1.00  0.00    -0.175 NA
HETATM    9  C   UNL     1       7.646  24.423  53.581  1.00  0.00     0.074 A 
HETATM   10  C   UNL     1       8.478  21.266  55.455  1.00  0.00     0.018 A 
HETATM   11  C   UNL     1       8.466  20.304  54.448  1.00  0.00     0.001 A 
HETATM   12  H   UNL     1       7.881  25.618  56.527  1.00  0.00     0.192 HD
ENDROOT
BRANCH   9  13
HETATM   13  C   UNL     1       7.373  24.869  52.158  1.00  0.00     0.165 C 
BRANCH  13  14
HETATM   14  C   UNL     1       5.992  25.336  51.738  1.00  0.00     0.228 C 
HETATM   15  N   UNL     1       5.944  26.271  50.729  1.00  0.00    -0.326 N 
HETATM   16  H   UNL     1       6.827  26.734  50.503  1.00  0.00     0.169 HD
HETATM   17  O   UNL     1       5.014  24.802  52.259  1.00  0.00    -0.273 OA
BRANCH  15  18
HETATM   18  C   UNL     1       4.811  26.784  50.053  1.00  0.00     0.052 A 
HETATM   19  C   UNL     1       4.289  28.032  50.443  1.00  0.00     0.037 A 
HETATM   20 BR   UNL     1       5.063  29.046  51.856  1.00  0.00    -0.049 Br
HETATM   21  C   UNL     1       3.176  28.584  49.799  1.00  0.00     0.021 A 
HETATM   22  C   UNL     1       2.569  27.898  48.750  1.00  0.00     0.002 A 
HETATM   23  C   UNL     1       3.076  26.666  48.349  1.00  0.00     0.002 A 
HETATM   24  C   UNL     1       4.189  26.115  48.994  1.00  0.00     0.031 A 
ENDBRANCH  15  18
ENDBRANCH  13  14
ENDBRANCH   9  13
TORSDOF 3
ENDMDL
MODEL 2
REMARK VINA RESULT:      -8.9      4.021      5.403
REMARK  3 active torsions:
REMARK  status: ('A' for Active; 'I' for Inactive)
REMARK    1  A    between atoms: C_9  and  C_10 
REMARK    2  A    between atoms: C_10  and  C_11 
REMARK       I    between atoms: C_11  and  N_12 
REMARK    3  A    between atoms: N_12  and  C_13 
ROOT
HETATM    1  C   UNL     1       7.838  21.477  52.724  1.00  0.00     0.001 A 
HETATM    2  C   UNL     1       7.610  22.748  53.261  1.00  0.00     0.014 A 
HETATM    3  C   UNL     1       7.755  22.962  54.638  1.00  0.00     0.006 A 
HETATM    4  C   UNL     1       8.115  21.897  55.461  1.00  0.00     0.046 A 
HETATM    5  C   UNL     1       8.239  22.121  56.910  1.00  0.00     0.272 A 
HETATM    6  O   UNL     1       8.553  21.215  57.674  1.00  0.00    -0.266 OA
HETATM    7  N   UNL     1       7.980  23.396  57.347  1.00  0.00    -0.243 N 
HETATM    8  N   UNL     1       7.649  24.458  56.568  1.00  0.00    -0.175 NA
HETATM    9  C   UNL     1       7.546  24.286  55.284  1.00  0.00     0.074 A 
HETATM   10  C   UNL     1       8.344  20.625  54.924  1.00  0.00     0.018 A 
HETATM   11  C   UNL     1       8.208  20.418  53.553  1.00  0.00     0.001 A 
HETATM   12  H   UNL     1       8.055  23.565  58.347  1.00  0.00     0.192 HD
ENDROOT
BRANCH   9  13
HETATM   13  C   UNL     1       7.194  25.470  54.406  1.00  0.00     0.165 C 
BRANCH  13  14
HETATM   14  C   UNL     1       7.337  26.892  54.918  1.00  0.00     0.228 C 
HETATM   15  N   UNL     1       6.806  27.150  56.160  1.00  0.00    -0.326 N 
HETATM   16  H   UNL     1       6.173  26.441  56.535  1.00  0.00     0.169 HD
HETATM   17  O   UNL     1       7.978  27.693  54.237  1.00  0.00    -0.273 OA
BRANCH  15  18
HETATM   18  C   UNL     1       6.903  28.332  56.934  1.00  0.00     0.052 A 
HETATM   19  C   UNL     1       5.842  29.256  56.907  1.00  0.00     0.037 A 
HETATM   20 BR   UNL     1       4.281  28.962  55.858  1.00  0.00    -0.049 Br
HETATM   21  C   UNL     1       5.888  30.434  57.663  1.00  0.00     0.021 A 
HETATM   22  C   UNL     1       6.997  30.704  58.461  1.00  0.00     0.002 A 
HETATM   23  C   UNL     1       8.052  29.798  58.502  1.00  0.00     0.002 A 
HETATM   24  C   UNL     1       8.005  28.621  57.747  1.00  0.00     0.031 A 
ENDBRANCH  15  18
ENDBRANCH  13  14
ENDBRANCH   9  13
TORSDOF 3
ENDMDL
MODEL 3
REMARK VINA RESULT:      -8.9      3.919      7.544
REMARK  3 active torsions:
REMARK  status: ('A' for Active; 'I' for Inactive)
REMARK    1  A    between atoms: C_9  and  C_10 
REMARK    2  A    between atoms: C_10  and  C_11 
REMARK       I    between atoms: C_11  and  N_12 
REMARK    3  A    between atoms: N_12  and  C_13 
ROOT
HETATM    1  C   UNL     1       7.287  29.949  58.086  1.00  0.00     0.001 A 
HETATM    2  C   UNL     1       7.270  28.562  57.912  1.00  0.00     0.014 A 
HETATM    3  C   UNL     1       6.417  27.986  56.960  1.00  0.00     0.006 A 
HETATM    4  C   UNL     1       5.583  28.808  56.204  1.00  0.00     0.046 A 
HETATM    5  C   UNL     1       4.671  28.196  55.225  1.00  0.00     0.272 A 
HETATM    6  O   UNL     1       3.919  28.878  54.538  1.00  0.00    -0.266 OA
HETATM    7  N   UNL     1       4.713  26.827  55.136  1.00  0.00    -0.243 N 
HETATM    8  N   UNL     1       5.529  26.002  55.842  1.00  0.00    -0.175 NA
HETATM    9  C   UNL     1       6.352  26.522  56.703  1.00  0.00     0.074 A 
HETATM   10  C   UNL     1       5.601  30.197  56.378  1.00  0.00     0.018 A 
HETATM   11  C   UNL     1       6.457  30.765  57.318  1.00  0.00     0.001 A 
HETATM   12  H   UNL     1       4.083  26.389  54.469  1.00  0.00     0.192 HD
ENDROOT
BRANCH   9  13
HETATM   13  C   UNL     1       7.278  25.610  57.483  1.00  0.00     0.165 C 
BRANCH  13  14
HETATM   14  C   UNL     1       7.965  24.435  56.811  1.00  0.00     0.228 C 
HETATM   15  N   UNL     1       7.169  23.627  56.032  1.00  0.00    -0.326 N 
HETATM   16  H   UNL     1       6.161  23.745  56.146  1.00  0.00     0.169 HD
HETATM   17  O   UNL     1       9.184  24.325  56.937  1.00  0.00    -0.273 OA
BRANCH  15  18
HETATM   18  C   UNL     1       7.555  22.552  55.194  1.00  0.00     0.052 A 
HETATM   19  C   UNL     1       7.682  22.776  53.810  1.00  0.00     0.037 A 
HETATM   20 BR   UNL     1       7.347  24.481  53.034  1.00  0.00    -0.049 Br
HETATM   21  C   UNL     1       8.069  21.746  52.944  1.00  0.00     0.021 A 
HETATM   22  C   UNL     1       8.339  20.477  53.449  1.00  0.00     0.002 A 
HETATM   23  C   UNL     1       8.223  20.242  54.816  1.00  0.00     0.002 A 
HETATM   24  C   UNL     1       7.837  21.271  55.681  1.00  0.00     0.031 A 
ENDBRANCH  15  18
ENDBRANCH  13  14
ENDBRANCH   9  13
TORSDOF 3
ENDMDL
MODEL 4
REMARK VINA RESULT:      -8.8      1.907      2.271
REMARK  3 active torsions:
REMARK  status: ('A' for Active; 'I' for Inactive)
REMARK    1  A    between atoms: C_9  and  C_10 
REMARK    2  A    between atoms: C_10  and  C_11 
REMARK       I    between atoms: C_11  and  N_12 
REMARK    3  A    between atoms: N_12  and  C_13 
ROOT
HETATM    1  C   UNL     1       8.372  22.012  53.336  1.00  0.00     0.001 A 
HETATM    2  C   UNL     1       7.299  22.888  53.143  1.00  0.00     0.014 A 
HETATM    3  C   UNL     1       6.976  23.828  54.131  1.00  0.00     0.006 A 
HETATM    4  C   UNL     1       7.723  23.868  55.307  1.00  0.00     0.046 A 
HETATM    5  C   UNL     1       7.363  24.838  56.352  1.00  0.00     0.272 A 
HETATM    6  O   UNL     1       7.991  24.911  57.402  1.00  0.00    -0.266 OA
HETATM    7  N   UNL     1       6.286  25.645  56.080  1.00  0.00    -0.243 N 
HETATM    8  N   UNL     1       5.553  25.644  54.937  1.00  0.00    -0.175 NA
HETATM    9  C   UNL     1       5.862  24.804  53.994  1.00  0.00     0.074 A 
HETATM   10  C   UNL     1       8.797  22.991  55.500  1.00  0.00     0.018 A 
HETATM   11  C   UNL     1       9.122  22.065  54.511  1.00  0.00     0.001 A 
HETATM   12  H   UNL     1       6.020  26.315  56.797  1.00  0.00     0.192 HD
ENDROOT
BRANCH   9  13
HETATM   13  C   UNL     1       5.059  24.809  52.709  1.00  0.00     0.165 C 
BRANCH  13  14
HETATM   14  C   UNL     1       5.491  25.650  51.522  1.00  0.00     0.228 C 
HETATM   15  N   UNL     1       4.508  26.394  50.911  1.00  0.00    -0.326 N 
HETATM   16  H   UNL     1       3.545  26.154  51.155  1.00  0.00     0.169 HD
HETATM   17  O   UNL     1       6.687  25.676  51.232  1.00  0.00    -0.273 OA
BRANCH  15  18
HETATM   18  C   UNL     1       4.641  27.356  49.879  1.00  0.00     0.052 A 
HETATM   19  C   UNL     1       4.146  27.054  48.596  1.00  0.00     0.037 A 
HETATM   20 BR   UNL     1       3.307  25.390  48.210  1.00  0.00    -0.049 Br
HETATM   21  C   UNL     1       4.246  27.976  47.547  1.00  0.00     0.021 A 
HETATM   22  C   UNL     1       4.839  29.216  47.767  1.00  0.00     0.002 A 
HETATM   23  C   UNL     1       5.328  29.531  49.031  1.00  0.00     0.002 A 
HETATM   24  C   UNL     1       5.228  28.609  50.079  1.00  0.00     0.031 A 
ENDBRANCH  15  18
ENDBRANCH  13  14
ENDBRANCH   9  13
TORSDOF 3
ENDMDL
MODEL 5
REMARK VINA RESULT:      -8.7      4.969      6.856
REMARK  3 active torsions:
REMARK  status: ('A' for Active; 'I' for Inactive)
REMARK    1  A    between atoms: C_9  and  C_10 
REMARK    2  A    between atoms: C_10  and  C_11 
REMARK       I    between atoms: C_11  and  N_12 
REMARK    3  A    between atoms: N_12  and  C_13 
ROOT
HETATM    1  C   UNL     1       7.276  23.963  52.588  1.00  0.00     0.001 A 
HETATM    2  C   UNL     1       7.141  24.973  53.545  1.00  0.00     0.014 A 
HETATM    3  C   UNL     1       7.452  24.714  54.886  1.00  0.00     0.006 A 
HETATM    4  C   UNL     1       7.881  23.440  55.255  1.00  0.00     0.046 A 
HETATM    5  C   UNL     1       8.179  23.165  56.669  1.00  0.00     0.272 A 
HETATM    6  O   UNL     1       8.560  22.060  57.040  1.00  0.00    -0.266 OA
HETATM    7  N   UNL     1       8.002  24.213  57.537  1.00  0.00    -0.243 N 
HETATM    8  N   UNL     1       7.606  25.470  57.206  1.00  0.00    -0.175 NA
HETATM    9  C   UNL     1       7.350  25.739  55.960  1.00  0.00     0.074 A 
HETATM   10  C   UNL     1       8.016  22.428  54.297  1.00  0.00     0.018 A 
HETATM   11  C   UNL     1       7.716  22.693  52.963  1.00  0.00     0.001 A 
HETATM   12  H   UNL     1       8.197  24.036  58.519  1.00  0.00     0.192 HD
ENDROOT
BRANCH   9  13
HETATM   13  C   UNL     1       6.925  27.143  55.581  1.00  0.00     0.165 C 
BRANCH  13  14
HETATM   14  C   UNL     1       6.849  28.245  56.621  1.00  0.00     0.228 C 
HETATM   15  N   UNL     1       8.050  28.740  57.075  1.00  0.00    -0.326 N 
HETATM   16  H   UNL     1       8.879  28.186  56.850  1.00  0.00     0.169 HD
HETATM   17  O   UNL     1       5.739  28.675  56.932  1.00  0.00    -0.273 OA
BRANCH  15  18
HETATM   18  C   UNL     1       8.283  29.842  57.934  1.00  0.00     0.052 A 
HETATM   19  C   UNL     1       9.582  30.377  58.021  1.00  0.00     0.037 A 
HETATM   20 BR   UNL     1      11.033  29.660  57.020  1.00  0.00    -0.049 Br
HETATM   21  C   UNL     1       9.860  31.472  58.849  1.00  0.00     0.021 A 
HETATM   22  C   UNL     1       8.840  32.050  59.600  1.00  0.00     0.002 A 
HETATM   23  C   UNL     1       7.549  31.536  59.520  1.00  0.00     0.002 A 
HETATM   24  C   UNL     1       7.273  30.442  58.692  1.00  0.00     0.031 A 
ENDBRANCH  15  18
ENDBRANCH  13  14
ENDBRANCH   9  13
TORSDOF 3
ENDMDL
MODEL 6
REMARK VINA RESULT:      -8.6      2.007      2.305
REMARK  3 active torsions:
REMARK  status: ('A' for Active; 'I' for Inactive)
REMARK    1  A    between atoms: C_9  and  C_10 
REMARK    2  A    between atoms: C_10  and  C_11 
REMARK       I    between atoms: C_11  and  N_12 
REMARK    3  A    between atoms: N_12  and  C_13 
ROOT
HETATM    1  C   UNL     1       8.119  20.725  53.008  1.00  0.00     0.001 A 
HETATM    2  C   UNL     1       7.882  22.086  52.791  1.00  0.00     0.014 A 
HETATM    3  C   UNL     1       7.918  22.983  53.867  1.00  0.00     0.006 A 
HETATM    4  C   UNL     1       8.179  22.503  55.149  1.00  0.00     0.046 A 
HETATM    5  C   UNL     1       8.190  23.445  56.279  1.00  0.00     0.272 A 
HETATM    6  O   UNL     1       8.415  23.069  57.424  1.00  0.00    -0.266 OA
HETATM    7  N   UNL     1       7.930  24.757  55.972  1.00  0.00    -0.243 N 
HETATM    8  N   UNL     1       7.694  25.258  54.732  1.00  0.00    -0.175 NA
HETATM    9  C   UNL     1       7.693  24.446  53.717  1.00  0.00     0.074 A 
HETATM   10  C   UNL     1       8.417  21.141  55.366  1.00  0.00     0.018 A 
HETATM   11  C   UNL     1       8.390  20.254  54.292  1.00  0.00     0.001 A 
HETATM   12  H   UNL     1       7.926  25.419  56.744  1.00  0.00     0.192 HD
ENDROOT
BRANCH   9  13
HETATM   13  C   UNL     1       7.447  25.001  52.328  1.00  0.00     0.165 C 
BRANCH  13  14
HETATM   14  C   UNL     1       6.321  25.983  52.067  1.00  0.00     0.228 C 
HETATM   15  N   UNL     1       6.446  27.224  52.649  1.00  0.00    -0.326 N 
HETATM   16  H   UNL     1       7.156  27.309  53.378  1.00  0.00     0.169 HD
HETATM   17  O   UNL     1       5.421  25.645  51.300  1.00  0.00    -0.273 OA
BRANCH  15  18
HETATM   18  C   UNL     1       5.628  28.367  52.475  1.00  0.00     0.052 A 
HETATM   19  C   UNL     1       4.840  28.813  53.554  1.00  0.00     0.037 A 
HETATM   20 BR   UNL     1       4.843  27.922  55.235  1.00  0.00    -0.049 Br
HETATM   21  C   UNL     1       4.023  29.944  53.433  1.00  0.00     0.021 A 
HETATM   22  C   UNL     1       3.983  30.648  52.232  1.00  0.00     0.002 A 
HETATM   23  C   UNL     1       4.760  30.222  51.159  1.00  0.00     0.002 A 
HETATM   24  C   UNL     1       5.577  29.093  51.281  1.00  0.00     0.031 A 
ENDBRANCH  15  18
ENDBRANCH  13  14
ENDBRANCH   9  13
TORSDOF 3
ENDMDL
MODEL 7
REMARK VINA RESULT:      -8.5      4.485      7.149
REMARK  3 active torsions:
REMARK  status: ('A' for Active; 'I' for Inactive)
REMARK    1  A    between atoms: C_9  and  C_10 
REMARK    2  A    between atoms: C_10  and  C_11 
REMARK       I    between atoms: C_11  and  N_12 
REMARK    3  A    between atoms: N_12  and  C_13 
ROOT
HETATM    1  C   UNL     1       9.162  28.923  57.080  1.00  0.00     0.001 A 
HETATM    2  C   UNL     1       8.349  28.311  56.121  1.00  0.00     0.014 A 
HETATM    3  C   UNL     1       6.959  28.481  56.169  1.00  0.00     0.006 A 
HETATM    4  C   UNL     1       6.400  29.253  57.186  1.00  0.00     0.046 A 
HETATM    5  C   UNL     1       4.938  29.406  57.248  1.00  0.00     0.272 A 
HETATM    6  O   UNL     1       4.401  30.075  58.123  1.00  0.00    -0.266 OA
HETATM    7  N   UNL     1       4.222  28.755  56.275  1.00  0.00    -0.243 N 
HETATM    8  N   UNL     1       4.739  28.015  55.259  1.00  0.00    -0.175 NA
HETATM    9  C   UNL     1       6.029  27.877  55.178  1.00  0.00     0.074 A 
HETATM   10  C   UNL     1       7.213  29.867  58.146  1.00  0.00     0.018 A 
HETATM   11  C   UNL     1       8.596  29.703  58.088  1.00  0.00     0.001 A 
HETATM   12  H   UNL     1       3.210  28.845  56.308  1.00  0.00     0.192 HD
ENDROOT
BRANCH   9  13
HETATM   13  C   UNL     1       6.614  27.067  54.038  1.00  0.00     0.165 C 
BRANCH  13  14
HETATM   14  C   UNL     1       6.520  25.553  54.027  1.00  0.00     0.228 C 
HETATM   15  N   UNL     1       7.713  24.867  53.987  1.00  0.00    -0.326 N 
HETATM   16  H   UNL     1       8.539  25.417  53.745  1.00  0.00     0.169 HD
HETATM   17  O   UNL     1       5.407  25.038  54.133  1.00  0.00    -0.273 OA
BRANCH  15  18
HETATM   18  C   UNL     1       7.934  23.472  54.098  1.00  0.00     0.052 A 
HETATM   19  C   UNL     1       8.353  22.943  55.333  1.00  0.00     0.037 A 
HETATM   20 BR   UNL     1       8.634  24.049  56.856  1.00  0.00    -0.049 Br
HETATM   21  C   UNL     1       8.576  21.570  55.493  1.00  0.00     0.021 A 
HETATM   22  C   UNL     1       8.378  20.704  54.421  1.00  0.00     0.002 A 
HETATM   23  C   UNL     1       7.958  21.212  53.195  1.00  0.00     0.002 A 
HETATM   24  C   UNL     1       7.736  22.584  53.036  1.00  0.00     0.031 A 
ENDBRANCH  15  18
ENDBRANCH  13  14
ENDBRANCH   9  13
TORSDOF 3
ENDMDL
MODEL 8
REMARK VINA RESULT:      -8.4      1.504      2.569
REMARK  3 active torsions:
REMARK  status: ('A' for Active; 'I' for Inactive)
REMARK    1  A    between atoms: C_9  and  C_10 
REMARK    2  A    between atoms: C_10  and  C_11 
REMARK       I    between atoms: C_11  and  N_12 
REMARK    3  A    between atoms: N_12  and  C_13 
ROOT
HETATM    1  C   UNL     1       7.549  26.414  56.198  1.00  0.00     0.001 A 
HETATM    2  C   UNL     1       7.477  26.012  54.861  1.00  0.00     0.014 A 
HETATM    3  C   UNL     1       7.559  24.652  54.533  1.00  0.00     0.006 A 
HETATM    4  C   UNL     1       7.725  23.713  55.549  1.00  0.00     0.046 A 
HETATM    5  C   UNL     1       7.838  22.289  55.197  1.00  0.00     0.272 A 
HETATM    6  O   UNL     1       7.984  21.427  56.056  1.00  0.00    -0.266 OA
HETATM    7  N   UNL     1       7.773  21.992  53.859  1.00  0.00    -0.243 N 
HETATM    8  N   UNL     1       7.590  22.881  52.849  1.00  0.00    -0.175 NA
HETATM    9  C   UNL     1       7.475  24.143  53.137  1.00  0.00     0.074 A 
HETATM   10  C   UNL     1       7.796  24.115  56.888  1.00  0.00     0.018 A 
HETATM   11  C   UNL     1       7.704  25.467  57.211  1.00  0.00     0.001 A 
HETATM   12  H   UNL     1       7.857  21.012  53.600  1.00  0.00     0.192 HD
ENDROOT
BRANCH   9  13
HETATM   13  C   UNL     1       7.253  25.140  52.017  1.00  0.00     0.165 C 
BRANCH  13  14
HETATM   14  C   UNL     1       5.852  25.530  51.585  1.00  0.00     0.228 C 
HETATM   15  N   UNL     1       5.760  26.352  50.485  1.00  0.00    -0.326 N 
HETATM   16  H   UNL     1       6.625  26.808  50.191  1.00  0.00     0.169 HD
HETATM   17  O   UNL     1       4.899  25.032  52.184  1.00  0.00    -0.273 OA
BRANCH  15  18
HETATM   18  C   UNL     1       4.599  26.767  49.788  1.00  0.00     0.052 A 
HETATM   19  C   UNL     1       4.061  28.041  50.053  1.00  0.00     0.037 A 
HETATM   20 BR   UNL     1       4.849  29.219  51.323  1.00  0.00    -0.049 Br
HETATM   21  C   UNL     1       2.921  28.498  49.382  1.00  0.00     0.021 A 
HETATM   22  C   UNL     1       2.302  27.689  48.432  1.00  0.00     0.002 A 
HETATM   23  C   UNL     1       2.825  26.430  48.156  1.00  0.00     0.002 A 
HETATM   24  C   UNL     1       3.965  25.974  48.826  1.00  0.00     0.031 A 
ENDBRANCH  15  18
ENDBRANCH  13  14
ENDBRANCH   9  13
TORSDOF 3
ENDMDL
MODEL 9
REMARK VINA RESULT:      -8.4      4.780      7.148
REMARK  3 active torsions:
REMARK  status: ('A' for Active; 'I' for Inactive)
REMARK    1  A    between atoms: C_9  and  C_10 
REMARK    2  A    between atoms: C_10  and  C_11 
REMARK       I    between atoms: C_11  and  N_12 
REMARK    3  A    between atoms: N_12  and  C_13 
ROOT
HETATM    1  C   UNL     1       8.402  22.972  56.128  1.00  0.00     0.001 A 
HETATM    2  C   UNL     1       7.765  24.210  56.264  1.00  0.00     0.014 A 
HETATM    3  C   UNL     1       7.452  24.965  55.127  1.00  0.00     0.006 A 
HETATM    4  C   UNL     1       7.793  24.476  53.867  1.00  0.00     0.046 A 
HETATM    5  C   UNL     1       7.486  25.286  52.677  1.00  0.00     0.272 A 
HETATM    6  O   UNL     1       7.766  24.897  51.549  1.00  0.00    -0.266 OA
HETATM    7  N   UNL     1       6.876  26.492  52.910  1.00  0.00    -0.243 N 
HETATM    8  N   UNL     1       6.512  26.986  54.123  1.00  0.00    -0.175 NA
HETATM    9  C   UNL     1       6.761  26.282  55.186  1.00  0.00     0.074 A 
HETATM   10  C   UNL     1       8.430  23.237  53.730  1.00  0.00     0.018 A 
HETATM   11  C   UNL     1       8.731  22.485  54.863  1.00  0.00     0.001 A 
HETATM   12  H   UNL     1       6.664  27.066  52.098  1.00  0.00     0.192 HD
ENDROOT
BRANCH   9  13
HETATM   13  C   UNL     1       6.343  26.817  56.541  1.00  0.00     0.165 C 
BRANCH  13  14
HETATM   14  C   UNL     1       7.323  27.570  57.420  1.00  0.00     0.228 C 
HETATM   15  N   UNL     1       7.394  28.931  57.229  1.00  0.00    -0.326 N 
HETATM   16  H   UNL     1       6.958  29.289  56.377  1.00  0.00     0.169 HD
HETATM   17  O   UNL     1       7.926  26.941  58.290  1.00  0.00    -0.273 OA
BRANCH  15  18
HETATM   18  C   UNL     1       8.111  29.893  57.982  1.00  0.00     0.052 A 
HETATM   19  C   UNL     1       9.399  30.271  57.557  1.00  0.00     0.037 A 
HETATM   20 BR   UNL     1      10.201  29.525  56.001  1.00  0.00    -0.049 Br
HETATM   21  C   UNL     1      10.143  31.224  58.263  1.00  0.00     0.021 A 
HETATM   22  C   UNL     1       9.608  31.816  59.404  1.00  0.00     0.002 A 
HETATM   23  C   UNL     1       8.335  31.457  59.834  1.00  0.00     0.002 A 
HETATM   24  C   UNL     1       7.592  30.504  59.128  1.00  0.00     0.031 A 
ENDBRANCH  15  18
ENDBRANCH  13  14
ENDBRANCH   9  13
TORSDOF 3
ENDMDL
MODEL 10
REMARK VINA RESULT:      -8.4      5.783      7.917
REMARK  3 active torsions:
REMARK  status: ('A' for Active; 'I' for Inactive)
REMARK    1  A    between atoms: C_9  and  C_10 
REMARK    2  A    between atoms: C_10  and  C_11 
REMARK       I    between atoms: C_11  and  N_12 
REMARK    3  A    between atoms: N_12  and  C_13 
ROOT
HETATM    1  C   UNL     1       7.453  31.630  59.814  1.00  0.00     0.001 A 
HETATM    2  C   UNL     1       7.157  30.799  58.729  1.00  0.00     0.014 A 
HETATM    3  C   UNL     1       8.185  30.359  57.884  1.00  0.00     0.006 A 
HETATM    4  C   UNL     1       9.494  30.769  58.129  1.00  0.00     0.046 A 
HETATM    5  C   UNL     1      10.565  30.326  57.223  1.00  0.00     0.272 A 
HETATM    6  O   UNL     1      11.731  30.661  57.398  1.00  0.00    -0.266 OA
HETATM    7  N   UNL     1      10.177  29.527  56.177  1.00  0.00    -0.243 N 
HETATM    8  N   UNL     1       8.915  29.093  55.925  1.00  0.00    -0.175 NA
HETATM    9  C   UNL     1       7.955  29.461  56.720  1.00  0.00     0.074 A 
HETATM   10  C   UNL     1       9.790  31.601  59.215  1.00  0.00     0.018 A 
HETATM   11  C   UNL     1       8.767  32.028  60.059  1.00  0.00     0.001 A 
HETATM   12  H   UNL     1      10.906  29.219  55.538  1.00  0.00     0.192 HD
ENDROOT
BRANCH   9  13
HETATM   13  C   UNL     1       6.547  28.967  56.455  1.00  0.00     0.165 C 
BRANCH  13  14
HETATM   14  C   UNL     1       6.290  27.537  56.018  1.00  0.00     0.228 C 
HETATM   15  N   UNL     1       7.213  26.985  55.160  1.00  0.00    -0.326 N 
HETATM   16  H   UNL     1       7.861  27.639  54.716  1.00  0.00     0.169 HD
HETATM   17  O   UNL     1       5.332  26.942  56.512  1.00  0.00    -0.273 OA
BRANCH  15  18
HETATM   18  C   UNL     1       7.301  25.650  54.696  1.00  0.00     0.052 A 
HETATM   19  C   UNL     1       7.826  24.663  55.552  1.00  0.00     0.037 A 
HETATM   20 BR   UNL     1       8.426  25.074  57.311  1.00  0.00    -0.049 Br
HETATM   21  C   UNL     1       7.924  23.328  55.142  1.00  0.00     0.021 A 
HETATM   22  C   UNL     1       7.493  22.958  53.870  1.00  0.00     0.002 A 
HETATM   23  C   UNL     1       6.965  23.921  53.015  1.00  0.00     0.002 A 
HETATM   24  C   UNL     1       6.868  25.255  53.426  1.00  0.00     0.031 A 
ENDBRANCH  15  18
ENDBRANCH  13  14
ENDBRANCH   9  13
TORSDOF 3
ENDMDL
