MODEL 1
REMARK VINA RESULT:      -9.7      0.000      0.000
REMARK  5 active torsions:
REMARK  status: ('A' for Active; 'I' for Inactive)
REMARK    1  A    between atoms: C_4  and  C_5 
REMARK       I    between atoms: C_5  and  N_6 
REMARK    2  A    between atoms: N_6  and  C_7 
REMARK    3  A    between atoms: C_10  and  C_11 
REMARK    4  A    between atoms: C_18  and  N_19 
REMARK       I    between atoms: N_19  and  C_20 
REMARK    5  A    between atoms: C_20  and  C_21 
ROOT
HETATM    1  C   UNL     1       6.650  29.563  57.216  1.00  0.00     0.139 A 
HETATM    2  N   UNL     1       6.739  28.278  57.517  1.00  0.00    -0.228 NA
HETATM    3  C   UNL     1       7.017  27.621  56.339  1.00  0.00     0.088 A 
HETATM    4  C   UNL     1       7.095  28.521  55.288  1.00  0.00     0.063 A 
HETATM    5  N   UNL     1       6.861  29.738  55.867  1.00  0.00    -0.338 N 
HETATM    6  H   UNL     1       6.819  30.618  55.377  1.00  0.00     0.167 HD
HETATM    7  C   UNL     1       7.209  26.250  56.089  1.00  0.00     0.063 A 
HETATM    8  C   UNL     1       7.471  25.832  54.778  1.00  0.00     0.037 A 
HETATM    9  C   UNL     1       7.539  26.779  53.742  1.00  0.00     0.032 A 
HETATM   10  C   UNL     1       7.353  28.147  53.972  1.00  0.00     0.034 A 
ENDROOT
BRANCH   1  11
HETATM   11  C   UNL     1       6.328  30.658  58.138  1.00  0.00     0.010 A 
HETATM   12  C   UNL     1       5.069  31.270  58.158  1.00  0.00     0.017 A 
HETATM   13  C   UNL     1       4.768  32.275  59.087  1.00  0.00     0.030 A 
HETATM   14  C   UNL     1       5.721  32.694  60.014  1.00  0.00     0.035 A 
HETATM   15  C   UNL     1       6.993  32.115  59.975  1.00  0.00     0.030 A 
HETATM   16  C   UNL     1       7.293  31.108  59.047  1.00  0.00     0.017 A 
BRANCH  14  17
HETATM   17  N   UNL     1       5.476  33.667  61.002  1.00  0.00    -0.321 N 
HETATM   18  C   UNL     1       4.817  33.511  62.210  1.00  0.00     0.279 C 
HETATM   19  O   UNL     1       4.302  32.472  62.612  1.00  0.00    -0.265 OA
HETATM   20  H   UNL     1       5.862  34.592  60.846  1.00  0.00     0.169 HD
BRANCH  18  21
HETATM   21  C   UNL     1       4.802  34.727  63.005  1.00  0.00     0.142 A 
HETATM   22  O   UNL     1       3.760  34.963  63.865  1.00  0.00    -0.317 OA
HETATM   23  C   UNL     1       4.002  36.158  64.466  1.00  0.00     0.143 A 
HETATM   24  C   UNL     1       5.178  36.701  64.006  1.00  0.00     0.027 A 
HETATM   25  C   UNL     1       5.696  35.779  63.066  1.00  0.00     0.045 A 
ENDBRANCH  18  21
ENDBRANCH  14  17
ENDBRANCH   1  11
BRANCH   8  26
HETATM   26  N   UNL     1       7.676  24.490  54.404  1.00  0.00    -0.321 N 
HETATM   27  C   UNL     1       8.480  23.537  55.002  1.00  0.00     0.279 C 
HETATM   28  O   UNL     1       9.179  23.709  55.994  1.00  0.00    -0.265 OA
HETATM   29  H   UNL     1       7.173  24.155  53.590  1.00  0.00     0.169 HD
BRANCH  27  30
HETATM   30  C   UNL     1       8.416  22.257  54.313  1.00  0.00     0.142 A 
HETATM   31  O   UNL     1       8.928  21.138  54.924  1.00  0.00    -0.317 OA
HETATM   32  C   UNL     1       8.742  20.096  54.072  1.00  0.00     0.143 A 
HETATM   33  C   UNL     1       8.118  20.518  52.923  1.00  0.00     0.027 A 
HETATM   34  C   UNL     1       7.907  21.910  53.076  1.00  0.00     0.045 A 
ENDBRANCH  27  30
ENDBRANCH   8  26
TORSDOF 5
ENDMDL
MODEL 2
REMARK VINA RESULT:      -9.4      3.564      4.709
REMARK  5 active torsions:
REMARK  status: ('A' for Active; 'I' for Inactive)
REMARK    1  A    between atoms: C_4  and  C_5 
REMARK       I    between atoms: C_5  and  N_6 
REMARK    2  A    between atoms: N_6  and  C_7 
REMARK    3  A    between atoms: C_10  and  C_11 
REMARK    4  A    between atoms: C_18  and  N_19 
REMARK       I    between atoms: N_19  and  C_20 
REMARK    5  A    between atoms: C_20  and  C_21 
ROOT
HETATM    1  C   UNL     1       7.339  31.242  59.768  1.00  0.00     0.139 A 
HETATM    2  N   UNL     1       6.402  31.147  58.839  1.00  0.00    -0.228 NA
HETATM    3  C   UNL     1       6.955  30.432  57.801  1.00  0.00     0.088 A 
HETATM    4  C   UNL     1       8.264  30.084  58.093  1.00  0.00     0.063 A 
HETATM    5  N   UNL     1       8.482  30.604  59.340  1.00  0.00    -0.338 N 
HETATM    6  H   UNL     1       9.351  30.557  59.848  1.00  0.00     0.167 HD
HETATM    7  C   UNL     1       6.398  30.048  56.568  1.00  0.00     0.063 A 
HETATM    8  C   UNL     1       7.189  29.324  55.665  1.00  0.00     0.037 A 
HETATM    9  C   UNL     1       8.512  28.994  56.002  1.00  0.00     0.032 A 
HETATM   10  C   UNL     1       9.083  29.366  57.226  1.00  0.00     0.034 A 
ENDROOT
BRANCH   1  11
HETATM   11  C   UNL     1       7.234  31.950  61.049  1.00  0.00     0.010 A 
HETATM   12  C   UNL     1       6.317  32.988  61.254  1.00  0.00     0.017 A 
HETATM   13  C   UNL     1       6.197  33.610  62.504  1.00  0.00     0.030 A 
HETATM   14  C   UNL     1       6.994  33.212  63.576  1.00  0.00     0.035 A 
HETATM   15  C   UNL     1       7.939  32.203  63.368  1.00  0.00     0.030 A 
HETATM   16  C   UNL     1       8.058  31.579  62.119  1.00  0.00     0.017 A 
BRANCH  14  17
HETATM   17  N   UNL     1       6.898  33.762  64.868  1.00  0.00    -0.321 N 
HETATM   18  C   UNL     1       5.807  33.759  65.720  1.00  0.00     0.279 C 
HETATM   19  O   UNL     1       4.704  33.285  65.464  1.00  0.00    -0.265 OA
HETATM   20  H   UNL     1       7.739  34.177  65.258  1.00  0.00     0.169 HD
BRANCH  18  21
HETATM   21  C   UNL     1       6.092  34.374  67.005  1.00  0.00     0.142 A 
HETATM   22  O   UNL     1       7.308  34.160  67.605  1.00  0.00    -0.317 OA
HETATM   23  C   UNL     1       7.297  34.842  68.780  1.00  0.00     0.143 A 
HETATM   24  C   UNL     1       6.097  35.489  68.953  1.00  0.00     0.027 A 
HETATM   25  C   UNL     1       5.320  35.190  67.810  1.00  0.00     0.045 A 
ENDBRANCH  18  21
ENDBRANCH  14  17
ENDBRANCH   1  11
BRANCH   8  26
HETATM   26  N   UNL     1       6.745  28.888  54.401  1.00  0.00    -0.321 N 
HETATM   27  C   UNL     1       6.235  27.656  54.039  1.00  0.00     0.279 C 
HETATM   28  O   UNL     1       6.081  26.696  54.787  1.00  0.00    -0.265 OA
HETATM   29  H   UNL     1       6.796  29.556  53.639  1.00  0.00     0.169 HD
BRANCH  27  30
HETATM   30  C   UNL     1       5.884  27.602  52.629  1.00  0.00     0.142 A 
HETATM   31  O   UNL     1       5.707  26.380  52.025  1.00  0.00    -0.317 OA
HETATM   32  C   UNL     1       5.392  26.617  50.725  1.00  0.00     0.143 A 
HETATM   33  C   UNL     1       5.361  27.968  50.475  1.00  0.00     0.027 A 
HETATM   34  C   UNL     1       5.678  28.604  51.699  1.00  0.00     0.045 A 
ENDBRANCH  27  30
ENDBRANCH   8  26
TORSDOF 5
ENDMDL
MODEL 3
REMARK VINA RESULT:      -9.3      5.205     14.146
REMARK  5 active torsions:
REMARK  status: ('A' for Active; 'I' for Inactive)
REMARK    1  A    between atoms: C_4  and  C_5 
REMARK       I    between atoms: C_5  and  N_6 
REMARK    2  A    between atoms: N_6  and  C_7 
REMARK    3  A    between atoms: C_10  and  C_11 
REMARK    4  A    between atoms: C_18  and  N_19 
REMARK       I    between atoms: N_19  and  C_20 
REMARK    5  A    between atoms: C_20  and  C_21 
ROOT
HETATM    1  C   UNL     1       6.651  33.078  64.055  1.00  0.00     0.139 A 
HETATM    2  N   UNL     1       7.408  33.220  65.131  1.00  0.00    -0.228 NA
HETATM    3  C   UNL     1       6.617  33.817  66.087  1.00  0.00     0.088 A 
HETATM    4  C   UNL     1       5.346  34.054  65.587  1.00  0.00     0.063 A 
HETATM    5  N   UNL     1       5.392  33.577  64.305  1.00  0.00    -0.338 N 
HETATM    6  H   UNL     1       4.636  33.617  63.641  1.00  0.00     0.167 HD
HETATM    7  C   UNL     1       6.920  34.195  67.407  1.00  0.00     0.063 A 
HETATM    8  C   UNL     1       5.925  34.807  68.181  1.00  0.00     0.037 A 
HETATM    9  C   UNL     1       4.650  35.030  67.633  1.00  0.00     0.032 A 
HETATM   10  C   UNL     1       4.329  34.658  66.322  1.00  0.00     0.034 A 
ENDROOT
BRANCH   1  11
HETATM   11  C   UNL     1       7.064  32.525  62.761  1.00  0.00     0.010 A 
HETATM   12  C   UNL     1       8.253  31.802  62.604  1.00  0.00     0.017 A 
HETATM   13  C   UNL     1       8.597  31.235  61.370  1.00  0.00     0.030 A 
HETATM   14  C   UNL     1       7.763  31.382  60.263  1.00  0.00     0.035 A 
HETATM   15  C   UNL     1       6.593  32.136  60.401  1.00  0.00     0.030 A 
HETATM   16  C   UNL     1       6.248  32.700  61.637  1.00  0.00     0.017 A 
BRANCH  14  17
HETATM   17  N   UNL     1       8.023  30.806  59.005  1.00  0.00    -0.321 N 
HETATM   18  C   UNL     1       9.184  30.881  58.253  1.00  0.00     0.279 C 
HETATM   19  O   UNL     1      10.194  31.505  58.563  1.00  0.00    -0.265 OA
HETATM   20  H   UNL     1       7.296  30.222  58.604  1.00  0.00     0.169 HD
BRANCH  18  21
HETATM   21  C   UNL     1       9.110  30.111  57.024  1.00  0.00     0.142 A 
HETATM   22  O   UNL     1      10.159  30.140  56.140  1.00  0.00    -0.317 OA
HETATM   23  C   UNL     1       9.820  29.344  55.093  1.00  0.00     0.143 A 
HETATM   24  C   UNL     1       8.569  28.805  55.279  1.00  0.00     0.027 A 
HETATM   25  C   UNL     1       8.111  29.297  56.524  1.00  0.00     0.045 A 
ENDBRANCH  18  21
ENDBRANCH  14  17
ENDBRANCH   1  11
BRANCH   8  26
HETATM   26  N   UNL     1       6.110  35.233  69.511  1.00  0.00    -0.321 N 
HETATM   27  C   UNL     1       5.999  34.501  70.679  1.00  0.00     0.279 C 
HETATM   28  O   UNL     1       5.704  33.314  70.755  1.00  0.00    -0.265 OA
HETATM   29  H   UNL     1       6.363  36.204  69.653  1.00  0.00     0.169 HD
BRANCH  27  30
HETATM   30  C   UNL     1       6.274  35.308  71.857  1.00  0.00     0.142 A 
HETATM   31  O   UNL     1       7.251  36.272  71.799  1.00  0.00    -0.317 OA
HETATM   32  C   UNL     1       7.301  36.866  73.020  1.00  0.00     0.143 A 
HETATM   33  C   UNL     1       6.376  36.306  73.867  1.00  0.00     0.027 A 
HETATM   34  C   UNL     1       5.713  35.302  73.121  1.00  0.00     0.045 A 
ENDBRANCH  27  30
ENDBRANCH   8  26
TORSDOF 5
ENDMDL
MODEL 4
REMARK VINA RESULT:      -9.1      3.840     13.266
REMARK  5 active torsions:
REMARK  status: ('A' for Active; 'I' for Inactive)
REMARK    1  A    between atoms: C_4  and  C_5 
REMARK       I    between atoms: C_5  and  N_6 
REMARK    2  A    between atoms: N_6  and  C_7 
REMARK    3  A    between atoms: C_10  and  C_11 
REMARK    4  A    between atoms: C_18  and  N_19 
REMARK       I    between atoms: N_19  and  C_20 
REMARK    5  A    between atoms: C_20  and  C_21 
ROOT
HETATM    1  C   UNL     1       6.668  32.622  62.169  1.00  0.00     0.139 A 
HETATM    2  N   UNL     1       7.196  32.377  63.356  1.00  0.00    -0.228 NA
HETATM    3  C   UNL     1       6.683  33.324  64.214  1.00  0.00     0.088 A 
HETATM    4  C   UNL     1       5.823  34.176  63.538  1.00  0.00     0.063 A 
HETATM    5  N   UNL     1       5.830  33.712  62.251  1.00  0.00    -0.338 N 
HETATM    6  H   UNL     1       5.327  34.123  61.481  1.00  0.00     0.167 HD
HETATM    7  C   UNL     1       6.912  33.522  65.587  1.00  0.00     0.063 A 
HETATM    8  C   UNL     1       6.265  34.584  66.235  1.00  0.00     0.037 A 
HETATM    9  C   UNL     1       5.404  35.425  65.510  1.00  0.00     0.032 A 
HETATM   10  C   UNL     1       5.162  35.241  64.144  1.00  0.00     0.034 A 
ENDROOT
BRANCH   1  11
HETATM   11  C   UNL     1       6.944  31.902  60.922  1.00  0.00     0.010 A 
HETATM   12  C   UNL     1       8.087  31.110  60.755  1.00  0.00     0.017 A 
HETATM   13  C   UNL     1       8.299  30.385  59.575  1.00  0.00     0.030 A 
HETATM   14  C   UNL     1       7.377  30.440  58.532  1.00  0.00     0.035 A 
HETATM   15  C   UNL     1       6.252  31.259  58.675  1.00  0.00     0.030 A 
HETATM   16  C   UNL     1       6.038  31.981  59.857  1.00  0.00     0.017 A 
BRANCH  14  17
HETATM   17  N   UNL     1       7.502  29.707  57.336  1.00  0.00    -0.321 N 
HETATM   18  C   UNL     1       7.581  28.333  57.180  1.00  0.00     0.279 C 
HETATM   19  O   UNL     1       7.579  27.511  58.091  1.00  0.00    -0.265 OA
HETATM   20  H   UNL     1       7.492  30.232  56.468  1.00  0.00     0.169 HD
BRANCH  18  21
HETATM   21  C   UNL     1       7.648  27.927  55.787  1.00  0.00     0.142 A 
HETATM   22  O   UNL     1       7.246  26.666  55.426  1.00  0.00    -0.317 OA
HETATM   23  C   UNL     1       7.420  26.561  54.083  1.00  0.00     0.143 A 
HETATM   24  C   UNL     1       7.932  27.728  53.568  1.00  0.00     0.027 A 
HETATM   25  C   UNL     1       8.079  28.610  54.665  1.00  0.00     0.045 A 
ENDBRANCH  18  21
ENDBRANCH  14  17
ENDBRANCH   1  11
BRANCH   8  26
HETATM   26  N   UNL     1       6.420  34.885  67.602  1.00  0.00    -0.321 N 
HETATM   27  C   UNL     1       5.674  34.438  68.677  1.00  0.00     0.279 C 
HETATM   28  O   UNL     1       4.715  33.677  68.617  1.00  0.00    -0.265 OA
HETATM   29  H   UNL     1       7.176  35.511  67.854  1.00  0.00     0.169 HD
BRANCH  27  30
HETATM   30  C   UNL     1       6.156  34.978  69.938  1.00  0.00     0.142 A 
HETATM   31  O   UNL     1       5.466  34.705  71.095  1.00  0.00    -0.317 OA
HETATM   32  C   UNL     1       6.123  35.325  72.110  1.00  0.00     0.143 A 
HETATM   33  C   UNL     1       7.225  35.994  71.633  1.00  0.00     0.027 A 
HETATM   34  C   UNL     1       7.248  35.772  70.235  1.00  0.00     0.045 A 
ENDBRANCH  27  30
ENDBRANCH   8  26
TORSDOF 5
ENDMDL
MODEL 5
REMARK VINA RESULT:      -9.1      4.937      8.231
REMARK  5 active torsions:
REMARK  status: ('A' for Active; 'I' for Inactive)
REMARK    1  A    between atoms: C_4  and  C_5 
REMARK       I    between atoms: C_5  and  N_6 
REMARK    2  A    between atoms: N_6  and  C_7 
REMARK    3  A    between atoms: C_10  and  C_11 
REMARK    4  A    between atoms: C_18  and  N_19 
REMARK       I    between atoms: N_19  and  C_20 
REMARK    5  A    between atoms: C_20  and  C_21 
ROOT
HETATM    1  C   UNL     1       6.072  33.374  63.860  1.00  0.00     0.139 A 
HETATM    2  N   UNL     1       7.093  32.705  63.351  1.00  0.00    -0.228 NA
HETATM    3  C   UNL     1       6.807  32.514  62.018  1.00  0.00     0.088 A 
HETATM    4  C   UNL     1       5.578  33.072  61.700  1.00  0.00     0.063 A 
HETATM    5  N   UNL     1       5.136  33.610  62.878  1.00  0.00    -0.338 N 
HETATM    6  H   UNL     1       4.252  34.074  63.011  1.00  0.00     0.167 HD
HETATM    7  C   UNL     1       7.549  31.863  61.016  1.00  0.00     0.063 A 
HETATM    8  C   UNL     1       7.020  31.794  59.720  1.00  0.00     0.037 A 
HETATM    9  C   UNL     1       5.770  32.372  59.443  1.00  0.00     0.032 A 
HETATM   10  C   UNL     1       5.018  33.026  60.426  1.00  0.00     0.034 A 
ENDROOT
BRANCH   1  11
HETATM   11  C   UNL     1       5.900  33.778  65.260  1.00  0.00     0.010 A 
HETATM   12  C   UNL     1       4.639  33.867  65.862  1.00  0.00     0.017 A 
HETATM   13  C   UNL     1       4.505  34.199  67.216  1.00  0.00     0.030 A 
HETATM   14  C   UNL     1       5.629  34.457  67.999  1.00  0.00     0.035 A 
HETATM   15  C   UNL     1       6.890  34.409  67.397  1.00  0.00     0.030 A 
HETATM   16  C   UNL     1       7.024  34.073  66.042  1.00  0.00     0.017 A 
BRANCH  14  17
HETATM   17  N   UNL     1       5.573  34.755  69.374  1.00  0.00    -0.321 N 
HETATM   18  C   UNL     1       6.082  34.017  70.430  1.00  0.00     0.279 C 
HETATM   19  O   UNL     1       6.659  32.939  70.333  1.00  0.00    -0.265 OA
HETATM   20  H   UNL     1       5.150  35.638  69.640  1.00  0.00     0.169 HD
BRANCH  18  21
HETATM   21  C   UNL     1       5.886  34.664  71.716  1.00  0.00     0.142 A 
HETATM   22  O   UNL     1       4.711  34.476  72.398  1.00  0.00    -0.317 OA
HETATM   23  C   UNL     1       4.800  35.192  73.550  1.00  0.00     0.143 A 
HETATM   24  C   UNL     1       6.008  35.844  73.622  1.00  0.00     0.027 A 
HETATM   25  C   UNL     1       6.710  35.504  72.441  1.00  0.00     0.045 A 
ENDBRANCH  18  21
ENDBRANCH  14  17
ENDBRANCH   1  11
BRANCH   8  26
HETATM   26  N   UNL     1       7.666  31.166  58.638  1.00  0.00    -0.321 N 
HETATM   27  C   UNL     1       7.258  30.069  57.902  1.00  0.00     0.279 C 
HETATM   28  O   UNL     1       6.226  29.432  58.079  1.00  0.00    -0.265 OA
HETATM   29  H   UNL     1       8.553  31.558  58.339  1.00  0.00     0.169 HD
BRANCH  27  30
HETATM   30  C   UNL     1       8.209  29.727  56.856  1.00  0.00     0.142 A 
HETATM   31  O   UNL     1       9.532  30.063  57.014  1.00  0.00    -0.317 OA
HETATM   32  C   UNL     1      10.189  29.635  55.905  1.00  0.00     0.143 A 
HETATM   33  C   UNL     1       9.318  29.028  55.032  1.00  0.00     0.027 A 
HETATM   34  C   UNL     1       8.042  29.087  55.643  1.00  0.00     0.045 A 
ENDBRANCH  27  30
ENDBRANCH   8  26
TORSDOF 5
ENDMDL
MODEL 6
REMARK VINA RESULT:      -8.9      3.491     12.089
REMARK  5 active torsions:
REMARK  status: ('A' for Active; 'I' for Inactive)
REMARK    1  A    between atoms: C_4  and  C_5 
REMARK       I    between atoms: C_5  and  N_6 
REMARK    2  A    between atoms: N_6  and  C_7 
REMARK    3  A    between atoms: C_10  and  C_11 
REMARK    4  A    between atoms: C_18  and  N_19 
REMARK       I    between atoms: N_19  and  C_20 
REMARK    5  A    between atoms: C_20  and  C_21 
ROOT
HETATM    1  C   UNL     1       7.031  30.867  58.828  1.00  0.00     0.139 A 
HETATM    2  N   UNL     1       6.161  31.562  59.541  1.00  0.00    -0.228 NA
HETATM    3  C   UNL     1       6.775  31.842  60.741  1.00  0.00     0.088 A 
HETATM    4  C   UNL     1       8.051  31.301  60.771  1.00  0.00     0.063 A 
HETATM    5  N   UNL     1       8.189  30.692  59.553  1.00  0.00    -0.338 N 
HETATM    6  H   UNL     1       8.997  30.172  59.250  1.00  0.00     0.167 HD
HETATM    7  C   UNL     1       6.300  32.550  61.859  1.00  0.00     0.063 A 
HETATM    8  C   UNL     1       7.133  32.684  62.979  1.00  0.00     0.037 A 
HETATM    9  C   UNL     1       8.418  32.117  62.967  1.00  0.00     0.032 A 
HETATM   10  C   UNL     1       8.909  31.412  61.862  1.00  0.00     0.034 A 
ENDROOT
BRANCH   1  11
HETATM   11  C   UNL     1       6.818  30.306  57.490  1.00  0.00     0.010 A 
HETATM   12  C   UNL     1       7.766  29.486  56.865  1.00  0.00     0.017 A 
HETATM   13  C   UNL     1       7.513  28.916  55.610  1.00  0.00     0.030 A 
HETATM   14  C   UNL     1       6.311  29.156  54.949  1.00  0.00     0.035 A 
HETATM   15  C   UNL     1       5.375  30.005  55.549  1.00  0.00     0.030 A 
HETATM   16  C   UNL     1       5.626  30.573  56.805  1.00  0.00     0.017 A 
BRANCH  14  17
HETATM   17  N   UNL     1       5.972  28.584  53.708  1.00  0.00    -0.321 N 
HETATM   18  C   UNL     1       5.500  27.307  53.456  1.00  0.00     0.279 C 
HETATM   19  O   UNL     1       5.322  26.434  54.299  1.00  0.00    -0.265 OA
HETATM   20  H   UNL     1       6.033  29.182  52.890  1.00  0.00     0.169 HD
BRANCH  18  21
HETATM   21  C   UNL     1       5.202  27.083  52.051  1.00  0.00     0.142 A 
HETATM   22  O   UNL     1       4.750  28.123  51.279  1.00  0.00    -0.317 OA
HETATM   23  C   UNL     1       4.552  27.632  50.027  1.00  0.00     0.143 A 
HETATM   24  C   UNL     1       4.863  26.294  49.977  1.00  0.00     0.027 A 
HETATM   25  C   UNL     1       5.284  25.939  51.280  1.00  0.00     0.045 A 
ENDBRANCH  18  21
ENDBRANCH  14  17
ENDBRANCH   1  11
BRANCH   8  26
HETATM   26  N   UNL     1       6.767  33.365  64.156  1.00  0.00    -0.321 N 
HETATM   27  C   UNL     1       5.555  33.356  64.821  1.00  0.00     0.279 C 
HETATM   28  O   UNL     1       4.555  32.732  64.482  1.00  0.00    -0.265 OA
HETATM   29  H   UNL     1       7.475  33.944  64.594  1.00  0.00     0.169 HD
BRANCH  27  30
HETATM   30  C   UNL     1       5.578  34.192  66.011  1.00  0.00     0.142 A 
HETATM   31  O   UNL     1       4.605  35.147  66.182  1.00  0.00    -0.317 OA
HETATM   32  C   UNL     1       4.862  35.776  67.358  1.00  0.00     0.143 A 
HETATM   33  C   UNL     1       5.983  35.248  67.953  1.00  0.00     0.027 A 
HETATM   34  C   UNL     1       6.446  34.228  67.087  1.00  0.00     0.045 A 
ENDBRANCH  27  30
ENDBRANCH   8  26
TORSDOF 5
ENDMDL
MODEL 7
REMARK VINA RESULT:      -8.8      4.415     12.152
REMARK  5 active torsions:
REMARK  status: ('A' for Active; 'I' for Inactive)
REMARK    1  A    between atoms: C_4  and  C_5 
REMARK       I    between atoms: C_5  and  N_6 
REMARK    2  A    between atoms: N_6  and  C_7 
REMARK    3  A    between atoms: C_10  and  C_11 
REMARK    4  A    between atoms: C_18  and  N_19 
REMARK       I    between atoms: N_19  and  C_20 
REMARK    5  A    between atoms: C_20  and  C_21 
ROOT
HETATM    1  C   UNL     1       4.764  30.657  56.586  1.00  0.00     0.139 A 
HETATM    2  N   UNL     1       3.972  31.226  57.480  1.00  0.00    -0.228 NA
HETATM    3  C   UNL     1       4.781  31.615  58.525  1.00  0.00     0.088 A 
HETATM    4  C   UNL     1       6.100  31.272  58.272  1.00  0.00     0.063 A 
HETATM    5  N   UNL     1       6.063  30.671  57.043  1.00  0.00    -0.338 N 
HETATM    6  H   UNL     1       6.856  30.273  56.565  1.00  0.00     0.167 HD
HETATM    7  C   UNL     1       4.455  32.261  59.730  1.00  0.00     0.063 A 
HETATM    8  C   UNL     1       5.479  32.538  60.647  1.00  0.00     0.037 A 
HETATM    9  C   UNL     1       6.802  32.170  60.351  1.00  0.00     0.032 A 
HETATM   10  C   UNL     1       7.145  31.528  59.155  1.00  0.00     0.034 A 
ENDROOT
BRANCH   1  11
HETATM   11  C   UNL     1       4.356  30.049  55.316  1.00  0.00     0.010 A 
HETATM   12  C   UNL     1       3.771  30.795  54.285  1.00  0.00     0.017 A 
HETATM   13  C   UNL     1       3.443  30.201  53.059  1.00  0.00     0.030 A 
HETATM   14  C   UNL     1       3.685  28.847  52.837  1.00  0.00     0.035 A 
HETATM   15  C   UNL     1       4.232  28.086  53.875  1.00  0.00     0.030 A 
HETATM   16  C   UNL     1       4.564  28.681  55.101  1.00  0.00     0.017 A 
BRANCH  14  17
HETATM   17  N   UNL     1       3.421  28.194  51.619  1.00  0.00    -0.321 N 
HETATM   18  C   UNL     1       4.171  28.218  50.455  1.00  0.00     0.279 C 
HETATM   19  O   UNL     1       5.207  28.855  50.288  1.00  0.00    -0.265 OA
HETATM   20  H   UNL     1       2.605  27.590  51.584  1.00  0.00     0.169 HD
BRANCH  18  21
HETATM   21  C   UNL     1       3.618  27.375  49.409  1.00  0.00     0.142 A 
HETATM   22  O   UNL     1       2.413  27.702  48.840  1.00  0.00    -0.317 OA
HETATM   23  C   UNL     1       2.141  26.750  47.909  1.00  0.00     0.143 A 
HETATM   24  C   UNL     1       3.144  25.812  47.869  1.00  0.00     0.027 A 
HETATM   25  C   UNL     1       4.097  26.214  48.834  1.00  0.00     0.045 A 
ENDBRANCH  18  21
ENDBRANCH  14  17
ENDBRANCH   1  11
BRANCH   8  26
HETATM   26  N   UNL     1       5.275  33.175  61.887  1.00  0.00    -0.321 N 
HETATM   27  C   UNL     1       5.018  32.608  63.121  1.00  0.00     0.279 C 
HETATM   28  O   UNL     1       4.917  31.408  63.351  1.00  0.00    -0.265 OA
HETATM   29  H   UNL     1       5.322  34.188  61.898  1.00  0.00     0.169 HD
BRANCH  27  30
HETATM   30  C   UNL     1       4.873  33.612  64.164  1.00  0.00     0.142 A 
HETATM   31  O   UNL     1       4.424  33.231  65.406  1.00  0.00    -0.317 OA
HETATM   32  C   UNL     1       4.381  34.349  66.176  1.00  0.00     0.143 A 
HETATM   33  C   UNL     1       4.792  35.446  65.458  1.00  0.00     0.027 A 
HETATM   34  C   UNL     1       5.109  34.973  64.162  1.00  0.00     0.045 A 
ENDBRANCH  27  30
ENDBRANCH   8  26
TORSDOF 5
ENDMDL
MODEL 8
REMARK VINA RESULT:      -8.8      4.835      6.417
REMARK  5 active torsions:
REMARK  status: ('A' for Active; 'I' for Inactive)
REMARK    1  A    between atoms: C_4  and  C_5 
REMARK       I    between atoms: C_5  and  N_6 
REMARK    2  A    between atoms: N_6  and  C_7 
REMARK    3  A    between atoms: C_10  and  C_11 
REMARK    4  A    between atoms: C_18  and  N_19 
REMARK       I    between atoms: N_19  and  C_20 
REMARK    5  A    between atoms: C_20  and  C_21 
ROOT
HETATM    1  C   UNL     1       6.391  32.157  60.690  1.00  0.00     0.139 A 
HETATM    2  N   UNL     1       5.421  32.374  59.817  1.00  0.00    -0.228 NA
HETATM    3  C   UNL     1       5.765  31.688  58.674  1.00  0.00     0.088 A 
HETATM    4  C   UNL     1       6.978  31.038  58.843  1.00  0.00     0.063 A 
HETATM    5  N   UNL     1       7.352  31.348  60.123  1.00  0.00    -0.338 N 
HETATM    6  H   UNL     1       8.209  31.058  60.566  1.00  0.00     0.167 HD
HETATM    7  C   UNL     1       5.091  31.580  57.445  1.00  0.00     0.063 A 
HETATM    8  C   UNL     1       5.670  30.818  56.420  1.00  0.00     0.037 A 
HETATM    9  C   UNL     1       6.903  30.179  56.635  1.00  0.00     0.032 A 
HETATM   10  C   UNL     1       7.587  30.273  57.852  1.00  0.00     0.034 A 
ENDROOT
BRANCH   1  11
HETATM   11  C   UNL     1       6.493  32.712  62.043  1.00  0.00     0.010 A 
HETATM   12  C   UNL     1       5.573  33.646  62.537  1.00  0.00     0.017 A 
HETATM   13  C   UNL     1       5.658  34.118  63.854  1.00  0.00     0.030 A 
HETATM   14  C   UNL     1       6.667  33.673  64.705  1.00  0.00     0.035 A 
HETATM   15  C   UNL     1       7.613  32.771  64.207  1.00  0.00     0.030 A 
HETATM   16  C   UNL     1       7.526  32.296  62.891  1.00  0.00     0.017 A 
BRANCH  14  17
HETATM   17  N   UNL     1       6.789  34.071  66.049  1.00  0.00    -0.321 N 
HETATM   18  C   UNL     1       5.795  34.159  67.009  1.00  0.00     0.279 C 
HETATM   19  O   UNL     1       4.605  33.920  66.825  1.00  0.00    -0.265 OA
HETATM   20  H   UNL     1       7.723  34.281  66.387  1.00  0.00     0.169 HD
BRANCH  18  21
HETATM   21  C   UNL     1       6.301  34.554  68.312  1.00  0.00     0.142 A 
HETATM   22  O   UNL     1       5.438  34.654  69.374  1.00  0.00    -0.317 OA
HETATM   23  C   UNL     1       6.174  35.041  70.449  1.00  0.00     0.143 A 
HETATM   24  C   UNL     1       7.494  35.198  70.101  1.00  0.00     0.027 A 
HETATM   25  C   UNL     1       7.578  34.884  68.724  1.00  0.00     0.045 A 
ENDBRANCH  18  21
ENDBRANCH  14  17
ENDBRANCH   1  11
BRANCH   8  26
HETATM   26  N   UNL     1       5.093  30.641  55.148  1.00  0.00    -0.321 N 
HETATM   27  C   UNL     1       4.416  29.544  54.648  1.00  0.00     0.279 C 
HETATM   28  O   UNL     1       4.199  28.500  55.253  1.00  0.00    -0.265 OA
HETATM   29  H   UNL     1       5.173  31.412  54.494  1.00  0.00     0.169 HD
BRANCH  27  30
HETATM   30  C   UNL     1       3.968  29.755  53.281  1.00  0.00     0.142 A 
HETATM   31  O   UNL     1       4.419  30.851  52.586  1.00  0.00    -0.317 OA
HETATM   32  C   UNL     1       3.851  30.806  51.353  1.00  0.00     0.143 A 
HETATM   33  C   UNL     1       3.041  29.701  51.235  1.00  0.00     0.027 A 
HETATM   34  C   UNL     1       3.115  29.023  52.475  1.00  0.00     0.045 A 
ENDBRANCH  27  30
ENDBRANCH   8  26
TORSDOF 5
ENDMDL
MODEL 9
REMARK VINA RESULT:      -8.6      4.748      5.368
REMARK  5 active torsions:
REMARK  status: ('A' for Active; 'I' for Inactive)
REMARK    1  A    between atoms: C_4  and  C_5 
REMARK       I    between atoms: C_5  and  N_6 
REMARK    2  A    between atoms: N_6  and  C_7 
REMARK    3  A    between atoms: C_10  and  C_11 
REMARK    4  A    between atoms: C_18  and  N_19 
REMARK       I    between atoms: N_19  and  C_20 
REMARK    5  A    between atoms: C_20  and  C_21 
ROOT
HETATM    1  C   UNL     1       4.506  31.106  56.486  1.00  0.00     0.139 A 
HETATM    2  N   UNL     1       4.588  29.902  55.946  1.00  0.00    -0.228 NA
HETATM    3  C   UNL     1       4.148  30.027  54.647  1.00  0.00     0.088 A 
HETATM    4  C   UNL     1       3.780  31.337  54.383  1.00  0.00     0.063 A 
HETATM    5  N   UNL     1       4.017  31.998  55.558  1.00  0.00    -0.338 N 
HETATM    6  H   UNL     1       3.831  32.974  55.725  1.00  0.00     0.167 HD
HETATM    7  C   UNL     1       4.028  29.059  53.634  1.00  0.00     0.063 A 
HETATM    8  C   UNL     1       3.533  29.449  52.382  1.00  0.00     0.037 A 
HETATM    9  C   UNL     1       3.170  30.787  52.159  1.00  0.00     0.032 A 
HETATM   10  C   UNL     1       3.285  31.765  53.154  1.00  0.00     0.034 A 
ENDROOT
BRANCH   1  11
HETATM   11  C   UNL     1       4.828  31.469  57.871  1.00  0.00     0.010 A 
HETATM   12  C   UNL     1       6.144  31.497  58.348  1.00  0.00     0.017 A 
HETATM   13  C   UNL     1       6.430  31.903  59.658  1.00  0.00     0.030 A 
HETATM   14  C   UNL     1       5.407  32.284  60.523  1.00  0.00     0.035 A 
HETATM   15  C   UNL     1       4.086  32.222  60.067  1.00  0.00     0.030 A 
HETATM   16  C   UNL     1       3.801  31.819  58.755  1.00  0.00     0.017 A 
BRANCH  14  17
HETATM   17  N   UNL     1       5.623  32.742  61.837  1.00  0.00    -0.321 N 
HETATM   18  C   UNL     1       5.235  32.146  63.025  1.00  0.00     0.279 C 
HETATM   19  O   UNL     1       4.598  31.102  63.123  1.00  0.00    -0.265 OA
HETATM   20  H   UNL     1       6.167  33.592  61.947  1.00  0.00     0.169 HD
BRANCH  18  21
HETATM   21  C   UNL     1       5.681  32.880  64.196  1.00  0.00     0.142 A 
HETATM   22  O   UNL     1       4.779  33.208  65.177  1.00  0.00    -0.317 OA
HETATM   23  C   UNL     1       5.462  33.886  66.136  1.00  0.00     0.143 A 
HETATM   24  C   UNL     1       6.787  34.007  65.792  1.00  0.00     0.027 A 
HETATM   25  C   UNL     1       6.930  33.358  64.543  1.00  0.00     0.045 A 
ENDBRANCH  18  21
ENDBRANCH  14  17
ENDBRANCH   1  11
BRANCH   8  26
HETATM   26  N   UNL     1       3.363  28.571  51.294  1.00  0.00    -0.321 N 
HETATM   27  C   UNL     1       4.249  28.272  50.275  1.00  0.00     0.279 C 
HETATM   28  O   UNL     1       5.373  28.742  50.142  1.00  0.00    -0.265 OA
HETATM   29  H   UNL     1       2.478  28.079  51.231  1.00  0.00     0.169 HD
BRANCH  27  30
HETATM   30  C   UNL     1       3.697  27.307  49.337  1.00  0.00     0.142 A 
HETATM   31  O   UNL     1       2.491  27.569  48.734  1.00  0.00    -0.317 OA
HETATM   32  C   UNL     1       2.213  26.518  47.919  1.00  0.00     0.143 A 
HETATM   33  C   UNL     1       3.217  25.581  47.982  1.00  0.00     0.027 A 
HETATM   34  C   UNL     1       4.173  26.087  48.895  1.00  0.00     0.045 A 
ENDBRANCH  27  30
ENDBRANCH   8  26
TORSDOF 5
ENDMDL
MODEL 10
REMARK VINA RESULT:      -8.5      2.009     12.375
REMARK  5 active torsions:
REMARK  status: ('A' for Active; 'I' for Inactive)
REMARK    1  A    between atoms: C_4  and  C_5 
REMARK       I    between atoms: C_5  and  N_6 
REMARK    2  A    between atoms: N_6  and  C_7 
REMARK    3  A    between atoms: C_10  and  C_11 
REMARK    4  A    between atoms: C_18  and  N_19 
REMARK       I    between atoms: N_19  and  C_20 
REMARK    5  A    between atoms: C_20  and  C_21 
ROOT
HETATM    1  C   UNL     1       5.744  29.384  56.509  1.00  0.00     0.139 A 
HETATM    2  N   UNL     1       5.576  29.775  57.761  1.00  0.00    -0.228 NA
HETATM    3  C   UNL     1       5.239  31.109  57.710  1.00  0.00     0.088 A 
HETATM    4  C   UNL     1       5.205  31.552  56.397  1.00  0.00     0.063 A 
HETATM    5  N   UNL     1       5.526  30.445  55.659  1.00  0.00    -0.338 N 
HETATM    6  H   UNL     1       5.620  30.421  54.656  1.00  0.00     0.167 HD
HETATM    7  C   UNL     1       4.953  32.012  58.750  1.00  0.00     0.063 A 
HETATM    8  C   UNL     1       4.646  33.341  58.427  1.00  0.00     0.037 A 
HETATM    9  C   UNL     1       4.626  33.747  57.082  1.00  0.00     0.032 A 
HETATM   10  C   UNL     1       4.905  32.862  56.034  1.00  0.00     0.034 A 
ENDROOT
BRANCH   1  11
HETATM   11  C   UNL     1       6.150  28.049  56.055  1.00  0.00     0.010 A 
HETATM   12  C   UNL     1       7.126  27.862  55.068  1.00  0.00     0.017 A 
HETATM   13  C   UNL     1       7.537  26.576  54.693  1.00  0.00     0.030 A 
HETATM   14  C   UNL     1       6.979  25.448  55.292  1.00  0.00     0.035 A 
HETATM   15  C   UNL     1       5.977  25.626  56.251  1.00  0.00     0.030 A 
HETATM   16  C   UNL     1       5.567  26.912  56.628  1.00  0.00     0.017 A 
BRANCH  14  17
HETATM   17  N   UNL     1       7.373  24.129  54.997  1.00  0.00    -0.321 N 
HETATM   18  C   UNL     1       7.161  23.415  53.829  1.00  0.00     0.279 C 
HETATM   19  O   UNL     1       6.553  23.823  52.845  1.00  0.00    -0.265 OA
HETATM   20  H   UNL     1       7.920  23.641  55.698  1.00  0.00     0.169 HD
BRANCH  18  21
HETATM   21  C   UNL     1       7.761  22.092  53.861  1.00  0.00     0.142 A 
HETATM   22  O   UNL     1       8.158  21.555  55.059  1.00  0.00    -0.317 OA
HETATM   23  C   UNL     1       8.680  20.329  54.793  1.00  0.00     0.143 A 
HETATM   24  C   UNL     1       8.633  20.066  53.445  1.00  0.00     0.027 A 
HETATM   25  C   UNL     1       8.040  21.200  52.843  1.00  0.00     0.045 A 
ENDBRANCH  18  21
ENDBRANCH  14  17
ENDBRANCH   1  11
BRANCH   8  26
HETATM   26  N   UNL     1       4.348  34.335  59.379  1.00  0.00    -0.321 N 
HETATM   27  C   UNL     1       3.168  34.551  60.066  1.00  0.00     0.279 C 
HETATM   28  O   UNL     1       2.142  33.889  59.955  1.00  0.00    -0.265 OA
HETATM   29  H   UNL     1       5.087  34.991  59.607  1.00  0.00     0.169 HD
BRANCH  27  30
HETATM   30  C   UNL     1       3.263  35.686  60.971  1.00  0.00     0.142 A 
HETATM   31  O   UNL     1       3.480  36.941  60.456  1.00  0.00    -0.317 OA
HETATM   32  C   UNL     1       3.527  37.803  61.505  1.00  0.00     0.143 A 
HETATM   33  C   UNL     1       3.344  37.130  62.689  1.00  0.00     0.027 A 
HETATM   34  C   UNL     1       3.174  35.767  62.348  1.00  0.00     0.045 A 
ENDBRANCH  27  30
ENDBRANCH   8  26
TORSDOF 5
ENDMDL
