MODEL 1
REMARK VINA RESULT:     -11.0      0.000      0.000
REMARK  5 active torsions:
REMARK  status: ('A' for Active; 'I' for Inactive)
REMARK    1  A    between atoms: C_6  and  S_7 
REMARK    2  A    between atoms: S_7  and  C_8 
REMARK    3  A    between atoms: C_8  and  C_9 
REMARK       I    between atoms: C_9  and  N_10 
REMARK    4  A    between atoms: N_10  and  C_11 
REMARK    5  A    between atoms: N_22  and  C_23 
ROOT
HETATM    1  C   UNL     1       8.324  20.609  56.307  1.00  0.00     0.001 A 
HETATM    2  C   UNL     1       8.362  21.877  56.887  1.00  0.00     0.019 A 
HETATM    3  C   UNL     1       8.071  23.005  56.110  1.00  0.00     0.061 A 
HETATM    4  C   UNL     1       7.752  22.879  54.763  1.00  0.00     0.075 A 
HETATM    5  N   UNL     1       7.526  23.988  53.947  1.00  0.00    -0.223 NA
HETATM    6  C   UNL     1       7.499  25.166  54.487  1.00  0.00     0.177 A 
HETATM    7  N   UNL     1       7.692  25.412  55.849  1.00  0.00    -0.256 N 
HETATM    8  C   UNL     1       8.051  24.356  56.700  1.00  0.00     0.267 A 
HETATM    9  O   UNL     1       8.303  24.456  57.899  1.00  0.00    -0.267 OA
HETATM   10  C   UNL     1       7.702  21.603  54.195  1.00  0.00     0.032 A 
HETATM   11  C   UNL     1       7.989  20.471  54.962  1.00  0.00     0.002 A 
ENDROOT
BRANCH   6  12
HETATM   12  S   UNL     1       7.365  26.523  53.369  1.00  0.00    -0.082 SA
BRANCH  12  13
HETATM   13  C   UNL     1       7.008  25.689  51.795  1.00  0.00     0.185 C 
BRANCH  13  14
HETATM   14  C   UNL     1       5.559  25.877  51.358  1.00  0.00     0.231 C 
HETATM   15  N   UNL     1       5.413  26.710  50.265  1.00  0.00    -0.326 N 
HETATM   16  H   UNL     1       6.266  27.172  49.952  1.00  0.00     0.169 HD
HETATM   17  O   UNL     1       4.651  25.278  51.930  1.00  0.00    -0.272 OA
BRANCH  15  18
HETATM   18  C   UNL     1       4.236  27.025  49.557  1.00  0.00     0.037 A 
HETATM   19  C   UNL     1       3.801  26.322  48.427  1.00  0.00     0.061 A 
HETATM   20  C   UNL     1       2.652  26.771  47.816  1.00  0.00     0.065 A 
HETATM   21  C   UNL     1       1.933  27.868  48.285  1.00  0.00     0.063 A 
HETATM   22  N   UNL     1       2.003  26.290  46.684  1.00  0.00    -0.306 N 
HETATM   23  N   UNL     1       0.844  28.060  47.445  1.00  0.00    -0.307 N 
HETATM   24  C   UNL     1       2.322  28.573  49.394  1.00  0.00     0.034 A 
HETATM   25  C   UNL     1       0.875  27.084  46.438  1.00  0.00     0.325 A 
HETATM   26  H   UNL     1       0.134  28.771  47.511  1.00  0.00     0.170 HD
HETATM   27  O   UNL     1       0.076  26.957  45.527  1.00  0.00    -0.247 OA
HETATM   28  C   UNL     1       3.491  28.139  50.031  1.00  0.00     0.032 A 
HETATM   29  H   UNL     1       2.277  25.505  46.114  1.00  0.00     0.170 HD
ENDBRANCH  15  18
ENDBRANCH  13  14
ENDBRANCH  12  13
ENDBRANCH   6  12
BRANCH   7  30
HETATM   30  C   UNL     1       7.482  26.699  56.455  1.00  0.00     0.046 A 
HETATM   31  C   UNL     1       8.573  27.517  56.797  1.00  0.00     0.057 A 
HETATM   32  C   UNL     1       8.369  28.746  57.428  1.00  0.00     0.074 A 
HETATM   33 CL   UNL     1       9.725  29.731  57.822  1.00  0.00    -0.081 Cl
HETATM   34  C   UNL     1       7.078  29.164  57.734  1.00  0.00     0.138 A 
HETATM   35  F   UNL     1       6.860  30.338  58.345  1.00  0.00    -0.204 F 
HETATM   36  C   UNL     1       5.985  28.364  57.419  1.00  0.00     0.046 A 
HETATM   37  C   UNL     1       6.187  27.134  56.787  1.00  0.00     0.033 A 
ENDBRANCH   7  30
TORSDOF 5
ENDMDL
MODEL 2
REMARK VINA RESULT:     -10.4      2.989      5.078
REMARK  5 active torsions:
REMARK  status: ('A' for Active; 'I' for Inactive)
REMARK    1  A    between atoms: C_6  and  S_7 
REMARK    2  A    between atoms: S_7  and  C_8 
REMARK    3  A    between atoms: C_8  and  C_9 
REMARK       I    between atoms: C_9  and  N_10 
REMARK    4  A    between atoms: N_10  and  C_11 
REMARK    5  A    between atoms: N_22  and  C_23 
ROOT
HETATM    1  C   UNL     1       7.691  29.210  57.788  1.00  0.00     0.001 A 
HETATM    2  C   UNL     1       7.940  27.860  57.542  1.00  0.00     0.019 A 
HETATM    3  C   UNL     1       7.328  27.228  56.452  1.00  0.00     0.061 A 
HETATM    4  C   UNL     1       6.468  27.927  55.614  1.00  0.00     0.075 A 
HETATM    5  N   UNL     1       5.790  27.309  54.563  1.00  0.00    -0.223 NA
HETATM    6  C   UNL     1       6.058  26.072  54.288  1.00  0.00     0.177 A 
HETATM    7  N   UNL     1       6.987  25.294  54.985  1.00  0.00    -0.256 N 
HETATM    8  C   UNL     1       7.607  25.816  56.131  1.00  0.00     0.267 A 
HETATM    9  O   UNL     1       8.394  25.213  56.859  1.00  0.00    -0.267 OA
HETATM   10  C   UNL     1       6.237  29.284  55.860  1.00  0.00     0.032 A 
HETATM   11  C   UNL     1       6.843  29.924  56.944  1.00  0.00     0.002 A 
ENDROOT
BRANCH   6  12
HETATM   12  S   UNL     1       5.051  25.321  53.052  1.00  0.00    -0.082 SA
BRANCH  12  13
HETATM   13  C   UNL     1       5.749  26.005  51.521  1.00  0.00     0.185 C 
BRANCH  13  14
HETATM   14  C   UNL     1       4.816  27.018  50.865  1.00  0.00     0.231 C 
HETATM   15  N   UNL     1       4.507  26.718  49.552  1.00  0.00    -0.326 N 
HETATM   16  H   UNL     1       5.012  25.926  49.155  1.00  0.00     0.169 HD
HETATM   17  O   UNL     1       4.371  27.965  51.507  1.00  0.00    -0.272 OA
BRANCH  15  18
HETATM   18  C   UNL     1       3.614  27.384  48.689  1.00  0.00     0.037 A 
HETATM   19  C   UNL     1       2.362  26.872  48.326  1.00  0.00     0.061 A 
HETATM   20  C   UNL     1       1.615  27.619  47.442  1.00  0.00     0.065 A 
HETATM   21  C   UNL     1       2.059  28.833  46.925  1.00  0.00     0.063 A 
HETATM   22  N   UNL     1       0.362  27.357  46.897  1.00  0.00    -0.306 N 
HETATM   23  N   UNL     1       1.082  29.318  46.065  1.00  0.00    -0.307 N 
HETATM   24  C   UNL     1       3.273  29.370  47.266  1.00  0.00     0.034 A 
HETATM   25  C   UNL     1       0.017  28.406  46.034  1.00  0.00     0.325 A 
HETATM   26  H   UNL     1       1.101  30.172  45.532  1.00  0.00     0.170 HD
HETATM   27  O   UNL     1      -1.006  28.508  45.381  1.00  0.00    -0.247 OA
HETATM   28  C   UNL     1       4.054  28.627  48.160  1.00  0.00     0.032 A 
HETATM   29  H   UNL     1      -0.220  26.554  47.073  1.00  0.00     0.170 HD
ENDBRANCH  15  18
ENDBRANCH  13  14
ENDBRANCH  12  13
ENDBRANCH   6  12
BRANCH   7  30
HETATM   30  C   UNL     1       7.401  23.986  54.556  1.00  0.00     0.046 A 
HETATM   31  C   UNL     1       7.279  22.879  55.413  1.00  0.00     0.057 A 
HETATM   32  C   UNL     1       7.724  21.617  55.012  1.00  0.00     0.074 A 
HETATM   33 CL   UNL     1       7.549  20.278  56.079  1.00  0.00    -0.081 Cl
HETATM   34  C   UNL     1       8.305  21.451  53.759  1.00  0.00     0.138 A 
HETATM   35  F   UNL     1       8.744  20.250  53.356  1.00  0.00    -0.204 F 
HETATM   36  C   UNL     1       8.450  22.536  52.901  1.00  0.00     0.046 A 
HETATM   37  C   UNL     1       8.005  23.800  53.300  1.00  0.00     0.033 A 
ENDBRANCH   7  30
TORSDOF 5
ENDMDL
MODEL 3
REMARK VINA RESULT:     -10.4      1.950      2.167
REMARK  5 active torsions:
REMARK  status: ('A' for Active; 'I' for Inactive)
REMARK    1  A    between atoms: C_6  and  S_7 
REMARK    2  A    between atoms: S_7  and  C_8 
REMARK    3  A    between atoms: C_8  and  C_9 
REMARK       I    between atoms: C_9  and  N_10 
REMARK    4  A    between atoms: N_10  and  C_11 
REMARK    5  A    between atoms: N_22  and  C_23 
ROOT
HETATM    1  C   UNL     1       8.810  19.987  55.110  1.00  0.00     0.001 A 
HETATM    2  C   UNL     1       8.563  21.177  55.793  1.00  0.00     0.019 A 
HETATM    3  C   UNL     1       8.163  22.317  55.083  1.00  0.00     0.061 A 
HETATM    4  C   UNL     1       8.015  22.279  53.703  1.00  0.00     0.075 A 
HETATM    5  N   UNL     1       7.686  23.414  52.960  1.00  0.00    -0.223 NA
HETATM    6  C   UNL     1       7.397  24.510  53.589  1.00  0.00     0.177 A 
HETATM    7  N   UNL     1       7.399  24.643  54.980  1.00  0.00    -0.256 N 
HETATM    8  C   UNL     1       7.845  23.578  55.778  1.00  0.00     0.267 A 
HETATM    9  O   UNL     1       7.947  23.593  57.003  1.00  0.00    -0.267 OA
HETATM   10  C   UNL     1       8.250  21.078  53.027  1.00  0.00     0.032 A 
HETATM   11  C   UNL     1       8.648  19.936  53.727  1.00  0.00     0.002 A 
ENDROOT
BRANCH   6  12
HETATM   12  S   UNL     1       7.146  25.934  52.581  1.00  0.00    -0.082 SA
BRANCH  12  13
HETATM   13  C   UNL     1       5.442  25.694  51.997  1.00  0.00     0.185 C 
BRANCH  13  14
HETATM   14  C   UNL     1       4.929  26.894  51.209  1.00  0.00     0.231 C 
HETATM   15  N   UNL     1       4.595  26.597  49.901  1.00  0.00    -0.326 N 
HETATM   16  H   UNL     1       4.824  25.652  49.597  1.00  0.00     0.169 HD
HETATM   17  O   UNL     1       4.798  27.988  51.752  1.00  0.00    -0.272 OA
BRANCH  15  18
HETATM   18  C   UNL     1       4.013  27.440  48.934  1.00  0.00     0.037 A 
HETATM   19  C   UNL     1       4.689  28.506  48.329  1.00  0.00     0.061 A 
HETATM   20  C   UNL     1       3.976  29.268  47.430  1.00  0.00     0.065 A 
HETATM   21  C   UNL     1       2.645  29.005  47.114  1.00  0.00     0.063 A 
HETATM   22  N   UNL     1       4.374  30.383  46.700  1.00  0.00    -0.306 N 
HETATM   23  N   UNL     1       2.226  29.955  46.191  1.00  0.00    -0.307 N 
HETATM   24  C   UNL     1       1.955  27.964  47.677  1.00  0.00     0.034 A 
HETATM   25  C   UNL     1       3.293  30.825  45.924  1.00  0.00     0.325 A 
HETATM   26  H   UNL     1       1.317  30.041  45.768  1.00  0.00     0.170 HD
HETATM   27  O   UNL     1       3.279  31.779  45.167  1.00  0.00    -0.247 OA
HETATM   28  C   UNL     1       2.656  27.177  48.600  1.00  0.00     0.032 A 
HETATM   29  H   UNL     1       5.280  30.823  46.709  1.00  0.00     0.170 HD
ENDBRANCH  15  18
ENDBRANCH  13  14
ENDBRANCH  12  13
ENDBRANCH   6  12
BRANCH   7  30
HETATM   30  C   UNL     1       6.903  25.807  55.662  1.00  0.00     0.046 A 
HETATM   31  C   UNL     1       7.791  26.760  56.191  1.00  0.00     0.057 A 
HETATM   32  C   UNL     1       7.310  27.867  56.894  1.00  0.00     0.074 A 
HETATM   33 CL   UNL     1       8.423  29.023  57.518  1.00  0.00    -0.081 Cl
HETATM   34  C   UNL     1       5.942  28.028  57.084  1.00  0.00     0.138 A 
HETATM   35  F   UNL     1       5.459  29.081  57.760  1.00  0.00    -0.204 F 
HETATM   36  C   UNL     1       5.046  27.090  56.583  1.00  0.00     0.046 A 
HETATM   37  C   UNL     1       5.525  25.981  55.879  1.00  0.00     0.033 A 
ENDBRANCH   7  30
TORSDOF 5
ENDMDL
MODEL 4
REMARK VINA RESULT:     -10.3      1.282      1.754
REMARK  5 active torsions:
REMARK  status: ('A' for Active; 'I' for Inactive)
REMARK    1  A    between atoms: C_6  and  S_7 
REMARK    2  A    between atoms: S_7  and  C_8 
REMARK    3  A    between atoms: C_8  and  C_9 
REMARK       I    between atoms: C_9  and  N_10 
REMARK    4  A    between atoms: N_10  and  C_11 
REMARK    5  A    between atoms: N_22  and  C_23 
ROOT
HETATM    1  C   UNL     1       8.125  21.793  56.143  1.00  0.00     0.001 A 
HETATM    2  C   UNL     1       8.342  23.022  56.767  1.00  0.00     0.019 A 
HETATM    3  C   UNL     1       8.048  24.209  56.085  1.00  0.00     0.061 A 
HETATM    4  C   UNL     1       7.548  24.180  54.789  1.00  0.00     0.075 A 
HETATM    5  N   UNL     1       7.310  25.345  54.058  1.00  0.00    -0.223 NA
HETATM    6  C   UNL     1       7.452  26.491  54.647  1.00  0.00     0.177 A 
HETATM    7  N   UNL     1       7.839  26.648  55.980  1.00  0.00    -0.256 N 
HETATM    8  C   UNL     1       8.216  25.524  56.730  1.00  0.00     0.267 A 
HETATM    9  O   UNL     1       8.628  25.539  57.888  1.00  0.00    -0.267 OA
HETATM   10  C   UNL     1       7.319  22.944  54.177  1.00  0.00     0.032 A 
HETATM   11  C   UNL     1       7.609  21.754  54.850  1.00  0.00     0.002 A 
ENDROOT
BRANCH   6  12
HETATM   12  S   UNL     1       7.286  27.912  53.617  1.00  0.00    -0.082 SA
BRANCH  12  13
HETATM   13  C   UNL     1       5.559  28.396  53.906  1.00  0.00     0.185 C 
BRANCH  13  14
HETATM   14  C   UNL     1       4.617  27.831  52.848  1.00  0.00     0.231 C 
HETATM   15  N   UNL     1       4.919  28.237  51.562  1.00  0.00    -0.326 N 
HETATM   16  H   UNL     1       5.659  28.935  51.489  1.00  0.00     0.169 HD
HETATM   17  O   UNL     1       3.722  27.051  53.162  1.00  0.00    -0.272 OA
BRANCH  15  18
HETATM   18  C   UNL     1       4.315  27.837  50.354  1.00  0.00     0.037 A 
HETATM   19  C   UNL     1       3.055  28.280  49.935  1.00  0.00     0.061 A 
HETATM   20  C   UNL     1       2.577  27.770  48.748  1.00  0.00     0.065 A 
HETATM   21  C   UNL     1       3.298  26.861  47.978  1.00  0.00     0.063 A 
HETATM   22  N   UNL     1       1.369  28.010  48.102  1.00  0.00    -0.306 N 
HETATM   23  N   UNL     1       2.537  26.544  46.860  1.00  0.00    -0.307 N 
HETATM   24  C   UNL     1       4.540  26.415  48.350  1.00  0.00     0.034 A 
HETATM   25  C   UNL     1       1.327  27.251  46.925  1.00  0.00     0.325 A 
HETATM   26  H   UNL     1       2.776  25.913  46.113  1.00  0.00     0.170 HD
HETATM   27  O   UNL     1       0.419  27.208  46.114  1.00  0.00    -0.247 OA
HETATM   28  C   UNL     1       5.046  26.914  49.557  1.00  0.00     0.032 A 
HETATM   29  H   UNL     1       0.627  28.620  48.407  1.00  0.00     0.170 HD
ENDBRANCH  15  18
ENDBRANCH  13  14
ENDBRANCH  12  13
ENDBRANCH   6  12
BRANCH   7  30
HETATM   30  C   UNL     1       7.816  27.913  56.664  1.00  0.00     0.046 A 
HETATM   31  C   UNL     1       8.995  28.661  56.828  1.00  0.00     0.057 A 
HETATM   32  C   UNL     1       8.980  29.867  57.532  1.00  0.00     0.074 A 
HETATM   33 CL   UNL     1      10.437  30.766  57.704  1.00  0.00    -0.081 Cl
HETATM   34  C   UNL     1       7.793  30.330  58.090  1.00  0.00     0.138 A 
HETATM   35  F   UNL     1       7.757  31.483  58.775  1.00  0.00    -0.204 F 
HETATM   36  C   UNL     1       6.618  29.599  57.955  1.00  0.00     0.046 A 
HETATM   37  C   UNL     1       6.630  28.392  57.249  1.00  0.00     0.033 A 
ENDBRANCH   7  30
TORSDOF 5
ENDMDL
MODEL 5
REMARK VINA RESULT:     -10.2      4.734      9.858
REMARK  5 active torsions:
REMARK  status: ('A' for Active; 'I' for Inactive)
REMARK    1  A    between atoms: C_6  and  S_7 
REMARK    2  A    between atoms: S_7  and  C_8 
REMARK    3  A    between atoms: C_8  and  C_9 
REMARK       I    between atoms: C_9  and  N_10 
REMARK    4  A    between atoms: N_10  and  C_11 
REMARK    5  A    between atoms: N_22  and  C_23 
ROOT
HETATM    1  C   UNL     1       8.078  22.405  53.861  1.00  0.00     0.001 A 
HETATM    2  C   UNL     1       7.171  23.250  53.222  1.00  0.00     0.019 A 
HETATM    3  C   UNL     1       6.922  24.525  53.745  1.00  0.00     0.061 A 
HETATM    4  C   UNL     1       7.563  24.959  54.899  1.00  0.00     0.075 A 
HETATM    5  N   UNL     1       7.284  26.196  55.482  1.00  0.00    -0.223 NA
HETATM    6  C   UNL     1       6.488  27.012  54.866  1.00  0.00     0.177 A 
HETATM    7  N   UNL     1       5.872  26.737  53.643  1.00  0.00    -0.256 N 
HETATM    8  C   UNL     1       6.009  25.464  53.068  1.00  0.00     0.267 A 
HETATM    9  O   UNL     1       5.471  25.084  52.030  1.00  0.00    -0.267 OA
HETATM   10  C   UNL     1       8.482  24.111  55.524  1.00  0.00     0.032 A 
HETATM   11  C   UNL     1       8.738  22.838  55.010  1.00  0.00     0.002 A 
ENDROOT
BRANCH   6  12
HETATM   12  S   UNL     1       6.065  28.483  55.740  1.00  0.00    -0.082 SA
BRANCH  12  13
HETATM   13  C   UNL     1       7.697  29.144  56.190  1.00  0.00     0.185 C 
BRANCH  13  14
HETATM   14  C   UNL     1       7.874  29.264  57.700  1.00  0.00     0.231 C 
HETATM   15  N   UNL     1       7.915  30.569  58.152  1.00  0.00    -0.326 N 
HETATM   16  H   UNL     1       7.926  31.282  57.423  1.00  0.00     0.169 HD
HETATM   17  O   UNL     1       7.918  28.259  58.405  1.00  0.00    -0.272 OA
BRANCH  15  18
HETATM   18  C   UNL     1       7.979  31.033  59.480  1.00  0.00     0.037 A 
HETATM   19  C   UNL     1       6.933  31.717  60.112  1.00  0.00     0.061 A 
HETATM   20  C   UNL     1       7.156  32.145  61.402  1.00  0.00     0.065 A 
HETATM   21  C   UNL     1       8.355  31.913  62.072  1.00  0.00     0.063 A 
HETATM   22  N   UNL     1       6.320  32.854  62.259  1.00  0.00    -0.306 N 
HETATM   23  N   UNL     1       8.257  32.477  63.338  1.00  0.00    -0.307 N 
HETATM   24  C   UNL     1       9.395  31.238  61.490  1.00  0.00     0.034 A 
HETATM   25  C   UNL     1       6.993  33.071  63.469  1.00  0.00     0.325 A 
HETATM   26  H   UNL     1       8.954  32.484  64.064  1.00  0.00     0.170 HD
HETATM   27  O   UNL     1       6.567  33.662  64.446  1.00  0.00    -0.247 OA
HETATM   28  C   UNL     1       9.196  30.797  60.176  1.00  0.00     0.032 A 
HETATM   29  H   UNL     1       5.384  33.173  62.067  1.00  0.00     0.170 HD
ENDBRANCH  15  18
ENDBRANCH  13  14
ENDBRANCH  12  13
ENDBRANCH   6  12
BRANCH   7  30
HETATM   30  C   UNL     1       5.140  27.719  52.890  1.00  0.00     0.046 A 
HETATM   31  C   UNL     1       5.794  28.538  51.953  1.00  0.00     0.057 A 
HETATM   32  C   UNL     1       5.091  29.523  51.257  1.00  0.00     0.074 A 
HETATM   33 CL   UNL     1       5.918  30.501  50.106  1.00  0.00    -0.081 Cl
HETATM   34  C   UNL     1       3.733  29.708  51.496  1.00  0.00     0.138 A 
HETATM   35  F   UNL     1       3.040  30.652  50.842  1.00  0.00    -0.204 F 
HETATM   36  C   UNL     1       3.069  28.920  52.429  1.00  0.00     0.046 A 
HETATM   37  C   UNL     1       3.771  27.932  53.128  1.00  0.00     0.033 A 
ENDBRANCH   7  30
TORSDOF 5
ENDMDL
MODEL 6
REMARK VINA RESULT:     -10.2      4.453      9.075
REMARK  5 active torsions:
REMARK  status: ('A' for Active; 'I' for Inactive)
REMARK    1  A    between atoms: C_6  and  S_7 
REMARK    2  A    between atoms: S_7  and  C_8 
REMARK    3  A    between atoms: C_8  and  C_9 
REMARK       I    between atoms: C_9  and  N_10 
REMARK    4  A    between atoms: N_10  and  C_11 
REMARK    5  A    between atoms: N_22  and  C_23 
ROOT
HETATM    1  C   UNL     1       8.274  24.056  55.376  1.00  0.00     0.001 A 
HETATM    2  C   UNL     1       7.911  24.329  54.057  1.00  0.00     0.019 A 
HETATM    3  C   UNL     1       6.922  25.286  53.793  1.00  0.00     0.061 A 
HETATM    4  C   UNL     1       6.292  25.963  54.829  1.00  0.00     0.075 A 
HETATM    5  N   UNL     1       5.256  26.870  54.602  1.00  0.00    -0.223 NA
HETATM    6  C   UNL     1       4.951  27.176  53.380  1.00  0.00     0.177 A 
HETATM    7  N   UNL     1       5.588  26.649  52.254  1.00  0.00    -0.256 N 
HETATM    8  C   UNL     1       6.548  25.637  52.411  1.00  0.00     0.267 A 
HETATM    9  O   UNL     1       7.134  25.057  51.499  1.00  0.00    -0.267 OA
HETATM   10  C   UNL     1       6.673  25.694  56.147  1.00  0.00     0.032 A 
HETATM   11  C   UNL     1       7.659  24.742  56.421  1.00  0.00     0.002 A 
ENDROOT
BRANCH   6  12
HETATM   12  S   UNL     1       3.534  28.204  53.174  1.00  0.00    -0.082 SA
BRANCH  12  13
HETATM   13  C   UNL     1       4.158  29.827  53.702  1.00  0.00     0.185 C 
BRANCH  13  14
HETATM   14  C   UNL     1       4.517  29.852  55.183  1.00  0.00     0.231 C 
HETATM   15  N   UNL     1       5.878  29.857  55.424  1.00  0.00    -0.326 N 
HETATM   16  H   UNL     1       6.467  29.742  54.600  1.00  0.00     0.169 HD
HETATM   17  O   UNL     1       3.637  29.914  56.038  1.00  0.00    -0.272 OA
BRANCH  15  18
HETATM   18  C   UNL     1       6.547  29.968  56.659  1.00  0.00     0.037 A 
HETATM   19  C   UNL     1       6.161  30.853  57.673  1.00  0.00     0.061 A 
HETATM   20  C   UNL     1       6.936  30.877  58.810  1.00  0.00     0.065 A 
HETATM   21  C   UNL     1       8.054  30.062  58.973  1.00  0.00     0.063 A 
HETATM   22  N   UNL     1       6.808  31.656  59.955  1.00  0.00    -0.306 N 
HETATM   23  N   UNL     1       8.611  30.338  60.215  1.00  0.00    -0.307 N 
HETATM   24  C   UNL     1       8.455  29.175  58.008  1.00  0.00     0.034 A 
HETATM   25  C   UNL     1       7.846  31.334  60.840  1.00  0.00     0.325 A 
HETATM   26  H   UNL     1       9.428  29.920  60.629  1.00  0.00     0.170 HD
HETATM   27  O   UNL     1       8.049  31.822  61.938  1.00  0.00    -0.247 OA
HETATM   28  C   UNL     1       7.686  29.136  56.838  1.00  0.00     0.032 A 
HETATM   29  H   UNL     1       6.099  32.347  60.144  1.00  0.00     0.170 HD
ENDBRANCH  15  18
ENDBRANCH  13  14
ENDBRANCH  12  13
ENDBRANCH   6  12
BRANCH   7  30
HETATM   30  C   UNL     1       5.359  27.132  50.919  1.00  0.00     0.046 A 
HETATM   31  C   UNL     1       4.697  26.333  49.971  1.00  0.00     0.057 A 
HETATM   32  C   UNL     1       4.516  26.785  48.662  1.00  0.00     0.074 A 
HETATM   33 CL   UNL     1       3.688  25.789  47.528  1.00  0.00    -0.081 Cl
HETATM   34  C   UNL     1       5.005  28.031  48.284  1.00  0.00     0.138 A 
HETATM   35  F   UNL     1       4.847  28.482  47.031  1.00  0.00    -0.204 F 
HETATM   36  C   UNL     1       5.677  28.832  49.201  1.00  0.00     0.046 A 
HETATM   37  C   UNL     1       5.859  28.382  50.512  1.00  0.00     0.033 A 
ENDBRANCH   7  30
TORSDOF 5
ENDMDL
MODEL 7
REMARK VINA RESULT:     -10.1      5.293     10.843
REMARK  5 active torsions:
REMARK  status: ('A' for Active; 'I' for Inactive)
REMARK    1  A    between atoms: C_6  and  S_7 
REMARK    2  A    between atoms: S_7  and  C_8 
REMARK    3  A    between atoms: C_8  and  C_9 
REMARK       I    between atoms: C_9  and  N_10 
REMARK    4  A    between atoms: N_10  and  C_11 
REMARK    5  A    between atoms: N_22  and  C_23 
ROOT
HETATM    1  C   UNL     1       3.232  31.226  54.277  1.00  0.00     0.001 A 
HETATM    2  C   UNL     1       3.679  29.922  54.070  1.00  0.00     0.019 A 
HETATM    3  C   UNL     1       4.800  29.453  54.768  1.00  0.00     0.061 A 
HETATM    4  C   UNL     1       5.477  30.274  55.660  1.00  0.00     0.075 A 
HETATM    5  N   UNL     1       6.636  29.859  56.318  1.00  0.00    -0.223 NA
HETATM    6  C   UNL     1       7.027  28.631  56.179  1.00  0.00     0.177 A 
HETATM    7  N   UNL     1       6.366  27.678  55.400  1.00  0.00    -0.256 N 
HETATM    8  C   UNL     1       5.271  28.064  54.613  1.00  0.00     0.267 A 
HETATM    9  O   UNL     1       4.646  27.335  53.846  1.00  0.00    -0.267 OA
HETATM   10  C   UNL     1       5.012  31.575  55.873  1.00  0.00     0.032 A 
HETATM   11  C   UNL     1       3.895  32.052  55.182  1.00  0.00     0.002 A 
ENDROOT
BRANCH   6  12
HETATM   12  S   UNL     1       8.579  28.229  56.912  1.00  0.00    -0.082 SA
BRANCH  12  13
HETATM   13  C   UNL     1       9.545  29.740  56.617  1.00  0.00     0.185 C 
BRANCH  13  14
HETATM   14  C   UNL     1       9.595  30.641  57.845  1.00  0.00     0.231 C 
HETATM   15  N   UNL     1       8.561  30.426  58.736  1.00  0.00    -0.326 N 
HETATM   16  H   UNL     1       7.843  29.773  58.420  1.00  0.00     0.169 HD
HETATM   17  O   UNL     1      10.523  31.432  58.002  1.00  0.00    -0.272 OA
BRANCH  15  18
HETATM   18  C   UNL     1       8.356  31.015  59.999  1.00  0.00     0.037 A 
HETATM   19  C   UNL     1       7.427  32.035  60.236  1.00  0.00     0.061 A 
HETATM   20  C   UNL     1       7.367  32.540  61.516  1.00  0.00     0.065 A 
HETATM   21  C   UNL     1       8.179  32.070  62.546  1.00  0.00     0.063 A 
HETATM   22  N   UNL     1       6.567  33.554  62.033  1.00  0.00    -0.306 N 
HETATM   23  N   UNL     1       7.877  32.791  63.695  1.00  0.00    -0.307 N 
HETATM   24  C   UNL     1       9.090  31.065  62.354  1.00  0.00     0.034 A 
HETATM   25  C   UNL     1       6.875  33.724  63.390  1.00  0.00     0.325 A 
HETATM   26  H   UNL     1       8.290  32.694  64.607  1.00  0.00     0.170 HD
HETATM   27  O   UNL     1       6.374  34.526  64.158  1.00  0.00    -0.247 OA
HETATM   28  C   UNL     1       9.174  30.538  61.059  1.00  0.00     0.032 A 
HETATM   29  H   UNL     1       5.876  34.094  61.538  1.00  0.00     0.170 HD
ENDBRANCH  15  18
ENDBRANCH  13  14
ENDBRANCH  12  13
ENDBRANCH   6  12
BRANCH   7  30
HETATM   30  C   UNL     1       6.711  26.282  55.402  1.00  0.00     0.046 A 
HETATM   31  C   UNL     1       7.281  25.683  54.265  1.00  0.00     0.057 A 
HETATM   32  C   UNL     1       7.572  24.317  54.252  1.00  0.00     0.074 A 
HETATM   33 CL   UNL     1       8.284  23.616  52.850  1.00  0.00    -0.081 Cl
HETATM   34  C   UNL     1       7.286  23.535  55.366  1.00  0.00     0.138 A 
HETATM   35  F   UNL     1       7.552  22.221  55.372  1.00  0.00    -0.204 F 
HETATM   36  C   UNL     1       6.707  24.103  56.495  1.00  0.00     0.046 A 
HETATM   37  C   UNL     1       6.415  25.470  56.511  1.00  0.00     0.033 A 
ENDBRANCH   7  30
TORSDOF 5
ENDMDL
MODEL 8
REMARK VINA RESULT:     -10.1      5.947     11.573
REMARK  5 active torsions:
REMARK  status: ('A' for Active; 'I' for Inactive)
REMARK    1  A    between atoms: C_6  and  S_7 
REMARK    2  A    between atoms: S_7  and  C_8 
REMARK    3  A    between atoms: C_8  and  C_9 
REMARK       I    between atoms: C_9  and  N_10 
REMARK    4  A    between atoms: N_10  and  C_11 
REMARK    5  A    between atoms: N_22  and  C_23 
ROOT
HETATM    1  C   UNL     1       2.705  32.271  55.570  1.00  0.00     0.001 A 
HETATM    2  C   UNL     1       3.157  31.015  55.168  1.00  0.00     0.019 A 
HETATM    3  C   UNL     1       4.229  30.415  55.840  1.00  0.00     0.061 A 
HETATM    4  C   UNL     1       4.855  31.059  56.901  1.00  0.00     0.075 A 
HETATM    5  N   UNL     1       5.969  30.518  57.545  1.00  0.00    -0.223 NA
HETATM    6  C   UNL     1       6.361  29.327  57.220  1.00  0.00     0.177 A 
HETATM    7  N   UNL     1       5.745  28.533  56.249  1.00  0.00    -0.256 N 
HETATM    8  C   UNL     1       4.702  29.067  55.477  1.00  0.00     0.267 A 
HETATM    9  O   UNL     1       4.122  28.490  54.558  1.00  0.00    -0.267 OA
HETATM   10  C   UNL     1       4.385  32.311  57.306  1.00  0.00     0.032 A 
HETATM   11  C   UNL     1       3.315  32.918  56.643  1.00  0.00     0.002 A 
ENDROOT
BRANCH   6  12
HETATM   12  S   UNL     1       7.862  28.780  57.964  1.00  0.00    -0.082 SA
BRANCH  12  13
HETATM   13  C   UNL     1       8.680  30.349  58.375  1.00  0.00     0.185 C 
BRANCH  13  14
HETATM   14  C   UNL     1       8.601  30.668  59.864  1.00  0.00     0.231 C 
HETATM   15  N   UNL     1       7.619  31.586  60.184  1.00  0.00    -0.326 N 
HETATM   16  H   UNL     1       7.143  32.010  59.388  1.00  0.00     0.169 HD
HETATM   17  O   UNL     1       9.333  30.093  60.666  1.00  0.00    -0.272 OA
BRANCH  15  18
HETATM   18  C   UNL     1       7.220  32.032  61.460  1.00  0.00     0.037 A 
HETATM   19  C   UNL     1       5.886  32.267  61.816  1.00  0.00     0.061 A 
HETATM   20  C   UNL     1       5.653  32.739  63.088  1.00  0.00     0.065 A 
HETATM   21  C   UNL     1       6.680  32.973  64.000  1.00  0.00     0.063 A 
HETATM   22  N   UNL     1       4.452  33.075  63.704  1.00  0.00    -0.306 N 
HETATM   23  N   UNL     1       6.111  33.450  65.175  1.00  0.00    -0.307 N 
HETATM   24  C   UNL     1       7.995  32.744  63.691  1.00  0.00     0.034 A 
HETATM   25  C   UNL     1       4.721  33.522  65.005  1.00  0.00     0.325 A 
HETATM   26  H   UNL     1       6.584  33.716  66.023  1.00  0.00     0.170 HD
HETATM   27  O   UNL     1       3.909  33.903  65.829  1.00  0.00    -0.247 OA
HETATM   28  C   UNL     1       8.259  32.268  62.401  1.00  0.00     0.032 A 
HETATM   29  H   UNL     1       3.529  33.019  63.305  1.00  0.00     0.170 HD
ENDBRANCH  15  18
ENDBRANCH  13  14
ENDBRANCH  12  13
ENDBRANCH   6  12
BRANCH   7  30
HETATM   30  C   UNL     1       6.080  27.152  56.030  1.00  0.00     0.046 A 
HETATM   31  C   UNL     1       6.815  26.765  54.896  1.00  0.00     0.057 A 
HETATM   32  C   UNL     1       7.100  25.418  54.660  1.00  0.00     0.074 A 
HETATM   33 CL   UNL     1       8.013  24.976  53.269  1.00  0.00    -0.081 Cl
HETATM   34  C   UNL     1       6.647  24.446  55.546  1.00  0.00     0.138 A 
HETATM   35  F   UNL     1       6.905  23.147  55.335  1.00  0.00    -0.204 F 
HETATM   36  C   UNL     1       5.905  24.805  56.666  1.00  0.00     0.046 A 
HETATM   37  C   UNL     1       5.619  26.153  56.904  1.00  0.00     0.033 A 
ENDBRANCH   7  30
TORSDOF 5
ENDMDL
MODEL 9
REMARK VINA RESULT:     -10.0      1.848      2.139
REMARK  5 active torsions:
REMARK  status: ('A' for Active; 'I' for Inactive)
REMARK    1  A    between atoms: C_6  and  S_7 
REMARK    2  A    between atoms: S_7  and  C_8 
REMARK    3  A    between atoms: C_8  and  C_9 
REMARK       I    between atoms: C_9  and  N_10 
REMARK    4  A    between atoms: N_10  and  C_11 
REMARK    5  A    between atoms: N_22  and  C_23 
ROOT
HETATM    1  C   UNL     1       8.473  20.451  56.292  1.00  0.00     0.001 A 
HETATM    2  C   UNL     1       8.377  21.804  56.617  1.00  0.00     0.019 A 
HETATM    3  C   UNL     1       8.042  22.735  55.626  1.00  0.00     0.061 A 
HETATM    4  C   UNL     1       7.809  22.329  54.318  1.00  0.00     0.075 A 
HETATM    5  N   UNL     1       7.541  23.240  53.295  1.00  0.00    -0.223 NA
HETATM    6  C   UNL     1       7.391  24.491  53.596  1.00  0.00     0.177 A 
HETATM    7  N   UNL     1       7.488  25.006  54.891  1.00  0.00    -0.256 N 
HETATM    8  C   UNL     1       7.881  24.165  55.944  1.00  0.00     0.267 A 
HETATM    9  O   UNL     1       8.057  24.511  57.111  1.00  0.00    -0.267 OA
HETATM   10  C   UNL     1       7.893  20.969  54.004  1.00  0.00     0.032 A 
HETATM   11  C   UNL     1       8.226  20.033  54.986  1.00  0.00     0.002 A 
ENDROOT
BRANCH   6  12
HETATM   12  S   UNL     1       7.212  25.595  52.234  1.00  0.00    -0.082 SA
BRANCH  12  13
HETATM   13  C   UNL     1       5.433  25.482  51.881  1.00  0.00     0.185 C 
BRANCH  13  14
HETATM   14  C   UNL     1       4.911  26.715  51.152  1.00  0.00     0.231 C 
HETATM   15  N   UNL     1       4.469  26.455  49.868  1.00  0.00    -0.326 N 
HETATM   16  H   UNL     1       4.637  25.507  49.533  1.00  0.00     0.169 HD
HETATM   17  O   UNL     1       4.863  27.804  51.720  1.00  0.00    -0.272 OA
BRANCH  15  18
HETATM   18  C   UNL     1       3.850  27.338  48.961  1.00  0.00     0.037 A 
HETATM   19  C   UNL     1       2.477  27.328  48.686  1.00  0.00     0.061 A 
HETATM   20  C   UNL     1       2.023  28.225  47.745  1.00  0.00     0.065 A 
HETATM   21  C   UNL     1       2.869  29.116  47.088  1.00  0.00     0.063 A 
HETATM   22  N   UNL     1       0.734  28.428  47.262  1.00  0.00    -0.306 N 
HETATM   23  N   UNL     1       2.102  29.866  46.205  1.00  0.00    -0.307 N 
HETATM   24  C   UNL     1       4.215  29.162  47.340  1.00  0.00     0.034 A 
HETATM   25  C   UNL     1       0.767  29.446  46.299  1.00  0.00     0.325 A 
HETATM   26  H   UNL     1       2.416  30.591  45.582  1.00  0.00     0.170 HD
HETATM   27  O   UNL     1      -0.176  29.882  45.664  1.00  0.00    -0.247 OA
HETATM   28  C   UNL     1       4.703  28.255  48.290  1.00  0.00     0.032 A 
HETATM   29  H   UNL     1      -0.102  27.938  47.538  1.00  0.00     0.170 HD
ENDBRANCH  15  18
ENDBRANCH  13  14
ENDBRANCH  12  13
ENDBRANCH   6  12
BRANCH   7  30
HETATM   30  C   UNL     1       7.142  26.360  55.229  1.00  0.00     0.046 A 
HETATM   31  C   UNL     1       5.805  26.718  55.475  1.00  0.00     0.057 A 
HETATM   32  C   UNL     1       5.465  28.043  55.758  1.00  0.00     0.074 A 
HETATM   33 CL   UNL     1       3.821  28.448  56.067  1.00  0.00    -0.081 Cl
HETATM   34  C   UNL     1       6.452  29.023  55.786  1.00  0.00     0.138 A 
HETATM   35  F   UNL     1       6.146  30.302  56.050  1.00  0.00    -0.204 F 
HETATM   36  C   UNL     1       7.779  28.694  55.530  1.00  0.00     0.046 A 
HETATM   37  C   UNL     1       8.122  27.368  55.248  1.00  0.00     0.033 A 
ENDBRANCH   7  30
TORSDOF 5
ENDMDL
MODEL 10
REMARK VINA RESULT:     -10.0      5.448      9.121
REMARK  5 active torsions:
REMARK  status: ('A' for Active; 'I' for Inactive)
REMARK    1  A    between atoms: C_6  and  S_7 
REMARK    2  A    between atoms: S_7  and  C_8 
REMARK    3  A    between atoms: C_8  and  C_9 
REMARK       I    between atoms: C_9  and  N_10 
REMARK    4  A    between atoms: N_10  and  C_11 
REMARK    5  A    between atoms: N_22  and  C_23 
ROOT
HETATM    1  C   UNL     1       6.850  33.470  63.493  1.00  0.00     0.001 A 
HETATM    2  C   UNL     1       6.093  33.480  62.322  1.00  0.00     0.019 A 
HETATM    3  C   UNL     1       6.484  32.686  61.236  1.00  0.00     0.061 A 
HETATM    4  C   UNL     1       7.622  31.893  61.307  1.00  0.00     0.075 A 
HETATM    5  N   UNL     1       8.076  31.146  60.219  1.00  0.00    -0.223 NA
HETATM    6  C   UNL     1       7.350  31.101  59.147  1.00  0.00     0.177 A 
HETATM    7  N   UNL     1       6.129  31.763  58.994  1.00  0.00    -0.256 N 
HETATM    8  C   UNL     1       5.681  32.632  60.001  1.00  0.00     0.267 A 
HETATM    9  O   UNL     1       4.658  33.313  59.958  1.00  0.00    -0.267 OA
HETATM   10  C   UNL     1       8.366  31.878  62.491  1.00  0.00     0.032 A 
HETATM   11  C   UNL     1       7.984  32.665  63.580  1.00  0.00     0.002 A 
ENDROOT
BRANCH   6  12
HETATM   12  S   UNL     1       8.064  30.267  57.767  1.00  0.00    -0.082 SA
BRANCH  12  13
HETATM   13  C   UNL     1       7.525  28.553  58.034  1.00  0.00     0.185 C 
BRANCH  13  14
HETATM   14  C   UNL     1       7.780  27.672  56.817  1.00  0.00     0.231 C 
HETATM   15  N   UNL     1       7.411  26.352  56.999  1.00  0.00    -0.326 N 
HETATM   16  H   UNL     1       7.114  26.110  57.943  1.00  0.00     0.169 HD
HETATM   17  O   UNL     1       8.227  28.155  55.779  1.00  0.00    -0.272 OA
BRANCH  15  18
HETATM   18  C   UNL     1       7.427  25.302  56.060  1.00  0.00     0.037 A 
HETATM   19  C   UNL     1       8.368  24.265  56.074  1.00  0.00     0.061 A 
HETATM   20  C   UNL     1       8.282  23.330  55.067  1.00  0.00     0.065 A 
HETATM   21  C   UNL     1       7.308  23.386  54.073  1.00  0.00     0.063 A 
HETATM   22  N   UNL     1       9.079  22.217  54.819  1.00  0.00    -0.306 N 
HETATM   23  N   UNL     1       7.504  22.310  53.216  1.00  0.00    -0.307 N 
HETATM   24  C   UNL     1       6.364  24.379  54.034  1.00  0.00     0.034 A 
HETATM   25  C   UNL     1       8.609  21.572  53.667  1.00  0.00     0.325 A 
HETATM   26  H   UNL     1       6.970  22.071  52.398  1.00  0.00     0.170 HD
HETATM   27  O   UNL     1       9.068  20.568  53.153  1.00  0.00    -0.247 OA
HETATM   28  C   UNL     1       6.434  25.346  55.045  1.00  0.00     0.032 A 
HETATM   29  H   UNL     1       9.870  21.905  55.358  1.00  0.00     0.170 HD
ENDBRANCH  15  18
ENDBRANCH  13  14
ENDBRANCH  12  13
ENDBRANCH   6  12
BRANCH   7  30
HETATM   30  C   UNL     1       5.255  31.557  57.871  1.00  0.00     0.046 A 
HETATM   31  C   UNL     1       5.288  32.428  56.768  1.00  0.00     0.057 A 
HETATM   32  C   UNL     1       4.407  32.255  55.699  1.00  0.00     0.074 A 
HETATM   33 CL   UNL     1       4.481  33.330  54.356  1.00  0.00    -0.081 Cl
HETATM   34  C   UNL     1       3.478  31.220  55.725  1.00  0.00     0.138 A 
HETATM   35  F   UNL     1       2.619  31.039  54.711  1.00  0.00    -0.204 F 
HETATM   36  C   UNL     1       3.416  30.356  56.813  1.00  0.00     0.046 A 
HETATM   37  C   UNL     1       4.298  30.527  57.884  1.00  0.00     0.033 A 
ENDBRANCH   7  30
TORSDOF 5
ENDMDL
