MODEL 1
REMARK VINA RESULT:      -8.8      0.000      0.000
REMARK  4 active torsions:
REMARK  status: ('A' for Active; 'I' for Inactive)
REMARK    1  A    between atoms: C_4  and  C_5 
REMARK    2  A    between atoms: C_5  and  C_6 
REMARK       I    between atoms: C_6  and  N_7 
REMARK    3  A    between atoms: N_7  and  N_8 
REMARK       I    between atoms: N_8  and  C_9 
REMARK    4  A    between atoms: C_9  and  C_10 
ROOT
HETATM    1  N   UNL     1       6.293  25.267  52.219  1.00  0.00    -0.263 N 
HETATM    2  C   UNL     1       7.233  25.487  53.210  1.00  0.00     0.272 C 
HETATM    3  O   UNL     1       7.953  26.485  53.198  1.00  0.00    -0.266 OA
HETATM    4  H   UNL     1       5.753  24.410  52.147  1.00  0.00     0.190 HD
ENDROOT
BRANCH   1   5
HETATM    5  N   UNL     1       6.287  26.100  51.093  1.00  0.00    -0.267 N 
HETATM    6  C   UNL     1       5.312  27.072  51.017  1.00  0.00     0.240 C 
HETATM    7  O   UNL     1       4.555  27.313  51.960  1.00  0.00    -0.271 OA
HETATM    8  H   UNL     1       6.839  25.794  50.291  1.00  0.00     0.190 HD
BRANCH   6   9
HETATM    9  C   UNL     1       5.166  27.748  49.668  1.00  0.00     0.150 C 
BRANCH   9  10
HETATM   10  C   UNL     1       3.978  27.238  48.910  1.00  0.00    -0.008 A 
HETATM   11  S   UNL     1       2.667  28.282  48.561  1.00  0.00    -0.099 SA
HETATM   12  C   UNL     1       1.834  27.067  47.696  1.00  0.00    -0.021 A 
HETATM   13  C   UNL     1       0.514  27.357  47.068  1.00  0.00     0.056 C 
HETATM   14  C   UNL     1       2.533  25.878  47.691  1.00  0.00     0.015 A 
HETATM   15  C   UNL     1       3.772  25.977  48.388  1.00  0.00     0.016 A 
ENDBRANCH   9  10
ENDBRANCH   6   9
ENDBRANCH   1   5
BRANCH   2  16
HETATM   16  C   UNL     1       7.311  24.454  54.243  1.00  0.00     0.061 A 
HETATM   17  C   UNL     1       7.625  23.064  54.045  1.00  0.00     0.008 A 
HETATM   18  C   UNL     1       7.570  22.432  55.289  1.00  0.00     0.043 A 
HETATM   19  C   UNL     1       7.957  22.281  52.919  1.00  0.00     0.015 A 
HETATM   20  C   UNL     1       7.822  21.066  55.462  1.00  0.00     0.030 A 
HETATM   21  N   UNL     1       7.235  23.390  56.214  1.00  0.00    -0.364 N 
HETATM   22  C   UNL     1       8.148  20.317  54.327  1.00  0.00     0.002 A 
HETATM   23  C   UNL     1       8.217  20.914  53.072  1.00  0.00     0.001 A 
HETATM   24  H   UNL     1       7.118  23.212  57.202  1.00  0.00     0.165 HD
HETATM   25  C   UNL     1       7.079  24.607  55.604  1.00  0.00     0.106 A 
ENDBRANCH   2  16
TORSDOF 4
ENDMDL
MODEL 2
REMARK VINA RESULT:      -8.8      5.373      6.992
REMARK  4 active torsions:
REMARK  status: ('A' for Active; 'I' for Inactive)
REMARK    1  A    between atoms: C_4  and  C_5 
REMARK    2  A    between atoms: C_5  and  C_6 
REMARK       I    between atoms: C_6  and  N_7 
REMARK    3  A    between atoms: N_7  and  N_8 
REMARK       I    between atoms: N_8  and  C_9 
REMARK    4  A    between atoms: C_9  and  C_10 
ROOT
HETATM    1  N   UNL     1       6.617  24.832  57.179  1.00  0.00    -0.263 N 
HETATM    2  C   UNL     1       7.932  24.418  57.073  1.00  0.00     0.272 C 
HETATM    3  O   UNL     1       8.865  25.179  57.328  1.00  0.00    -0.266 OA
HETATM    4  H   UNL     1       5.830  24.263  56.885  1.00  0.00     0.190 HD
ENDROOT
BRANCH   1   5
HETATM    5  N   UNL     1       6.350  26.189  57.406  1.00  0.00    -0.267 N 
HETATM    6  C   UNL     1       5.913  26.946  56.339  1.00  0.00     0.240 C 
HETATM    7  O   UNL     1       5.621  26.438  55.254  1.00  0.00    -0.271 OA
HETATM    8  H   UNL     1       6.716  26.593  58.268  1.00  0.00     0.190 HD
BRANCH   6   9
HETATM    9  C   UNL     1       5.917  28.446  56.557  1.00  0.00     0.150 C 
BRANCH   9  10
HETATM   10  C   UNL     1       7.237  28.936  57.066  1.00  0.00    -0.008 A 
HETATM   11  S   UNL     1       8.643  28.782  56.100  1.00  0.00    -0.099 SA
HETATM   12  C   UNL     1       9.618  29.567  57.264  1.00  0.00    -0.021 A 
HETATM   13  C   UNL     1      11.070  29.785  57.009  1.00  0.00     0.056 C 
HETATM   14  C   UNL     1       8.889  29.922  58.380  1.00  0.00     0.015 A 
HETATM   15  C   UNL     1       7.515  29.562  58.265  1.00  0.00     0.016 A 
ENDBRANCH   9  10
ENDBRANCH   6   9
ENDBRANCH   1   5
BRANCH   2  16
HETATM   16  C   UNL     1       8.122  23.036  56.630  1.00  0.00     0.061 A 
HETATM   17  C   UNL     1       8.051  22.551  55.277  1.00  0.00     0.008 A 
HETATM   18  C   UNL     1       8.272  21.173  55.305  1.00  0.00     0.043 A 
HETATM   19  C   UNL     1       7.823  23.160  54.024  1.00  0.00     0.015 A 
HETATM   20  C   UNL     1       8.270  20.377  54.153  1.00  0.00     0.030 A 
HETATM   21  N   UNL     1       8.469  20.822  56.618  1.00  0.00    -0.364 N 
HETATM   22  C   UNL     1       8.041  21.009  52.928  1.00  0.00     0.002 A 
HETATM   23  C   UNL     1       7.821  22.381  52.861  1.00  0.00     0.001 A 
HETATM   24  H   UNL     1       8.646  19.879  56.936  1.00  0.00     0.165 HD
HETATM   25  C   UNL     1       8.385  21.928  57.424  1.00  0.00     0.106 A 
ENDBRANCH   2  16
TORSDOF 4
ENDMDL
MODEL 3
REMARK VINA RESULT:      -8.8      6.258      9.328
REMARK  4 active torsions:
REMARK  status: ('A' for Active; 'I' for Inactive)
REMARK    1  A    between atoms: C_4  and  C_5 
REMARK    2  A    between atoms: C_5  and  C_6 
REMARK       I    between atoms: C_6  and  N_7 
REMARK    3  A    between atoms: N_7  and  N_8 
REMARK       I    between atoms: N_8  and  C_9 
REMARK    4  A    between atoms: C_9  and  C_10 
ROOT
HETATM    1  N   UNL     1       7.773  27.699  57.650  1.00  0.00    -0.263 N 
HETATM    2  C   UNL     1       8.438  28.906  57.759  1.00  0.00     0.272 C 
HETATM    3  O   UNL     1       9.582  29.047  57.326  1.00  0.00    -0.266 OA
HETATM    4  H   UNL     1       6.870  27.521  58.081  1.00  0.00     0.190 HD
ENDROOT
BRANCH   1   5
HETATM    5  N   UNL     1       8.477  26.574  57.202  1.00  0.00    -0.267 N 
HETATM    6  C   UNL     1       7.820  25.361  57.198  1.00  0.00     0.240 C 
HETATM    7  O   UNL     1       6.614  25.271  57.438  1.00  0.00    -0.271 OA
HETATM    8  H   UNL     1       9.492  26.663  57.133  1.00  0.00     0.190 HD
BRANCH   6   9
HETATM    9  C   UNL     1       8.697  24.143  56.986  1.00  0.00     0.150 C 
BRANCH   9  10
HETATM   10  C   UNL     1       8.483  23.525  55.639  1.00  0.00    -0.008 A 
HETATM   11  S   UNL     1       8.712  21.842  55.418  1.00  0.00    -0.099 SA
HETATM   12  C   UNL     1       8.246  21.920  53.776  1.00  0.00    -0.021 A 
HETATM   13  C   UNL     1       8.214  20.686  52.941  1.00  0.00     0.056 C 
HETATM   14  C   UNL     1       7.941  23.211  53.396  1.00  0.00     0.015 A 
HETATM   15  C   UNL     1       8.074  24.136  54.471  1.00  0.00     0.016 A 
ENDBRANCH   9  10
ENDBRANCH   6   9
ENDBRANCH   1   5
BRANCH   2  16
HETATM   16  C   UNL     1       7.696  29.975  58.429  1.00  0.00     0.061 A 
HETATM   17  C   UNL     1       8.087  30.672  59.625  1.00  0.00     0.008 A 
HETATM   18  C   UNL     1       7.085  31.595  59.929  1.00  0.00     0.043 A 
HETATM   19  C   UNL     1       9.208  30.606  60.480  1.00  0.00     0.015 A 
HETATM   20  C   UNL     1       7.143  32.445  61.039  1.00  0.00     0.030 A 
HETATM   21  N   UNL     1       6.117  31.472  58.963  1.00  0.00    -0.364 N 
HETATM   22  C   UNL     1       8.265  32.357  61.867  1.00  0.00     0.002 A 
HETATM   23  C   UNL     1       9.286  31.452  61.593  1.00  0.00     0.001 A 
HETATM   24  H   UNL     1       5.266  32.016  58.935  1.00  0.00     0.165 HD
HETATM   25  C   UNL     1       6.470  30.507  58.055  1.00  0.00     0.106 A 
ENDBRANCH   2  16
TORSDOF 4
ENDMDL
MODEL 4
REMARK VINA RESULT:      -8.6      4.781      6.908
REMARK  4 active torsions:
REMARK  status: ('A' for Active; 'I' for Inactive)
REMARK    1  A    between atoms: C_4  and  C_5 
REMARK    2  A    between atoms: C_5  and  C_6 
REMARK       I    between atoms: C_6  and  N_7 
REMARK    3  A    between atoms: N_7  and  N_8 
REMARK       I    between atoms: N_8  and  C_9 
REMARK    4  A    between atoms: C_9  and  C_10 
ROOT
HETATM    1  N   UNL     1       5.360  25.439  55.291  1.00  0.00    -0.263 N 
HETATM    2  C   UNL     1       6.522  24.767  55.624  1.00  0.00     0.272 C 
HETATM    3  O   UNL     1       7.061  24.925  56.720  1.00  0.00    -0.266 OA
HETATM    4  H   UNL     1       4.945  25.407  54.365  1.00  0.00     0.190 HD
ENDROOT
BRANCH   1   5
HETATM    5  N   UNL     1       4.893  26.448  56.143  1.00  0.00    -0.267 N 
HETATM    6  C   UNL     1       5.129  27.758  55.782  1.00  0.00     0.240 C 
HETATM    7  O   UNL     1       5.603  28.057  54.683  1.00  0.00    -0.271 OA
HETATM    8  H   UNL     1       4.623  26.166  57.086  1.00  0.00     0.190 HD
BRANCH   6   9
HETATM    9  C   UNL     1       4.868  28.791  56.860  1.00  0.00     0.150 C 
BRANCH   9  10
HETATM   10  C   UNL     1       6.138  29.295  57.474  1.00  0.00    -0.008 A 
HETATM   11  S   UNL     1       6.239  30.908  58.041  1.00  0.00    -0.099 SA
HETATM   12  C   UNL     1       7.838  30.688  58.603  1.00  0.00    -0.021 A 
HETATM   13  C   UNL     1       8.564  31.804  59.271  1.00  0.00     0.056 C 
HETATM   14  C   UNL     1       8.296  29.413  58.342  1.00  0.00     0.015 A 
HETATM   15  C   UNL     1       7.315  28.608  57.695  1.00  0.00     0.016 A 
ENDBRANCH   9  10
ENDBRANCH   6   9
ENDBRANCH   1   5
BRANCH   2  16
HETATM   16  C   UNL     1       7.054  23.882  54.588  1.00  0.00     0.061 A 
HETATM   17  C   UNL     1       7.564  22.550  54.776  1.00  0.00     0.008 A 
HETATM   18  C   UNL     1       7.988  22.074  53.533  1.00  0.00     0.043 A 
HETATM   19  C   UNL     1       7.703  21.698  55.893  1.00  0.00     0.015 A 
HETATM   20  C   UNL     1       8.545  20.802  53.353  1.00  0.00     0.030 A 
HETATM   21  N   UNL     1       7.751  23.071  52.618  1.00  0.00    -0.364 N 
HETATM   22  C   UNL     1       8.669  19.982  54.477  1.00  0.00     0.002 A 
HETATM   23  C   UNL     1       8.253  20.420  55.732  1.00  0.00     0.001 A 
HETATM   24  H   UNL     1       7.967  23.003  51.633  1.00  0.00     0.165 HD
HETATM   25  C   UNL     1       7.189  24.158  53.234  1.00  0.00     0.106 A 
ENDBRANCH   2  16
TORSDOF 4
ENDMDL
MODEL 5
REMARK VINA RESULT:      -8.3      4.789      8.034
REMARK  4 active torsions:
REMARK  status: ('A' for Active; 'I' for Inactive)
REMARK    1  A    between atoms: C_4  and  C_5 
REMARK    2  A    between atoms: C_5  and  C_6 
REMARK       I    between atoms: C_6  and  N_7 
REMARK    3  A    between atoms: N_7  and  N_8 
REMARK       I    between atoms: N_8  and  C_9 
REMARK    4  A    between atoms: C_9  and  C_10 
ROOT
HETATM    1  N   UNL     1       7.286  26.785  54.873  1.00  0.00    -0.263 N 
HETATM    2  C   UNL     1       7.801  28.067  54.928  1.00  0.00     0.272 C 
HETATM    3  O   UNL     1       8.450  28.537  53.993  1.00  0.00    -0.266 OA
HETATM    4  H   UNL     1       6.831  26.335  55.662  1.00  0.00     0.190 HD
ENDROOT
BRANCH   1   5
HETATM    5  N   UNL     1       7.661  25.948  53.814  1.00  0.00    -0.267 N 
HETATM    6  C   UNL     1       6.893  24.829  53.574  1.00  0.00     0.240 C 
HETATM    7  O   UNL     1       5.827  24.629  54.162  1.00  0.00    -0.271 OA
HETATM    8  H   UNL     1       8.602  26.075  53.438  1.00  0.00     0.190 HD
BRANCH   6   9
HETATM    9  C   UNL     1       7.494  23.814  52.622  1.00  0.00     0.150 C 
BRANCH   9  10
HETATM   10  C   UNL     1       7.932  22.570  53.331  1.00  0.00    -0.008 A 
HETATM   11  S   UNL     1       8.577  22.663  54.915  1.00  0.00    -0.099 SA
HETATM   12  C   UNL     1       8.749  20.966  55.023  1.00  0.00    -0.021 A 
HETATM   13  C   UNL     1       9.291  20.340  56.263  1.00  0.00     0.056 C 
HETATM   14  C   UNL     1       8.342  20.340  53.864  1.00  0.00     0.015 A 
HETATM   15  C   UNL     1       7.867  21.264  52.889  1.00  0.00     0.016 A 
ENDBRANCH   9  10
ENDBRANCH   6   9
ENDBRANCH   1   5
BRANCH   2  16
HETATM   16  C   UNL     1       7.531  28.800  56.166  1.00  0.00     0.061 A 
HETATM   17  C   UNL     1       8.473  29.578  56.926  1.00  0.00     0.008 A 
HETATM   18  C   UNL     1       7.806  30.087  58.041  1.00  0.00     0.043 A 
HETATM   19  C   UNL     1       9.838  29.900  56.767  1.00  0.00     0.015 A 
HETATM   20  C   UNL     1       8.430  30.892  59.002  1.00  0.00     0.030 A 
HETATM   21  N   UNL     1       6.508  29.643  57.972  1.00  0.00    -0.364 N 
HETATM   22  C   UNL     1       9.782  31.193  58.816  1.00  0.00     0.002 A 
HETATM   23  C   UNL     1      10.479  30.707  57.715  1.00  0.00     0.001 A 
HETATM   24  H   UNL     1       5.796  29.855  58.657  1.00  0.00     0.165 HD
HETATM   25  C   UNL     1       6.327  28.874  56.853  1.00  0.00     0.106 A 
ENDBRANCH   2  16
TORSDOF 4
ENDMDL
MODEL 6
REMARK VINA RESULT:      -8.2      2.082      2.536
REMARK  4 active torsions:
REMARK  status: ('A' for Active; 'I' for Inactive)
REMARK    1  A    between atoms: C_4  and  C_5 
REMARK    2  A    between atoms: C_5  and  C_6 
REMARK       I    between atoms: C_6  and  N_7 
REMARK    3  A    between atoms: N_7  and  N_8 
REMARK       I    between atoms: N_8  and  C_9 
REMARK    4  A    between atoms: C_9  and  C_10 
ROOT
HETATM    1  N   UNL     1       5.723  25.380  54.075  1.00  0.00    -0.263 N 
HETATM    2  C   UNL     1       7.058  25.054  53.920  1.00  0.00     0.272 C 
HETATM    3  O   UNL     1       7.750  25.589  53.054  1.00  0.00    -0.266 OA
HETATM    4  H   UNL     1       5.101  24.890  54.712  1.00  0.00     0.190 HD
ENDROOT
BRANCH   1   5
HETATM    5  N   UNL     1       5.108  26.197  53.117  1.00  0.00    -0.267 N 
HETATM    6  C   UNL     1       4.824  27.500  53.469  1.00  0.00     0.240 C 
HETATM    7  O   UNL     1       5.217  27.991  54.529  1.00  0.00    -0.271 OA
HETATM    8  H   UNL     1       4.691  25.729  52.312  1.00  0.00     0.190 HD
BRANCH   6   9
HETATM    9  C   UNL     1       3.910  28.249  52.518  1.00  0.00     0.150 C 
BRANCH   9  10
HETATM   10  C   UNL     1       4.571  28.520  51.202  1.00  0.00    -0.008 A 
HETATM   11  S   UNL     1       4.255  27.509  49.856  1.00  0.00    -0.099 SA
HETATM   12  C   UNL     1       5.246  28.446  48.827  1.00  0.00    -0.021 A 
HETATM   13  C   UNL     1       5.405  28.079  47.391  1.00  0.00     0.056 C 
HETATM   14  C   UNL     1       5.825  29.500  49.502  1.00  0.00     0.015 A 
HETATM   15  C   UNL     1       5.433  29.545  50.871  1.00  0.00     0.016 A 
ENDBRANCH   9  10
ENDBRANCH   6   9
ENDBRANCH   1   5
BRANCH   2  16
HETATM   16  C   UNL     1       7.566  24.035  54.839  1.00  0.00     0.061 A 
HETATM   17  C   UNL     1       7.910  22.677  54.509  1.00  0.00     0.008 A 
HETATM   18  C   UNL     1       8.332  22.046  55.681  1.00  0.00     0.043 A 
HETATM   19  C   UNL     1       7.904  21.923  53.316  1.00  0.00     0.015 A 
HETATM   20  C   UNL     1       8.740  20.708  55.721  1.00  0.00     0.030 A 
HETATM   21  N   UNL     1       8.251  22.974  56.690  1.00  0.00    -0.364 N 
HETATM   22  C   UNL     1       8.723  19.987  54.524  1.00  0.00     0.002 A 
HETATM   23  C   UNL     1       8.313  20.583  53.336  1.00  0.00     0.001 A 
HETATM   24  H   UNL     1       8.491  22.790  57.654  1.00  0.00     0.165 HD
HETATM   25  C   UNL     1       7.798  24.171  56.201  1.00  0.00     0.106 A 
ENDBRANCH   2  16
TORSDOF 4
ENDMDL
MODEL 7
REMARK VINA RESULT:      -8.1      6.354      9.278
REMARK  4 active torsions:
REMARK  status: ('A' for Active; 'I' for Inactive)
REMARK    1  A    between atoms: C_4  and  C_5 
REMARK    2  A    between atoms: C_5  and  C_6 
REMARK       I    between atoms: C_6  and  N_7 
REMARK    3  A    between atoms: N_7  and  N_8 
REMARK       I    between atoms: N_8  and  C_9 
REMARK    4  A    between atoms: C_9  and  C_10 
ROOT
HETATM    1  N   UNL     1       7.046  28.052  57.433  1.00  0.00    -0.263 N 
HETATM    2  C   UNL     1       6.440  27.472  56.333  1.00  0.00     0.272 C 
HETATM    3  O   UNL     1       5.626  28.094  55.650  1.00  0.00    -0.266 OA
HETATM    4  H   UNL     1       7.645  27.538  58.072  1.00  0.00     0.190 HD
ENDROOT
BRANCH   1   5
HETATM    5  N   UNL     1       6.592  29.300  57.878  1.00  0.00    -0.267 N 
HETATM    6  C   UNL     1       7.514  30.319  57.989  1.00  0.00     0.240 C 
HETATM    7  O   UNL     1       8.671  30.201  57.579  1.00  0.00    -0.271 OA
HETATM    8  H   UNL     1       5.672  29.324  58.320  1.00  0.00     0.190 HD
BRANCH   6   9
HETATM    9  C   UNL     1       7.043  31.548  58.741  1.00  0.00     0.150 C 
BRANCH   9  10
HETATM   10  C   UNL     1       7.560  31.580  60.146  1.00  0.00    -0.008 A 
HETATM   11  S   UNL     1       7.005  32.774  61.241  1.00  0.00    -0.099 SA
HETATM   12  C   UNL     1       7.938  32.137  62.523  1.00  0.00    -0.021 A 
HETATM   13  C   UNL     1       7.892  32.764  63.874  1.00  0.00     0.056 C 
HETATM   14  C   UNL     1       8.677  31.045  62.118  1.00  0.00     0.015 A 
HETATM   15  C   UNL     1       8.457  30.721  60.749  1.00  0.00     0.016 A 
ENDBRANCH   9  10
ENDBRANCH   6   9
ENDBRANCH   1   5
BRANCH   2  16
HETATM   16  C   UNL     1       6.825  26.087  56.061  1.00  0.00     0.061 A 
HETATM   17  C   UNL     1       7.218  25.540  54.790  1.00  0.00     0.008 A 
HETATM   18  C   UNL     1       7.480  24.180  54.972  1.00  0.00     0.043 A 
HETATM   19  C   UNL     1       7.379  26.077  53.494  1.00  0.00     0.015 A 
HETATM   20  C   UNL     1       7.887  23.336  53.932  1.00  0.00     0.030 A 
HETATM   21  N   UNL     1       7.257  23.901  56.298  1.00  0.00    -0.364 N 
HETATM   22  C   UNL     1       8.038  23.898  52.661  1.00  0.00     0.002 A 
HETATM   23  C   UNL     1       7.789  25.250  52.442  1.00  0.00     0.001 A 
HETATM   24  H   UNL     1       7.365  22.986  56.714  1.00  0.00     0.165 HD
HETATM   25  C   UNL     1       6.867  25.033  56.964  1.00  0.00     0.106 A 
ENDBRANCH   2  16
TORSDOF 4
ENDMDL
MODEL 8
REMARK VINA RESULT:      -8.1      1.556      1.678
REMARK  4 active torsions:
REMARK  status: ('A' for Active; 'I' for Inactive)
REMARK    1  A    between atoms: C_4  and  C_5 
REMARK    2  A    between atoms: C_5  and  C_6 
REMARK       I    between atoms: C_6  and  N_7 
REMARK    3  A    between atoms: N_7  and  N_8 
REMARK       I    between atoms: N_8  and  C_9 
REMARK    4  A    between atoms: C_9  and  C_10 
ROOT
HETATM    1  N   UNL     1       6.093  25.586  52.194  1.00  0.00    -0.263 N 
HETATM    2  C   UNL     1       7.316  25.059  52.568  1.00  0.00     0.272 C 
HETATM    3  O   UNL     1       8.330  25.257  51.898  1.00  0.00    -0.266 OA
HETATM    4  H   UNL     1       5.223  25.363  52.668  1.00  0.00     0.190 HD
ENDROOT
BRANCH   1   5
HETATM    5  N   UNL     1       5.975  26.202  50.941  1.00  0.00    -0.267 N 
HETATM    6  C   UNL     1       5.626  27.536  50.909  1.00  0.00     0.240 C 
HETATM    7  O   UNL     1       5.559  28.218  51.934  1.00  0.00    -0.271 OA
HETATM    8  H   UNL     1       5.915  25.586  50.129  1.00  0.00     0.190 HD
BRANCH   6   9
HETATM    9  C   UNL     1       5.231  28.076  49.549  1.00  0.00     0.150 C 
BRANCH   9  10
HETATM   10  C   UNL     1       3.793  28.493  49.507  1.00  0.00    -0.008 A 
HETATM   11  S   UNL     1       3.336  30.060  50.027  1.00  0.00    -0.099 SA
HETATM   12  C   UNL     1       1.695  29.791  49.635  1.00  0.00    -0.021 A 
HETATM   13  C   UNL     1       0.682  30.863  49.852  1.00  0.00     0.056 C 
HETATM   14  C   UNL     1       1.494  28.521  49.135  1.00  0.00     0.015 A 
HETATM   15  C   UNL     1       2.704  27.774  49.058  1.00  0.00     0.016 A 
ENDBRANCH   9  10
ENDBRANCH   6   9
ENDBRANCH   1   5
BRANCH   2  16
HETATM   16  C   UNL     1       7.305  24.253  53.789  1.00  0.00     0.061 A 
HETATM   17  C   UNL     1       7.648  22.860  53.901  1.00  0.00     0.008 A 
HETATM   18  C   UNL     1       7.482  22.485  55.236  1.00  0.00     0.043 A 
HETATM   19  C   UNL     1       8.090  21.879  52.988  1.00  0.00     0.015 A 
HETATM   20  C   UNL     1       7.729  21.188  55.700  1.00  0.00     0.030 A 
HETATM   21  N   UNL     1       7.055  23.598  55.918  1.00  0.00    -0.364 N 
HETATM   22  C   UNL     1       8.165  20.238  54.772  1.00  0.00     0.002 A 
HETATM   23  C   UNL     1       8.346  20.576  53.434  1.00  0.00     0.001 A 
HETATM   24  H   UNL     1       6.847  23.617  56.907  1.00  0.00     0.165 HD
HETATM   25  C   UNL     1       6.946  24.666  55.065  1.00  0.00     0.106 A 
ENDBRANCH   2  16
TORSDOF 4
ENDMDL
MODEL 9
REMARK VINA RESULT:      -7.9      5.114      7.588
REMARK  4 active torsions:
REMARK  status: ('A' for Active; 'I' for Inactive)
REMARK    1  A    between atoms: C_4  and  C_5 
REMARK    2  A    between atoms: C_5  and  C_6 
REMARK       I    between atoms: C_6  and  N_7 
REMARK    3  A    between atoms: N_7  and  N_8 
REMARK       I    between atoms: N_8  and  C_9 
REMARK    4  A    between atoms: C_9  and  C_10 
ROOT
HETATM    1  N   UNL     1       7.166  29.019  54.625  1.00  0.00    -0.263 N 
HETATM    2  C   UNL     1       7.408  28.500  55.883  1.00  0.00     0.272 C 
HETATM    3  O   UNL     1       7.782  27.336  56.034  1.00  0.00    -0.266 OA
HETATM    4  H   UNL     1       6.765  29.940  54.472  1.00  0.00     0.190 HD
ENDROOT
BRANCH   1   5
HETATM    5  N   UNL     1       7.173  28.156  53.522  1.00  0.00    -0.267 N 
HETATM    6  C   UNL     1       5.963  27.659  53.084  1.00  0.00     0.240 C 
HETATM    7  O   UNL     1       4.890  28.060  53.539  1.00  0.00    -0.271 OA
HETATM    8  H   UNL     1       8.074  27.755  53.256  1.00  0.00     0.190 HD
BRANCH   6   9
HETATM    9  C   UNL     1       6.046  26.519  52.089  1.00  0.00     0.150 C 
BRANCH   9  10
HETATM   10  C   UNL     1       6.730  25.318  52.667  1.00  0.00    -0.008 A 
HETATM   11  S   UNL     1       6.249  24.704  54.191  1.00  0.00    -0.099 SA
HETATM   12  C   UNL     1       7.366  23.414  54.107  1.00  0.00    -0.021 A 
HETATM   13  C   UNL     1       7.453  22.416  55.210  1.00  0.00     0.056 C 
HETATM   14  C   UNL     1       8.109  23.462  52.945  1.00  0.00     0.015 A 
HETATM   15  C   UNL     1       7.740  24.558  52.113  1.00  0.00     0.016 A 
ENDBRANCH   9  10
ENDBRANCH   6   9
ENDBRANCH   1   5
BRANCH   2  16
HETATM   16  C   UNL     1       7.176  29.419  56.998  1.00  0.00     0.061 A 
HETATM   17  C   UNL     1       8.173  30.176  57.706  1.00  0.00     0.008 A 
HETATM   18  C   UNL     1       7.526  30.906  58.706  1.00  0.00     0.043 A 
HETATM   19  C   UNL     1       9.573  30.314  57.588  1.00  0.00     0.015 A 
HETATM   20  C   UNL     1       8.202  31.754  59.590  1.00  0.00     0.030 A 
HETATM   21  N   UNL     1       6.188  30.610  58.618  1.00  0.00    -0.364 N 
HETATM   22  C   UNL     1       9.588  31.869  59.448  1.00  0.00     0.002 A 
HETATM   23  C   UNL     1      10.267  31.161  58.461  1.00  0.00     0.001 A 
HETATM   24  H   UNL     1       5.478  30.993  59.227  1.00  0.00     0.165 HD
HETATM   25  C   UNL     1       5.962  29.723  57.598  1.00  0.00     0.106 A 
ENDBRANCH   2  16
TORSDOF 4
ENDMDL
MODEL 10
REMARK VINA RESULT:      -7.7      5.238      8.075
REMARK  4 active torsions:
REMARK  status: ('A' for Active; 'I' for Inactive)
REMARK    1  A    between atoms: C_4  and  C_5 
REMARK    2  A    between atoms: C_5  and  C_6 
REMARK       I    between atoms: C_6  and  N_7 
REMARK    3  A    between atoms: N_7  and  N_8 
REMARK       I    between atoms: N_8  and  C_9 
REMARK    4  A    between atoms: C_9  and  C_10 
ROOT
HETATM    1  N   UNL     1       7.293  27.472  54.564  1.00  0.00    -0.263 N 
HETATM    2  C   UNL     1       6.523  26.323  54.565  1.00  0.00     0.272 C 
HETATM    3  O   UNL     1       5.485  26.249  55.224  1.00  0.00    -0.266 OA
HETATM    4  H   UNL     1       8.200  27.532  54.112  1.00  0.00     0.190 HD
ENDROOT
BRANCH   1   5
HETATM    5  N   UNL     1       6.982  28.498  55.466  1.00  0.00    -0.267 N 
HETATM    6  C   UNL     1       7.586  28.472  56.705  1.00  0.00     0.240 C 
HETATM    7  O   UNL     1       8.481  27.668  56.979  1.00  0.00    -0.271 OA
HETATM    8  H   UNL     1       6.158  29.062  55.255  1.00  0.00     0.190 HD
BRANCH   6   9
HETATM    9  C   UNL     1       7.007  29.421  57.736  1.00  0.00     0.150 C 
BRANCH   9  10
HETATM   10  C   UNL     1       8.065  30.261  58.383  1.00  0.00    -0.008 A 
HETATM   11  S   UNL     1       7.930  30.693  60.034  1.00  0.00    -0.099 SA
HETATM   12  C   UNL     1       9.428  31.515  60.017  1.00  0.00    -0.021 A 
HETATM   13  C   UNL     1       9.947  32.165  61.254  1.00  0.00     0.056 C 
HETATM   14  C   UNL     1      10.012  31.479  58.768  1.00  0.00     0.015 A 
HETATM   15  C   UNL     1       9.228  30.753  57.826  1.00  0.00     0.016 A 
ENDBRANCH   9  10
ENDBRANCH   6   9
ENDBRANCH   1   5
BRANCH   2  16
HETATM   16  C   UNL     1       7.036  25.222  53.749  1.00  0.00     0.061 A 
HETATM   17  C   UNL     1       7.332  23.888  54.198  1.00  0.00     0.008 A 
HETATM   18  C   UNL     1       7.817  23.167  53.105  1.00  0.00     0.043 A 
HETATM   19  C   UNL     1       7.229  23.220  55.437  1.00  0.00     0.015 A 
HETATM   20  C   UNL     1       8.207  21.825  53.188  1.00  0.00     0.030 A 
HETATM   21  N   UNL     1       7.820  24.021  52.029  1.00  0.00    -0.364 N 
HETATM   22  C   UNL     1       8.094  21.192  54.429  1.00  0.00     0.002 A 
HETATM   23  C   UNL     1       7.611  21.877  55.540  1.00  0.00     0.001 A 
HETATM   24  H   UNL     1       8.130  23.767  51.101  1.00  0.00     0.165 HD
HETATM   25  C   UNL     1       7.352  25.254  52.398  1.00  0.00     0.106 A 
ENDBRANCH   2  16
TORSDOF 4
ENDMDL
