MODEL 1
REMARK VINA RESULT:     -11.4      0.000      0.000
REMARK  6 active torsions:
REMARK  status: ('A' for Active; 'I' for Inactive)
REMARK    1  A    between atoms: C_4  and  C_5 
REMARK    2  A    between atoms: C_5  and  N_6 
REMARK    3  A    between atoms: C_14  and  C_15 
REMARK    4  A    between atoms: C_18  and  O_19 
REMARK    5  A    between atoms: O_19  and  C_20 
REMARK    6  A    between atoms: C_20  and  C_21 
ROOT
HETATM    1  N   UNL     1       7.018  33.113  63.436  1.00  0.00    -0.063 N 
HETATM    2  H   UNL     1       7.223  33.909  62.822  1.00  0.00     0.280 HD
HETATM    3  C   UNL     1       8.088  32.080  63.112  1.00  0.00     0.282 C 
HETATM    4  C   UNL     1       7.932  31.633  61.697  1.00  0.00     0.018 A 
HETATM    5  C   UNL     1       6.782  31.787  60.943  1.00  0.00    -0.023 A 
HETATM    6  C   UNL     1       6.968  31.285  59.614  1.00  0.00     0.073 A 
HETATM    7  C   UNL     1       8.222  30.749  59.440  1.00  0.00     0.088 A 
HETATM    8  N   UNL     1       8.646  30.216  58.280  1.00  0.00    -0.358 N 
HETATM    9  C   UNL     1       7.709  29.955  57.209  1.00  0.00     0.219 C 
HETATM   10  N   UNL     1       6.511  30.747  57.340  1.00  0.00    -0.332 N 
HETATM   11  C   UNL     1       6.043  31.292  58.499  1.00  0.00     0.256 C 
HETATM   12  O   UNL     1       4.919  31.778  58.578  1.00  0.00    -0.267 OA
HETATM   13  S   UNL     1       9.176  30.847  60.846  1.00  0.00    -0.074 SA
HETATM   14  C   UNL     1       5.556  32.452  61.497  1.00  0.00     0.068 C 
HETATM   15  C   UNL     1       5.636  32.614  63.029  1.00  0.00     0.240 C 
HETATM   16  H   UNL     1       9.493  29.655  58.253  1.00  0.00     0.162 HD
HETATM   17  H   UNL     1       5.839  30.703  56.587  1.00  0.00     0.165 HD
ENDROOT
BRANCH   9  18
HETATM   18  C   UNL     1       7.401  28.476  57.099  1.00  0.00    -0.016 A 
HETATM   19  C   UNL     1       6.094  27.997  56.907  1.00  0.00     0.014 A 
HETATM   20  C   UNL     1       5.837  26.626  56.779  1.00  0.00     0.037 A 
HETATM   21  C   UNL     1       6.885  25.709  56.840  1.00  0.00     0.069 A 
HETATM   22  C   UNL     1       8.182  26.170  57.058  1.00  0.00     0.037 A 
HETATM   23  C   UNL     1       8.443  27.538  57.186  1.00  0.00     0.014 A 
BRANCH  21  24
HETATM   24  O   UNL     1       6.777  24.353  56.713  1.00  0.00    -0.347 OA
BRANCH  24  25
HETATM   25  C   UNL     1       7.991  23.605  56.668  1.00  0.00     0.214 C 
BRANCH  25  26
HETATM   26  C   UNL     1       7.965  22.734  55.437  1.00  0.00    -0.034 A 
HETATM   27  C   UNL     1       8.019  21.337  55.555  1.00  0.00     0.009 A 
HETATM   28  C   UNL     1       8.003  20.529  54.417  1.00  0.00     0.001 A 
HETATM   29  C   UNL     1       7.938  21.108  53.151  1.00  0.00     0.000 A 
HETATM   30  C   UNL     1       7.895  22.494  53.020  1.00  0.00     0.001 A 
HETATM   31  C   UNL     1       7.910  23.305  54.157  1.00  0.00     0.009 A 
ENDBRANCH  25  26
ENDBRANCH  24  25
ENDBRANCH  21  24
ENDBRANCH   9  18
BRANCH   1  32
HETATM   32  C   UNL     1       7.102  33.657  64.838  1.00  0.00     0.273 C 
BRANCH  32  33
HETATM   33  C   UNL     1       5.887  34.392  65.331  1.00  0.00    -0.033 A 
HETATM   34  C   UNL     1       5.431  35.540  64.660  1.00  0.00     0.009 A 
HETATM   35  C   UNL     1       4.316  36.237  65.125  1.00  0.00     0.001 A 
HETATM   36  C   UNL     1       3.640  35.795  66.260  1.00  0.00     0.000 A 
HETATM   37  C   UNL     1       4.074  34.652  66.927  1.00  0.00     0.001 A 
HETATM   38  C   UNL     1       5.190  33.952  66.466  1.00  0.00     0.009 A 
ENDBRANCH  32  33
ENDBRANCH   1  32
TORSDOF 6
ENDMDL
MODEL 2
REMARK VINA RESULT:     -11.0      2.111     12.087
REMARK  6 active torsions:
REMARK  status: ('A' for Active; 'I' for Inactive)
REMARK    1  A    between atoms: C_4  and  C_5 
REMARK    2  A    between atoms: C_5  and  N_6 
REMARK    3  A    between atoms: C_14  and  C_15 
REMARK    4  A    between atoms: C_18  and  O_19 
REMARK    5  A    between atoms: O_19  and  C_20 
REMARK    6  A    between atoms: C_20  and  C_21 
ROOT
HETATM    1  N   UNL     1       6.478  25.834  55.919  1.00  0.00    -0.063 N 
HETATM    2  H   UNL     1       6.845  26.376  55.127  1.00  0.00     0.280 HD
HETATM    3  C   UNL     1       5.418  26.727  56.549  1.00  0.00     0.282 C 
HETATM    4  C   UNL     1       6.064  27.960  57.084  1.00  0.00     0.018 A 
HETATM    5  C   UNL     1       7.414  28.090  57.356  1.00  0.00    -0.023 A 
HETATM    6  C   UNL     1       7.720  29.408  57.825  1.00  0.00     0.073 A 
HETATM    7  C   UNL     1       6.595  30.191  57.919  1.00  0.00     0.088 A 
HETATM    8  N   UNL     1       6.615  31.473  58.330  1.00  0.00    -0.358 N 
HETATM    9  C   UNL     1       7.807  32.027  58.936  1.00  0.00     0.219 C 
HETATM   10  N   UNL     1       8.986  31.277  58.585  1.00  0.00    -0.332 N 
HETATM   11  C   UNL     1       9.007  29.975  58.177  1.00  0.00     0.256 C 
HETATM   12  O   UNL     1      10.052  29.340  58.091  1.00  0.00    -0.267 OA
HETATM   13  S   UNL     1       5.182  29.368  57.447  1.00  0.00    -0.074 SA
HETATM   14  C   UNL     1       8.380  26.967  57.114  1.00  0.00     0.068 C 
HETATM   15  C   UNL     1       7.653  25.629  56.867  1.00  0.00     0.240 C 
HETATM   16  H   UNL     1       5.750  31.945  58.577  1.00  0.00     0.162 HD
HETATM   17  H   UNL     1       9.878  31.644  58.884  1.00  0.00     0.165 HD
ENDROOT
BRANCH   9  18
HETATM   18  C   UNL     1       7.645  32.160  60.437  1.00  0.00    -0.016 A 
HETATM   19  C   UNL     1       8.714  31.946  61.325  1.00  0.00     0.014 A 
HETATM   20  C   UNL     1       8.550  32.104  62.707  1.00  0.00     0.037 A 
HETATM   21  C   UNL     1       7.312  32.480  63.226  1.00  0.00     0.069 A 
HETATM   22  C   UNL     1       6.238  32.669  62.357  1.00  0.00     0.037 A 
HETATM   23  C   UNL     1       6.398  32.513  60.977  1.00  0.00     0.014 A 
BRANCH  21  24
HETATM   24  O   UNL     1       7.020  32.687  64.545  1.00  0.00    -0.347 OA
BRANCH  24  25
HETATM   25  C   UNL     1       7.258  33.992  65.067  1.00  0.00     0.214 C 
BRANCH  25  26
HETATM   26  C   UNL     1       5.948  34.548  65.567  1.00  0.00    -0.034 A 
HETATM   27  C   UNL     1       5.172  35.381  64.747  1.00  0.00     0.009 A 
HETATM   28  C   UNL     1       3.963  35.903  65.210  1.00  0.00     0.001 A 
HETATM   29  C   UNL     1       3.521  35.602  66.498  1.00  0.00     0.000 A 
HETATM   30  C   UNL     1       4.288  34.785  67.325  1.00  0.00     0.001 A 
HETATM   31  C   UNL     1       5.497  34.261  66.863  1.00  0.00     0.009 A 
ENDBRANCH  25  26
ENDBRANCH  24  25
ENDBRANCH  21  24
ENDBRANCH   9  18
BRANCH   1  32
HETATM   32  C   UNL     1       5.928  24.568  55.316  1.00  0.00     0.273 C 
BRANCH  32  33
HETATM   33  C   UNL     1       6.943  23.620  54.741  1.00  0.00    -0.033 A 
HETATM   34  C   UNL     1       7.372  23.760  53.410  1.00  0.00     0.009 A 
HETATM   35  C   UNL     1       8.299  22.871  52.867  1.00  0.00     0.001 A 
HETATM   36  C   UNL     1       8.812  21.836  53.644  1.00  0.00     0.000 A 
HETATM   37  C   UNL     1       8.405  21.693  54.968  1.00  0.00     0.001 A 
HETATM   38  C   UNL     1       7.477  22.580  55.517  1.00  0.00     0.009 A 
ENDBRANCH  32  33
ENDBRANCH   1  32
TORSDOF 6
ENDMDL
MODEL 3
REMARK VINA RESULT:     -10.8      2.201     12.085
REMARK  6 active torsions:
REMARK  status: ('A' for Active; 'I' for Inactive)
REMARK    1  A    between atoms: C_4  and  C_5 
REMARK    2  A    between atoms: C_5  and  N_6 
REMARK    3  A    between atoms: C_14  and  C_15 
REMARK    4  A    between atoms: C_18  and  O_19 
REMARK    5  A    between atoms: O_19  and  C_20 
REMARK    6  A    between atoms: C_20  and  C_21 
ROOT
HETATM    1  N   UNL     1       6.563  26.055  55.189  1.00  0.00    -0.063 N 
HETATM    2  H   UNL     1       7.099  26.650  54.546  1.00  0.00     0.280 HD
HETATM    3  C   UNL     1       5.369  26.901  55.606  1.00  0.00     0.282 C 
HETATM    4  C   UNL     1       5.846  28.095  56.361  1.00  0.00     0.018 A 
HETATM    5  C   UNL     1       7.090  28.206  56.957  1.00  0.00    -0.023 A 
HETATM    6  C   UNL     1       7.253  29.488  57.573  1.00  0.00     0.073 A 
HETATM    7  C   UNL     1       6.124  30.262  57.448  1.00  0.00     0.088 A 
HETATM    8  N   UNL     1       6.023  31.512  57.937  1.00  0.00    -0.358 N 
HETATM    9  C   UNL     1       7.026  32.024  58.847  1.00  0.00     0.219 C 
HETATM   10  N   UNL     1       8.268  31.301  58.738  1.00  0.00    -0.332 N 
HETATM   11  C   UNL     1       8.408  30.031  58.259  1.00  0.00     0.256 C 
HETATM   12  O   UNL     1       9.455  29.404  58.384  1.00  0.00    -0.267 OA
HETATM   13  S   UNL     1       4.880  29.473  56.597  1.00  0.00    -0.074 SA
HETATM   14  C   UNL     1       8.106  27.104  56.878  1.00  0.00     0.068 C 
HETATM   15  C   UNL     1       7.482  25.786  56.375  1.00  0.00     0.240 C 
HETATM   16  H   UNL     1       5.116  31.966  58.002  1.00  0.00     0.162 HD
HETATM   17  H   UNL     1       9.057  31.647  59.265  1.00  0.00     0.165 HD
ENDROOT
BRANCH   9  18
HETATM   18  C   UNL     1       6.509  32.052  60.271  1.00  0.00    -0.016 A 
HETATM   19  C   UNL     1       7.309  31.675  61.363  1.00  0.00     0.014 A 
HETATM   20  C   UNL     1       6.821  31.737  62.674  1.00  0.00     0.037 A 
HETATM   21  C   UNL     1       5.521  32.180  62.916  1.00  0.00     0.069 A 
HETATM   22  C   UNL     1       4.710  32.531  61.838  1.00  0.00     0.037 A 
HETATM   23  C   UNL     1       5.195  32.471  60.528  1.00  0.00     0.014 A 
BRANCH  21  24
HETATM   24  O   UNL     1       4.928  32.307  64.141  1.00  0.00    -0.347 OA
BRANCH  24  25
HETATM   25  C   UNL     1       4.512  33.614  64.529  1.00  0.00     0.214 C 
BRANCH  25  26
HETATM   26  C   UNL     1       5.142  33.935  65.862  1.00  0.00    -0.034 A 
HETATM   27  C   UNL     1       6.537  33.952  66.001  1.00  0.00     0.009 A 
HETATM   28  C   UNL     1       7.122  34.241  67.235  1.00  0.00     0.001 A 
HETATM   29  C   UNL     1       6.318  34.510  68.343  1.00  0.00     0.000 A 
HETATM   30  C   UNL     1       4.931  34.486  68.219  1.00  0.00     0.001 A 
HETATM   31  C   UNL     1       4.344  34.197  66.985  1.00  0.00     0.009 A 
ENDBRANCH  25  26
ENDBRANCH  24  25
ENDBRANCH  21  24
ENDBRANCH   9  18
BRANCH   1  32
HETATM   32  C   UNL     1       6.195  24.834  54.388  1.00  0.00     0.273 C 
BRANCH  32  33
HETATM   33  C   UNL     1       7.163  23.686  54.459  1.00  0.00    -0.033 A 
HETATM   34  C   UNL     1       7.285  22.931  55.638  1.00  0.00     0.009 A 
HETATM   35  C   UNL     1       8.196  21.878  55.715  1.00  0.00     0.001 A 
HETATM   36  C   UNL     1       8.992  21.562  54.617  1.00  0.00     0.000 A 
HETATM   37  C   UNL     1       8.873  22.293  53.438  1.00  0.00     0.001 A 
HETATM   38  C   UNL     1       7.963  23.349  53.356  1.00  0.00     0.009 A 
ENDBRANCH  32  33
ENDBRANCH   1  32
TORSDOF 6
ENDMDL
MODEL 4
REMARK VINA RESULT:     -10.7      4.567      6.214
REMARK  6 active torsions:
REMARK  status: ('A' for Active; 'I' for Inactive)
REMARK    1  A    between atoms: C_4  and  C_5 
REMARK    2  A    between atoms: C_5  and  N_6 
REMARK    3  A    between atoms: C_14  and  C_15 
REMARK    4  A    between atoms: C_18  and  O_19 
REMARK    5  A    between atoms: O_19  and  C_20 
REMARK    6  A    between atoms: C_20  and  C_21 
ROOT
HETATM    1  N   UNL     1       7.871  31.397  59.459  1.00  0.00    -0.063 N 
HETATM    2  H   UNL     1       7.663  30.743  60.224  1.00  0.00     0.280 HD
HETATM    3  C   UNL     1       6.602  31.434  58.619  1.00  0.00     0.282 C 
HETATM    4  C   UNL     1       6.358  30.086  58.029  1.00  0.00     0.018 A 
HETATM    5  C   UNL     1       7.315  29.096  57.901  1.00  0.00    -0.023 A 
HETATM    6  C   UNL     1       6.754  27.909  57.329  1.00  0.00     0.073 A 
HETATM    7  C   UNL     1       5.424  28.069  57.022  1.00  0.00     0.088 A 
HETATM    8  N   UNL     1       4.666  27.098  56.478  1.00  0.00    -0.358 N 
HETATM    9  C   UNL     1       5.281  25.897  55.956  1.00  0.00     0.219 C 
HETATM   10  N   UNL     1       6.589  25.675  56.519  1.00  0.00    -0.332 N 
HETATM   11  C   UNL     1       7.390  26.633  57.067  1.00  0.00     0.256 C 
HETATM   12  O   UNL     1       8.566  26.415  57.341  1.00  0.00    -0.267 OA
HETATM   13  S   UNL     1       4.842  29.618  57.417  1.00  0.00    -0.074 SA
HETATM   14  C   UNL     1       8.726  29.294  58.373  1.00  0.00     0.068 C 
HETATM   15  C   UNL     1       9.024  30.776  58.680  1.00  0.00     0.240 C 
HETATM   16  H   UNL     1       3.756  27.320  56.084  1.00  0.00     0.162 HD
HETATM   17  H   UNL     1       7.056  24.811  56.287  1.00  0.00     0.165 HD
ENDROOT
BRANCH   9  18
HETATM   18  C   UNL     1       5.312  25.913  54.441  1.00  0.00    -0.016 A 
HETATM   19  C   UNL     1       5.628  24.769  53.688  1.00  0.00     0.014 A 
HETATM   20  C   UNL     1       5.622  24.798  52.288  1.00  0.00     0.037 A 
HETATM   21  C   UNL     1       5.297  25.975  51.615  1.00  0.00     0.069 A 
HETATM   22  C   UNL     1       5.008  27.123  52.351  1.00  0.00     0.037 A 
HETATM   23  C   UNL     1       5.013  27.097  53.749  1.00  0.00     0.014 A 
BRANCH  21  24
HETATM   24  O   UNL     1       5.234  26.137  50.259  1.00  0.00    -0.347 OA
BRANCH  24  25
HETATM   25  C   UNL     1       4.763  27.393  49.776  1.00  0.00     0.214 C 
BRANCH  25  26
HETATM   26  C   UNL     1       3.628  27.135  48.815  1.00  0.00    -0.034 A 
HETATM   27  C   UNL     1       3.722  26.105  47.868  1.00  0.00     0.009 A 
HETATM   28  C   UNL     1       2.676  25.869  46.973  1.00  0.00     0.001 A 
HETATM   29  C   UNL     1       1.531  26.663  47.014  1.00  0.00     0.000 A 
HETATM   30  C   UNL     1       1.432  27.695  47.943  1.00  0.00     0.001 A 
HETATM   31  C   UNL     1       2.475  27.933  48.839  1.00  0.00     0.009 A 
ENDBRANCH  25  26
ENDBRANCH  24  25
ENDBRANCH  21  24
ENDBRANCH   9  18
BRANCH   1  32
HETATM   32  C   UNL     1       8.196  32.705  60.130  1.00  0.00     0.273 C 
BRANCH  32  33
HETATM   33  C   UNL     1       7.644  32.888  61.516  1.00  0.00    -0.033 A 
HETATM   34  C   UNL     1       6.391  33.495  61.707  1.00  0.00     0.009 A 
HETATM   35  C   UNL     1       5.884  33.685  62.992  1.00  0.00     0.001 A 
HETATM   36  C   UNL     1       6.616  33.266  64.100  1.00  0.00     0.000 A 
HETATM   37  C   UNL     1       7.852  32.651  63.925  1.00  0.00     0.001 A 
HETATM   38  C   UNL     1       8.365  32.460  62.641  1.00  0.00     0.009 A 
ENDBRANCH  32  33
ENDBRANCH   1  32
TORSDOF 6
ENDMDL
MODEL 5
REMARK VINA RESULT:     -10.6      1.840      2.381
REMARK  6 active torsions:
REMARK  status: ('A' for Active; 'I' for Inactive)
REMARK    1  A    between atoms: C_4  and  C_5 
REMARK    2  A    between atoms: C_5  and  N_6 
REMARK    3  A    between atoms: C_14  and  C_15 
REMARK    4  A    between atoms: C_18  and  O_19 
REMARK    5  A    between atoms: O_19  and  C_20 
REMARK    6  A    between atoms: C_20  and  C_21 
ROOT
HETATM    1  N   UNL     1       5.533  33.504  61.347  1.00  0.00    -0.063 N 
HETATM    2  H   UNL     1       5.844  34.196  60.655  1.00  0.00     0.280 HD
HETATM    3  C   UNL     1       6.695  32.530  61.479  1.00  0.00     0.282 C 
HETATM    4  C   UNL     1       6.908  31.832  60.179  1.00  0.00     0.018 A 
HETATM    5  C   UNL     1       5.969  31.747  59.166  1.00  0.00    -0.023 A 
HETATM    6  C   UNL     1       6.493  31.040  58.036  1.00  0.00     0.073 A 
HETATM    7  C   UNL     1       7.775  30.597  58.260  1.00  0.00     0.088 A 
HETATM    8  N   UNL     1       8.492  29.910  57.352  1.00  0.00    -0.358 N 
HETATM    9  C   UNL     1       7.854  29.383  56.164  1.00  0.00     0.219 C 
HETATM   10  N   UNL     1       6.625  30.074  55.863  1.00  0.00    -0.332 N 
HETATM   11  C   UNL     1       5.866  30.769  56.758  1.00  0.00     0.256 C 
HETATM   12  O   UNL     1       4.736  31.158  56.484  1.00  0.00    -0.267 OA
HETATM   13  S   UNL     1       8.355  31.024  59.802  1.00  0.00    -0.074 SA
HETATM   14  C   UNL     1       4.616  32.386  59.287  1.00  0.00     0.068 C 
HETATM   15  C   UNL     1       4.315  32.820  60.736  1.00  0.00     0.240 C 
HETATM   16  H   UNL     1       9.345  29.431  57.628  1.00  0.00     0.162 HD
HETATM   17  H   UNL     1       6.158  29.840  55.000  1.00  0.00     0.165 HD
ENDROOT
BRANCH   9  18
HETATM   18  C   UNL     1       7.650  27.885  56.272  1.00  0.00    -0.016 A 
HETATM   19  C   UNL     1       6.812  27.181  55.392  1.00  0.00     0.014 A 
HETATM   20  C   UNL     1       6.661  25.792  55.491  1.00  0.00     0.037 A 
HETATM   21  C   UNL     1       7.349  25.082  56.474  1.00  0.00     0.069 A 
HETATM   22  C   UNL     1       8.162  25.774  57.370  1.00  0.00     0.037 A 
HETATM   23  C   UNL     1       8.316  27.161  57.273  1.00  0.00     0.014 A 
BRANCH  21  24
HETATM   24  O   UNL     1       7.308  23.730  56.669  1.00  0.00    -0.347 OA
BRANCH  24  25
HETATM   25  C   UNL     1       8.535  23.016  56.534  1.00  0.00     0.214 C 
BRANCH  25  26
HETATM   26  C   UNL     1       8.437  22.136  55.312  1.00  0.00    -0.034 A 
HETATM   27  C   UNL     1       8.829  20.791  55.375  1.00  0.00     0.009 A 
HETATM   28  C   UNL     1       8.748  19.976  54.244  1.00  0.00     0.001 A 
HETATM   29  C   UNL     1       8.279  20.499  53.040  1.00  0.00     0.000 A 
HETATM   30  C   UNL     1       7.897  21.836  52.963  1.00  0.00     0.001 A 
HETATM   31  C   UNL     1       7.977  22.653  54.093  1.00  0.00     0.009 A 
ENDBRANCH  25  26
ENDBRANCH  24  25
ENDBRANCH  21  24
ENDBRANCH   9  18
BRANCH   1  32
HETATM   32  C   UNL     1       5.251  34.290  62.600  1.00  0.00     0.273 C 
BRANCH  32  33
HETATM   33  C   UNL     1       5.297  35.786  62.460  1.00  0.00    -0.033 A 
HETATM   34  C   UNL     1       5.874  36.576  63.470  1.00  0.00     0.009 A 
HETATM   35  C   UNL     1       5.901  37.966  63.354  1.00  0.00     0.001 A 
HETATM   36  C   UNL     1       5.360  38.583  62.229  1.00  0.00     0.000 A 
HETATM   37  C   UNL     1       4.797  37.812  61.216  1.00  0.00     0.001 A 
HETATM   38  C   UNL     1       4.767  36.421  61.327  1.00  0.00     0.009 A 
ENDBRANCH  32  33
ENDBRANCH   1  32
TORSDOF 6
ENDMDL
MODEL 6
REMARK VINA RESULT:      -9.5      4.861      6.128
REMARK  6 active torsions:
REMARK  status: ('A' for Active; 'I' for Inactive)
REMARK    1  A    between atoms: C_4  and  C_5 
REMARK    2  A    between atoms: C_5  and  N_6 
REMARK    3  A    between atoms: C_14  and  C_15 
REMARK    4  A    between atoms: C_18  and  O_19 
REMARK    5  A    between atoms: O_19  and  C_20 
REMARK    6  A    between atoms: C_20  and  C_21 
ROOT
HETATM    1  N   UNL     1       5.702  32.460  59.954  1.00  0.00    -0.063 N 
HETATM    2  H   UNL     1       5.670  31.670  60.610  1.00  0.00     0.280 HD
HETATM    3  C   UNL     1       4.529  32.234  59.011  1.00  0.00     0.282 C 
HETATM    4  C   UNL     1       4.746  30.976  58.241  1.00  0.00     0.018 A 
HETATM    5  C   UNL     1       5.970  30.350  58.081  1.00  0.00    -0.023 A 
HETATM    6  C   UNL     1       5.836  29.146  57.318  1.00  0.00     0.073 A 
HETATM    7  C   UNL     1       4.540  28.939  56.911  1.00  0.00     0.088 A 
HETATM    8  N   UNL     1       4.150  27.875  56.185  1.00  0.00    -0.358 N 
HETATM    9  C   UNL     1       5.134  27.005  55.578  1.00  0.00     0.219 C 
HETATM   10  N   UNL     1       6.416  27.109  56.228  1.00  0.00    -0.332 N 
HETATM   11  C   UNL     1       6.851  28.174  56.961  1.00  0.00     0.256 C 
HETATM   12  O   UNL     1       8.021  28.284  57.313  1.00  0.00    -0.267 OA
HETATM   13  S   UNL     1       3.485  30.166  57.438  1.00  0.00    -0.074 SA
HETATM   14  C   UNL     1       7.223  30.895  58.702  1.00  0.00     0.068 C 
HETATM   15  C   UNL     1       7.029  32.336  59.214  1.00  0.00     0.240 C 
HETATM   16  H   UNL     1       3.237  27.866  55.738  1.00  0.00     0.162 HD
HETATM   17  H   UNL     1       7.141  26.469  55.935  1.00  0.00     0.165 HD
ENDROOT
BRANCH   9  18
HETATM   18  C   UNL     1       5.234  27.249  54.085  1.00  0.00    -0.016 A 
HETATM   19  C   UNL     1       5.578  28.505  53.556  1.00  0.00     0.014 A 
HETATM   20  C   UNL     1       5.694  28.701  52.174  1.00  0.00     0.037 A 
HETATM   21  C   UNL     1       5.467  27.642  51.296  1.00  0.00     0.069 A 
HETATM   22  C   UNL     1       5.098  26.399  51.809  1.00  0.00     0.037 A 
HETATM   23  C   UNL     1       4.983  26.200  53.188  1.00  0.00     0.014 A 
BRANCH  21  24
HETATM   24  O   UNL     1       5.564  27.690  49.934  1.00  0.00    -0.347 OA
BRANCH  24  25
HETATM   25  C   UNL     1       4.757  28.652  49.258  1.00  0.00     0.214 C 
BRANCH  25  26
HETATM   26  C   UNL     1       3.626  27.925  48.573  1.00  0.00    -0.034 A 
HETATM   27  C   UNL     1       2.301  28.349  48.750  1.00  0.00     0.009 A 
HETATM   28  C   UNL     1       1.253  27.673  48.123  1.00  0.00     0.001 A 
HETATM   29  C   UNL     1       1.518  26.566  47.319  1.00  0.00     0.000 A 
HETATM   30  C   UNL     1       2.829  26.130  47.144  1.00  0.00     0.001 A 
HETATM   31  C   UNL     1       3.880  26.804  47.769  1.00  0.00     0.009 A 
ENDBRANCH  25  26
ENDBRANCH  24  25
ENDBRANCH  21  24
ENDBRANCH   9  18
BRANCH   1  32
HETATM   32  C   UNL     1       5.569  33.693  60.807  1.00  0.00     0.273 C 
BRANCH  32  33
HETATM   33  C   UNL     1       6.242  33.637  62.151  1.00  0.00    -0.033 A 
HETATM   34  C   UNL     1       7.275  32.716  62.390  1.00  0.00     0.009 A 
HETATM   35  C   UNL     1       7.888  32.647  63.641  1.00  0.00     0.001 A 
HETATM   36  C   UNL     1       7.482  33.499  64.665  1.00  0.00     0.000 A 
HETATM   37  C   UNL     1       6.468  34.425  64.438  1.00  0.00     0.001 A 
HETATM   38  C   UNL     1       5.851  34.498  63.188  1.00  0.00     0.009 A 
ENDBRANCH  32  33
ENDBRANCH   1  32
TORSDOF 6
ENDMDL
MODEL 7
REMARK VINA RESULT:      -9.3      8.528     12.764
REMARK  6 active torsions:
REMARK  status: ('A' for Active; 'I' for Inactive)
REMARK    1  A    between atoms: C_4  and  C_5 
REMARK    2  A    between atoms: C_5  and  N_6 
REMARK    3  A    between atoms: C_14  and  C_15 
REMARK    4  A    between atoms: C_18  and  O_19 
REMARK    5  A    between atoms: O_19  and  C_20 
REMARK    6  A    between atoms: C_20  and  C_21 
ROOT
HETATM    1  N   UNL     1       7.403  24.932  54.155  1.00  0.00    -0.063 N 
HETATM    2  H   UNL     1       6.626  24.274  54.021  1.00  0.00     0.280 HD
HETATM    3  C   UNL     1       6.761  26.184  54.736  1.00  0.00     0.282 C 
HETATM    4  C   UNL     1       5.818  26.767  53.738  1.00  0.00     0.018 A 
HETATM    5  C   UNL     1       5.834  26.491  52.383  1.00  0.00    -0.023 A 
HETATM    6  C   UNL     1       4.779  27.183  51.705  1.00  0.00     0.073 A 
HETATM    7  C   UNL     1       4.047  27.968  52.564  1.00  0.00     0.088 A 
HETATM    8  N   UNL     1       2.997  28.714  52.175  1.00  0.00    -0.358 N 
HETATM    9  C   UNL     1       2.730  28.923  50.768  1.00  0.00     0.219 C 
HETATM   10  N   UNL     1       3.341  27.906  49.949  1.00  0.00    -0.332 N 
HETATM   11  C   UNL     1       4.411  27.139  50.304  1.00  0.00     0.256 C 
HETATM   12  O   UNL     1       5.005  26.440  49.489  1.00  0.00    -0.267 OA
HETATM   13  S   UNL     1       4.606  27.879  54.169  1.00  0.00    -0.074 SA
HETATM   14  C   UNL     1       6.825  25.538  51.781  1.00  0.00     0.068 C 
HETATM   15  C   UNL     1       7.965  25.203  52.764  1.00  0.00     0.240 C 
HETATM   16  H   UNL     1       2.618  29.427  52.793  1.00  0.00     0.162 HD
HETATM   17  H   UNL     1       3.130  27.914  48.962  1.00  0.00     0.165 HD
ENDROOT
BRANCH   9  18
HETATM   18  C   UNL     1       3.134  30.318  50.335  1.00  0.00    -0.016 A 
HETATM   19  C   UNL     1       3.265  31.375  51.251  1.00  0.00     0.014 A 
HETATM   20  C   UNL     1       3.669  32.650  50.834  1.00  0.00     0.037 A 
HETATM   21  C   UNL     1       3.951  32.888  49.490  1.00  0.00     0.069 A 
HETATM   22  C   UNL     1       3.798  31.854  48.568  1.00  0.00     0.037 A 
HETATM   23  C   UNL     1       3.396  30.580  48.982  1.00  0.00     0.014 A 
BRANCH  21  24
HETATM   24  O   UNL     1       4.370  34.072  48.952  1.00  0.00    -0.347 OA
BRANCH  24  25
HETATM   25  C   UNL     1       5.580  34.627  49.465  1.00  0.00     0.214 C 
BRANCH  25  26
HETATM   26  C   UNL     1       6.593  34.668  48.347  1.00  0.00    -0.034 A 
HETATM   27  C   UNL     1       7.814  35.335  48.522  1.00  0.00     0.009 A 
HETATM   28  C   UNL     1       8.750  35.380  47.487  1.00  0.00     0.001 A 
HETATM   29  C   UNL     1       8.472  34.765  46.267  1.00  0.00     0.000 A 
HETATM   30  C   UNL     1       7.258  34.108  46.079  1.00  0.00     0.001 A 
HETATM   31  C   UNL     1       6.321  34.061  47.113  1.00  0.00     0.009 A 
ENDBRANCH  25  26
ENDBRANCH  24  25
ENDBRANCH  21  24
ENDBRANCH   9  18
BRANCH   1  32
HETATM   32  C   UNL     1       8.354  24.242  55.096  1.00  0.00     0.273 C 
BRANCH  32  33
HETATM   33  C   UNL     1       8.330  22.739  55.068  1.00  0.00    -0.033 A 
HETATM   34  C   UNL     1       8.360  22.006  56.267  1.00  0.00     0.009 A 
HETATM   35  C   UNL     1       8.358  20.611  56.245  1.00  0.00     0.001 A 
HETATM   36  C   UNL     1       8.319  19.932  55.030  1.00  0.00     0.000 A 
HETATM   37  C   UNL     1       8.276  20.646  53.835  1.00  0.00     0.001 A 
HETATM   38  C   UNL     1       8.279  22.042  53.851  1.00  0.00     0.009 A 
ENDBRANCH  32  33
ENDBRANCH   1  32
TORSDOF 6
ENDMDL
MODEL 8
REMARK VINA RESULT:      -9.1      8.102     11.935
REMARK  6 active torsions:
REMARK  status: ('A' for Active; 'I' for Inactive)
REMARK    1  A    between atoms: C_4  and  C_5 
REMARK    2  A    between atoms: C_5  and  N_6 
REMARK    3  A    between atoms: C_14  and  C_15 
REMARK    4  A    between atoms: C_18  and  O_19 
REMARK    5  A    between atoms: O_19  and  C_20 
REMARK    6  A    between atoms: C_20  and  C_21 
ROOT
HETATM    1  N   UNL     1       4.892  32.258  46.781  1.00  0.00    -0.063 N 
HETATM    2  H   UNL     1       3.949  32.629  46.951  1.00  0.00     0.280 HD
HETATM    3  C   UNL     1       4.738  30.746  46.845  1.00  0.00     0.282 C 
HETATM    4  C   UNL     1       4.317  30.348  48.220  1.00  0.00     0.018 A 
HETATM    5  C   UNL     1       4.458  31.137  49.348  1.00  0.00    -0.023 A 
HETATM    6  C   UNL     1       3.926  30.482  50.504  1.00  0.00     0.073 A 
HETATM    7  C   UNL     1       3.447  29.228  50.207  1.00  0.00     0.088 A 
HETATM    8  N   UNL     1       2.890  28.410  51.119  1.00  0.00    -0.358 N 
HETATM    9  C   UNL     1       2.989  28.715  52.530  1.00  0.00     0.219 C 
HETATM   10  N   UNL     1       3.257  30.112  52.760  1.00  0.00    -0.332 N 
HETATM   11  C   UNL     1       3.829  30.969  51.866  1.00  0.00     0.256 C 
HETATM   12  O   UNL     1       4.213  32.086  52.194  1.00  0.00    -0.267 OA
HETATM   13  S   UNL     1       3.622  28.834  48.561  1.00  0.00    -0.074 SA
HETATM   14  C   UNL     1       5.052  32.514  49.280  1.00  0.00     0.068 C 
HETATM   15  C   UNL     1       5.755  32.768  47.930  1.00  0.00     0.240 C 
HETATM   16  H   UNL     1       2.738  27.429  50.903  1.00  0.00     0.162 HD
HETATM   17  H   UNL     1       3.249  30.437  53.716  1.00  0.00     0.165 HD
ENDROOT
BRANCH   9  18
HETATM   18  C   UNL     1       4.007  27.823  53.212  1.00  0.00    -0.016 A 
HETATM   19  C   UNL     1       4.500  28.100  54.499  1.00  0.00     0.014 A 
HETATM   20  C   UNL     1       5.418  27.246  55.122  1.00  0.00     0.037 A 
HETATM   21  C   UNL     1       5.861  26.097  54.468  1.00  0.00     0.069 A 
HETATM   22  C   UNL     1       5.400  25.827  53.180  1.00  0.00     0.037 A 
HETATM   23  C   UNL     1       4.482  26.677  52.555  1.00  0.00     0.014 A 
BRANCH  21  24
HETATM   24  O   UNL     1       6.736  25.173  54.965  1.00  0.00    -0.347 OA
BRANCH  24  25
HETATM   25  C   UNL     1       7.760  24.710  54.087  1.00  0.00     0.214 C 
BRANCH  25  26
HETATM   26  C   UNL     1       7.830  23.206  54.194  1.00  0.00    -0.034 A 
HETATM   27  C   UNL     1       7.991  22.420  53.044  1.00  0.00     0.009 A 
HETATM   28  C   UNL     1       8.049  21.029  53.139  1.00  0.00     0.001 A 
HETATM   29  C   UNL     1       7.942  20.410  54.384  1.00  0.00     0.000 A 
HETATM   30  C   UNL     1       7.771  21.180  55.532  1.00  0.00     0.001 A 
HETATM   31  C   UNL     1       7.714  22.571  55.439  1.00  0.00     0.009 A 
ENDBRANCH  25  26
ENDBRANCH  24  25
ENDBRANCH  21  24
ENDBRANCH   9  18
BRANCH   1  32
HETATM   32  C   UNL     1       5.286  32.774  45.422  1.00  0.00     0.273 C 
BRANCH  32  33
HETATM   33  C   UNL     1       6.030  34.080  45.406  1.00  0.00    -0.033 A 
HETATM   34  C   UNL     1       7.431  34.097  45.286  1.00  0.00     0.009 A 
HETATM   35  C   UNL     1       8.127  35.305  45.290  1.00  0.00     0.001 A 
HETATM   36  C   UNL     1       7.436  36.509  45.409  1.00  0.00     0.000 A 
HETATM   37  C   UNL     1       6.048  36.507  45.516  1.00  0.00     0.001 A 
HETATM   38  C   UNL     1       5.346  35.300  45.512  1.00  0.00     0.009 A 
ENDBRANCH  32  33
ENDBRANCH   1  32
TORSDOF 6
ENDMDL
MODEL 9
REMARK VINA RESULT:      -8.8      9.270     13.524
REMARK  6 active torsions:
REMARK  status: ('A' for Active; 'I' for Inactive)
REMARK    1  A    between atoms: C_4  and  C_5 
REMARK    2  A    between atoms: C_5  and  N_6 
REMARK    3  A    between atoms: C_14  and  C_15 
REMARK    4  A    between atoms: C_18  and  O_19 
REMARK    5  A    between atoms: O_19  and  C_20 
REMARK    6  A    between atoms: C_20  and  C_21 
ROOT
HETATM    1  N   UNL     1       3.158  31.717  45.505  1.00  0.00    -0.063 N 
HETATM    2  H   UNL     1       3.036  32.569  46.066  1.00  0.00     0.280 HD
HETATM    3  C   UNL     1       2.304  30.665  46.199  1.00  0.00     0.282 C 
HETATM    4  C   UNL     1       2.846  30.409  47.565  1.00  0.00     0.018 A 
HETATM    5  C   UNL     1       4.127  30.731  47.979  1.00  0.00    -0.023 A 
HETATM    6  C   UNL     1       4.323  30.387  49.355  1.00  0.00     0.073 A 
HETATM    7  C   UNL     1       3.208  29.796  49.900  1.00  0.00     0.088 A 
HETATM    8  N   UNL     1       3.136  29.386  51.179  1.00  0.00    -0.358 N 
HETATM    9  C   UNL     1       4.329  29.322  51.995  1.00  0.00     0.219 C 
HETATM   10  N   UNL     1       5.377  30.167  51.480  1.00  0.00    -0.332 N 
HETATM   11  C   UNL     1       5.491  30.594  50.189  1.00  0.00     0.256 C 
HETATM   12  O   UNL     1       6.508  31.138  49.775  1.00  0.00    -0.267 OA
HETATM   13  S   UNL     1       1.931  29.656  48.784  1.00  0.00    -0.074 SA
HETATM   14  C   UNL     1       5.109  31.401  47.063  1.00  0.00     0.068 C 
HETATM   15  C   UNL     1       4.638  31.365  45.595  1.00  0.00     0.240 C 
HETATM   16  H   UNL     1       2.378  28.778  51.480  1.00  0.00     0.162 HD
HETATM   17  H   UNL     1       6.215  30.262  52.036  1.00  0.00     0.165 HD
ENDROOT
BRANCH   9  18
HETATM   18  C   UNL     1       4.793  27.891  52.176  1.00  0.00    -0.016 A 
HETATM   19  C   UNL     1       5.359  27.151  51.123  1.00  0.00     0.014 A 
HETATM   20  C   UNL     1       5.808  25.839  51.320  1.00  0.00     0.037 A 
HETATM   21  C   UNL     1       5.699  25.243  52.575  1.00  0.00     0.069 A 
HETATM   22  C   UNL     1       5.113  25.958  53.620  1.00  0.00     0.037 A 
HETATM   23  C   UNL     1       4.665  27.268  53.427  1.00  0.00     0.014 A 
BRANCH  21  24
HETATM   24  O   UNL     1       6.112  23.984  52.908  1.00  0.00    -0.347 OA
BRANCH  24  25
HETATM   25  C   UNL     1       7.513  23.724  52.857  1.00  0.00     0.214 C 
BRANCH  25  26
HETATM   26  C   UNL     1       7.799  22.504  53.697  1.00  0.00    -0.034 A 
HETATM   27  C   UNL     1       7.646  22.551  55.090  1.00  0.00     0.009 A 
HETATM   28  C   UNL     1       7.918  21.426  55.871  1.00  0.00     0.001 A 
HETATM   29  C   UNL     1       8.350  20.246  55.267  1.00  0.00     0.000 A 
HETATM   30  C   UNL     1       8.515  20.191  53.885  1.00  0.00     0.001 A 
HETATM   31  C   UNL     1       8.244  21.315  53.103  1.00  0.00     0.009 A 
ENDBRANCH  25  26
ENDBRANCH  24  25
ENDBRANCH  21  24
ENDBRANCH   9  18
BRANCH   1  32
HETATM   32  C   UNL     1       2.679  32.076  44.124  1.00  0.00     0.273 C 
BRANCH  32  33
HETATM   33  C   UNL     1       3.751  32.401  43.121  1.00  0.00    -0.033 A 
HETATM   34  C   UNL     1       4.079  31.483  42.109  1.00  0.00     0.009 A 
HETATM   35  C   UNL     1       5.086  31.772  41.189  1.00  0.00     0.001 A 
HETATM   36  C   UNL     1       5.774  32.981  41.263  1.00  0.00     0.000 A 
HETATM   37  C   UNL     1       5.450  33.905  42.253  1.00  0.00     0.001 A 
HETATM   38  C   UNL     1       4.443  33.621  43.177  1.00  0.00     0.009 A 
ENDBRANCH  32  33
ENDBRANCH   1  32
TORSDOF 6
ENDMDL
MODEL 10
REMARK VINA RESULT:      -8.6      7.509     10.898
REMARK  6 active torsions:
REMARK  status: ('A' for Active; 'I' for Inactive)
REMARK    1  A    between atoms: C_4  and  C_5 
REMARK    2  A    between atoms: C_5  and  N_6 
REMARK    3  A    between atoms: C_14  and  C_15 
REMARK    4  A    between atoms: C_18  and  O_19 
REMARK    5  A    between atoms: O_19  and  C_20 
REMARK    6  A    between atoms: C_20  and  C_21 
ROOT
HETATM    1  N   UNL     1       6.681  27.517  56.159  1.00  0.00    -0.063 N 
HETATM    2  H   UNL     1       6.013  26.739  56.216  1.00  0.00     0.280 HD
HETATM    3  C   UNL     1       5.845  28.725  55.761  1.00  0.00     0.282 C 
HETATM    4  C   UNL     1       5.266  28.502  54.405  1.00  0.00     0.018 A 
HETATM    5  C   UNL     1       5.738  27.580  53.487  1.00  0.00    -0.023 A 
HETATM    6  C   UNL     1       4.944  27.588  52.295  1.00  0.00     0.073 A 
HETATM    7  C   UNL     1       3.945  28.531  52.352  1.00  0.00     0.088 A 
HETATM    8  N   UNL     1       3.060  28.735  51.360  1.00  0.00    -0.358 N 
HETATM    9  C   UNL     1       3.266  28.131  50.061  1.00  0.00     0.219 C 
HETATM   10  N   UNL     1       4.145  26.990  50.133  1.00  0.00    -0.332 N 
HETATM   11  C   UNL     1       5.062  26.756  51.115  1.00  0.00     0.256 C 
HETATM   12  O   UNL     1       5.913  25.879  51.009  1.00  0.00    -0.267 OA
HETATM   13  S   UNL     1       3.945  29.397  53.817  1.00  0.00    -0.074 SA
HETATM   14  C   UNL     1       6.901  26.683  53.794  1.00  0.00     0.068 C 
HETATM   15  C   UNL     1       7.663  27.146  55.054  1.00  0.00     0.240 C 
HETATM   16  H   UNL     1       2.475  29.566  51.357  1.00  0.00     0.162 HD
HETATM   17  H   UNL     1       4.272  26.446  49.292  1.00  0.00     0.165 HD
ENDROOT
BRANCH   9  18
HETATM   18  C   UNL     1       3.746  29.154  49.052  1.00  0.00    -0.016 A 
HETATM   19  C   UNL     1       3.225  29.219  47.748  1.00  0.00     0.014 A 
HETATM   20  C   UNL     1       3.663  30.192  46.841  1.00  0.00     0.037 A 
HETATM   21  C   UNL     1       4.630  31.120  47.223  1.00  0.00     0.069 A 
HETATM   22  C   UNL     1       5.174  31.048  48.505  1.00  0.00     0.037 A 
HETATM   23  C   UNL     1       4.739  30.078  49.413  1.00  0.00     0.014 A 
BRANCH  21  24
HETATM   24  O   UNL     1       5.130  32.128  46.448  1.00  0.00    -0.347 OA
BRANCH  24  25
HETATM   25  C   UNL     1       4.928  33.462  46.908  1.00  0.00     0.214 C 
BRANCH  25  26
HETATM   26  C   UNL     1       6.279  34.109  47.094  1.00  0.00    -0.034 A 
HETATM   27  C   UNL     1       6.644  34.641  48.339  1.00  0.00     0.009 A 
HETATM   28  C   UNL     1       7.890  35.246  48.513  1.00  0.00     0.001 A 
HETATM   29  C   UNL     1       8.780  35.329  47.443  1.00  0.00     0.000 A 
HETATM   30  C   UNL     1       8.424  34.813  46.199  1.00  0.00     0.001 A 
HETATM   31  C   UNL     1       7.179  34.207  46.024  1.00  0.00     0.009 A 
ENDBRANCH  25  26
ENDBRANCH  24  25
ENDBRANCH  21  24
ENDBRANCH   9  18
BRANCH   1  32
HETATM   32  C   UNL     1       7.290  27.623  57.532  1.00  0.00     0.273 C 
BRANCH  32  33
HETATM   33  C   UNL     1       8.250  28.761  57.739  1.00  0.00    -0.033 A 
HETATM   34  C   UNL     1       7.933  29.806  58.624  1.00  0.00     0.009 A 
HETATM   35  C   UNL     1       8.812  30.874  58.803  1.00  0.00     0.001 A 
HETATM   36  C   UNL     1      10.018  30.910  58.107  1.00  0.00     0.000 A 
HETATM   37  C   UNL     1      10.350  29.876  57.237  1.00  0.00     0.001 A 
HETATM   38  C   UNL     1       9.474  28.804  57.054  1.00  0.00     0.009 A 
ENDBRANCH  32  33
ENDBRANCH   1  32
TORSDOF 6
ENDMDL
