MODEL 1
REMARK VINA RESULT:      -8.4      0.000      0.000
REMARK  6 active torsions:
REMARK  status: ('A' for Active; 'I' for Inactive)
REMARK    1  A    between atoms: C_2  and  C_3 
REMARK    2  A    between atoms: C_5  and  N_6 
REMARK       I    between atoms: N_6  and  C_7 
REMARK       I    between atoms: C_7  and  N_8 
REMARK    3  A    between atoms: N_8  and  C_9 
REMARK    4  A    between atoms: C_9  and  C_10 
REMARK    5  A    between atoms: C_10  and  N_11 
REMARK    6  A    between atoms: C_18  and  O_19 
ROOT
HETATM    1  N   UNL     1       6.587  26.444  55.596  1.00  0.00    -0.306 N 
HETATM    2  C   UNL     1       5.546  26.263  56.457  1.00  0.00     0.320 C 
HETATM    3  N   UNL     1       5.169  27.375  57.158  1.00  0.00    -0.341 N 
HETATM    4  O   UNL     1       4.943  25.217  56.672  1.00  0.00    -0.247 OA
HETATM    5  H   UNL     1       7.228  27.199  55.808  1.00  0.00     0.171 HD
HETATM    6  H   UNL     1       4.378  27.143  57.748  1.00  0.00     0.164 HD
ENDROOT
BRANCH   1   7
HETATM    7  C   UNL     1       7.076  25.536  54.630  1.00  0.00     0.070 A 
HETATM    8  C   UNL     1       7.431  24.218  54.940  1.00  0.00     0.040 A 
HETATM    9  C   UNL     1       7.878  23.318  53.951  1.00  0.00    -0.048 A 
HETATM   10  C   UNL     1       7.960  23.798  52.635  1.00  0.00     0.011 A 
HETATM   11  C   UNL     1       7.603  25.114  52.312  1.00  0.00     0.039 A 
HETATM   12  C   UNL     1       7.154  25.987  53.302  1.00  0.00     0.095 A 
BRANCH   9  13
HETATM   13  C   UNL     1       8.230  21.869  54.335  1.00  0.00    -0.024 C 
HETATM   14  C   UNL     1       9.733  21.784  54.684  1.00  0.00     0.019 C 
HETATM   15  C   UNL     1       7.927  20.920  53.155  1.00  0.00     0.019 C 
HETATM   16  C   UNL     1       7.446  21.341  55.557  1.00  0.00     0.019 C 
ENDBRANCH   9  13
BRANCH  12  17
HETATM   17  O   UNL     1       6.771  27.292  53.092  1.00  0.00    -0.354 OA
HETATM   18  C   UNL     1       5.679  27.509  52.208  1.00  0.00     0.210 C 
ENDBRANCH  12  17
ENDBRANCH   1   7
BRANCH   3  19
HETATM   19  C   UNL     1       5.232  28.751  56.678  1.00  0.00     0.146 C 
BRANCH  19  20
HETATM   20  C   UNL     1       6.166  29.609  57.523  1.00  0.00     0.170 C 
BRANCH  20  21
HETATM   21  N   UNL     1       7.538  29.530  57.061  1.00  0.00    -0.278 N 
HETATM   22  N   UNL     1       7.798  29.150  55.794  1.00  0.00    -0.184 NA
HETATM   23  C   UNL     1       9.132  29.223  55.714  1.00  0.00     0.164 A 
HETATM   24  C   UNL     1       9.716  29.634  56.924  1.00  0.00     0.070 A 
HETATM   25 CL   UNL     1      11.364  29.846  57.230  1.00  0.00    -0.081 Cl
HETATM   26  C   UNL     1       8.660  29.823  57.782  1.00  0.00     0.137 A 
ENDBRANCH  20  21
ENDBRANCH  19  20
ENDBRANCH   3  19
TORSDOF 6
ENDMDL
MODEL 2
REMARK VINA RESULT:      -7.8      1.921      2.254
REMARK  6 active torsions:
REMARK  status: ('A' for Active; 'I' for Inactive)
REMARK    1  A    between atoms: C_2  and  C_3 
REMARK    2  A    between atoms: C_5  and  N_6 
REMARK       I    between atoms: N_6  and  C_7 
REMARK       I    between atoms: C_7  and  N_8 
REMARK    3  A    between atoms: N_8  and  C_9 
REMARK    4  A    between atoms: C_9  and  C_10 
REMARK    5  A    between atoms: C_10  and  N_11 
REMARK    6  A    between atoms: C_18  and  O_19 
ROOT
HETATM    1  N   UNL     1       6.776  27.073  54.634  1.00  0.00    -0.306 N 
HETATM    2  C   UNL     1       7.514  28.218  54.618  1.00  0.00     0.320 C 
HETATM    3  N   UNL     1       7.019  29.244  55.375  1.00  0.00    -0.341 N 
HETATM    4  O   UNL     1       8.547  28.419  53.987  1.00  0.00    -0.247 OA
HETATM    5  H   UNL     1       5.789  27.170  54.845  1.00  0.00     0.171 HD
HETATM    6  H   UNL     1       7.649  30.035  55.315  1.00  0.00     0.164 HD
ENDROOT
BRANCH   1   7
HETATM    7  C   UNL     1       7.122  25.815  54.095  1.00  0.00     0.070 A 
HETATM    8  C   UNL     1       7.603  24.760  54.880  1.00  0.00     0.040 A 
HETATM    9  C   UNL     1       7.905  23.499  54.325  1.00  0.00    -0.048 A 
HETATM   10  C   UNL     1       7.709  23.341  52.945  1.00  0.00     0.011 A 
HETATM   11  C   UNL     1       7.224  24.389  52.150  1.00  0.00     0.039 A 
HETATM   12  C   UNL     1       6.922  25.626  52.718  1.00  0.00     0.095 A 
BRANCH   9  13
HETATM   13  C   UNL     1       8.404  22.361  55.234  1.00  0.00    -0.024 C 
HETATM   14  C   UNL     1       8.403  22.842  56.702  1.00  0.00     0.019 C 
HETATM   15  C   UNL     1       9.839  21.954  54.833  1.00  0.00     0.019 C 
HETATM   16  C   UNL     1       7.535  21.086  55.169  1.00  0.00     0.019 C 
ENDBRANCH   9  13
BRANCH  12  17
HETATM   17  O   UNL     1       6.434  26.713  52.032  1.00  0.00    -0.354 OA
HETATM   18  C   UNL     1       5.295  26.498  51.208  1.00  0.00     0.210 C 
ENDBRANCH  12  17
ENDBRANCH   1   7
BRANCH   3  19
HETATM   19  C   UNL     1       6.278  29.103  56.625  1.00  0.00     0.146 C 
BRANCH  19  20
HETATM   20  C   UNL     1       7.137  28.504  57.733  1.00  0.00     0.170 C 
BRANCH  20  21
HETATM   21  N   UNL     1       8.154  29.431  58.189  1.00  0.00    -0.278 N 
HETATM   22  N   UNL     1       9.299  29.568  57.489  1.00  0.00    -0.184 NA
HETATM   23  C   UNL     1       9.968  30.508  58.167  1.00  0.00     0.164 A 
HETATM   24  C   UNL     1       9.260  30.957  59.295  1.00  0.00     0.070 A 
HETATM   25 CL   UNL     1       9.762  32.129  60.403  1.00  0.00    -0.081 Cl
HETATM   26  C   UNL     1       8.088  30.240  59.288  1.00  0.00     0.137 A 
ENDBRANCH  20  21
ENDBRANCH  19  20
ENDBRANCH   3  19
TORSDOF 6
ENDMDL
MODEL 3
REMARK VINA RESULT:      -7.7      4.284      6.316
REMARK  6 active torsions:
REMARK  status: ('A' for Active; 'I' for Inactive)
REMARK    1  A    between atoms: C_2  and  C_3 
REMARK    2  A    between atoms: C_5  and  N_6 
REMARK       I    between atoms: N_6  and  C_7 
REMARK       I    between atoms: C_7  and  N_8 
REMARK    3  A    between atoms: N_8  and  C_9 
REMARK    4  A    between atoms: C_9  and  C_10 
REMARK    5  A    between atoms: C_10  and  N_11 
REMARK    6  A    between atoms: C_18  and  O_19 
ROOT
HETATM    1  N   UNL     1       5.678  26.078  53.674  1.00  0.00    -0.306 N 
HETATM    2  C   UNL     1       4.942  25.694  52.593  1.00  0.00     0.320 C 
HETATM    3  N   UNL     1       4.570  26.705  51.751  1.00  0.00    -0.341 N 
HETATM    4  O   UNL     1       4.571  24.556  52.322  1.00  0.00    -0.247 OA
HETATM    5  H   UNL     1       5.565  27.035  53.985  1.00  0.00     0.171 HD
HETATM    6  H   UNL     1       4.051  26.315  50.973  1.00  0.00     0.164 HD
ENDROOT
BRANCH   1   7
HETATM    7  C   UNL     1       6.337  25.248  54.608  1.00  0.00     0.070 A 
HETATM    8  C   UNL     1       6.857  23.993  54.272  1.00  0.00     0.040 A 
HETATM    9  C   UNL     1       7.547  23.199  55.212  1.00  0.00    -0.048 A 
HETATM   10  C   UNL     1       7.689  23.717  56.508  1.00  0.00     0.011 A 
HETATM   11  C   UNL     1       7.176  24.974  56.855  1.00  0.00     0.039 A 
HETATM   12  C   UNL     1       6.505  25.749  55.909  1.00  0.00     0.095 A 
BRANCH   9  13
HETATM   13  C   UNL     1       8.126  21.837  54.788  1.00  0.00    -0.024 C 
HETATM   14  C   UNL     1       7.576  20.736  55.720  1.00  0.00     0.019 C 
HETATM   15  C   UNL     1       9.668  21.864  54.885  1.00  0.00     0.019 C 
HETATM   16  C   UNL     1       7.769  21.432  53.341  1.00  0.00     0.019 C 
ENDBRANCH   9  13
BRANCH  12  17
HETATM   17  O   UNL     1       5.973  26.995  56.142  1.00  0.00    -0.354 OA
HETATM   18  C   UNL     1       6.473  27.711  57.265  1.00  0.00     0.210 C 
ENDBRANCH  12  17
ENDBRANCH   1   7
BRANCH   3  19
HETATM   19  C   UNL     1       5.343  27.911  51.469  1.00  0.00     0.146 C 
BRANCH  19  20
HETATM   20  C   UNL     1       5.352  28.250  49.983  1.00  0.00     0.170 C 
BRANCH  20  21
HETATM   21  N   UNL     1       4.276  27.587  49.272  1.00  0.00    -0.278 N 
HETATM   22  N   UNL     1       4.423  26.305  48.878  1.00  0.00    -0.184 NA
HETATM   23  C   UNL     1       3.250  26.021  48.300  1.00  0.00     0.164 A 
HETATM   24  C   UNL     1       2.370  27.116  48.314  1.00  0.00     0.070 A 
HETATM   25 CL   UNL     1       0.802  27.162  47.685  1.00  0.00    -0.081 Cl
HETATM   26  C   UNL     1       3.062  28.120  48.948  1.00  0.00     0.137 A 
ENDBRANCH  20  21
ENDBRANCH  19  20
ENDBRANCH   3  19
TORSDOF 6
ENDMDL
MODEL 4
REMARK VINA RESULT:      -7.0      2.388      2.778
REMARK  6 active torsions:
REMARK  status: ('A' for Active; 'I' for Inactive)
REMARK    1  A    between atoms: C_2  and  C_3 
REMARK    2  A    between atoms: C_5  and  N_6 
REMARK       I    between atoms: N_6  and  C_7 
REMARK       I    between atoms: C_7  and  N_8 
REMARK    3  A    between atoms: N_8  and  C_9 
REMARK    4  A    between atoms: C_9  and  C_10 
REMARK    5  A    between atoms: C_10  and  N_11 
REMARK    6  A    between atoms: C_18  and  O_19 
ROOT
HETATM    1  N   UNL     1       5.731  26.638  55.474  1.00  0.00    -0.306 N 
HETATM    2  C   UNL     1       4.972  26.668  56.606  1.00  0.00     0.320 C 
HETATM    3  N   UNL     1       4.473  27.895  56.943  1.00  0.00    -0.341 N 
HETATM    4  O   UNL     1       4.718  25.722  57.346  1.00  0.00    -0.247 OA
HETATM    5  H   UNL     1       6.183  27.504  55.207  1.00  0.00     0.171 HD
HETATM    6  H   UNL     1       3.908  27.806  57.780  1.00  0.00     0.164 HD
ENDROOT
BRANCH   1   7
HETATM    7  C   UNL     1       6.228  25.502  54.798  1.00  0.00     0.070 A 
HETATM    8  C   UNL     1       6.977  24.507  55.437  1.00  0.00     0.040 A 
HETATM    9  C   UNL     1       7.428  23.362  54.748  1.00  0.00    -0.048 A 
HETATM   10  C   UNL     1       7.101  23.258  53.389  1.00  0.00     0.011 A 
HETATM   11  C   UNL     1       6.347  24.246  52.740  1.00  0.00     0.039 A 
HETATM   12  C   UNL     1       5.901  25.367  53.438  1.00  0.00     0.095 A 
BRANCH   9  13
HETATM   13  C   UNL     1       8.225  22.280  55.501  1.00  0.00    -0.024 C 
HETATM   14  C   UNL     1       8.442  22.730  56.963  1.00  0.00     0.019 C 
HETATM   15  C   UNL     1       9.598  22.068  54.825  1.00  0.00     0.019 C 
HETATM   16  C   UNL     1       7.522  20.906  55.544  1.00  0.00     0.019 C 
ENDBRANCH   9  13
BRANCH  12  17
HETATM   17  O   UNL     1       5.151  26.387  52.901  1.00  0.00    -0.354 OA
HETATM   18  C   UNL     1       5.691  27.059  51.770  1.00  0.00     0.210 C 
ENDBRANCH  12  17
ENDBRANCH   1   7
BRANCH   3  19
HETATM   19  C   UNL     1       4.077  28.943  56.008  1.00  0.00     0.146 C 
BRANCH  19  20
HETATM   20  C   UNL     1       3.485  30.152  56.722  1.00  0.00     0.170 C 
BRANCH  20  21
HETATM   21  N   UNL     1       4.457  30.802  57.580  1.00  0.00    -0.278 N 
HETATM   22  N   UNL     1       5.774  30.660  57.328  1.00  0.00    -0.184 NA
HETATM   23  C   UNL     1       6.355  31.406  58.275  1.00  0.00     0.164 A 
HETATM   24  C   UNL     1       5.415  32.007  59.130  1.00  0.00     0.070 A 
HETATM   25 CL   UNL     1       5.744  33.016  60.445  1.00  0.00    -0.081 Cl
HETATM   26  C   UNL     1       4.192  31.596  58.658  1.00  0.00     0.137 A 
ENDBRANCH  20  21
ENDBRANCH  19  20
ENDBRANCH   3  19
TORSDOF 6
ENDMDL
MODEL 5
REMARK VINA RESULT:      -7.0      2.296      3.188
REMARK  6 active torsions:
REMARK  status: ('A' for Active; 'I' for Inactive)
REMARK    1  A    between atoms: C_2  and  C_3 
REMARK    2  A    between atoms: C_5  and  N_6 
REMARK       I    between atoms: N_6  and  C_7 
REMARK       I    between atoms: C_7  and  N_8 
REMARK    3  A    between atoms: N_8  and  C_9 
REMARK    4  A    between atoms: C_9  and  C_10 
REMARK    5  A    between atoms: C_10  and  N_11 
REMARK    6  A    between atoms: C_18  and  O_19 
ROOT
HETATM    1  N   UNL     1       7.125  27.159  55.428  1.00  0.00    -0.306 N 
HETATM    2  C   UNL     1       7.911  28.236  55.149  1.00  0.00     0.320 C 
HETATM    3  N   UNL     1       8.079  29.120  56.179  1.00  0.00    -0.341 N 
HETATM    4  O   UNL     1       8.454  28.493  54.079  1.00  0.00    -0.247 OA
HETATM    5  H   UNL     1       6.441  27.274  56.166  1.00  0.00     0.171 HD
HETATM    6  H   UNL     1       8.695  29.867  55.879  1.00  0.00     0.164 HD
ENDROOT
BRANCH   1   7
HETATM    7  C   UNL     1       6.915  26.014  54.629  1.00  0.00     0.070 A 
HETATM    8  C   UNL     1       7.603  24.812  54.831  1.00  0.00     0.040 A 
HETATM    9  C   UNL     1       7.347  23.669  54.045  1.00  0.00    -0.048 A 
HETATM   10  C   UNL     1       6.373  23.783  53.043  1.00  0.00     0.011 A 
HETATM   11  C   UNL     1       5.673  24.980  52.834  1.00  0.00     0.039 A 
HETATM   12  C   UNL     1       5.933  26.097  53.627  1.00  0.00     0.095 A 
BRANCH   9  13
HETATM   13  C   UNL     1       8.110  22.361  54.324  1.00  0.00    -0.024 C 
HETATM   14  C   UNL     1       7.445  21.623  55.507  1.00  0.00     0.019 C 
HETATM   15  C   UNL     1       9.581  22.671  54.680  1.00  0.00     0.019 C 
HETATM   16  C   UNL     1       8.128  21.383  53.128  1.00  0.00     0.019 C 
ENDBRANCH   9  13
BRANCH  12  17
HETATM   17  O   UNL     1       5.301  27.313  53.512  1.00  0.00    -0.354 OA
HETATM   18  C   UNL     1       5.442  28.000  52.274  1.00  0.00     0.210 C 
ENDBRANCH  12  17
ENDBRANCH   1   7
BRANCH   3  19
HETATM   19  C   UNL     1       8.122  28.780  57.598  1.00  0.00     0.146 C 
BRANCH  19  20
HETATM   20  C   UNL     1       8.319  30.012  58.474  1.00  0.00     0.170 C 
BRANCH  20  21
HETATM   21  N   UNL     1       7.116  30.818  58.549  1.00  0.00    -0.278 N 
HETATM   22  N   UNL     1       6.030  30.471  57.829  1.00  0.00    -0.184 NA
HETATM   23  C   UNL     1       5.124  31.396  58.165  1.00  0.00     0.164 A 
HETATM   24  C   UNL     1       5.633  32.332  59.081  1.00  0.00     0.070 A 
HETATM   25 CL   UNL     1       4.809  33.650  59.745  1.00  0.00    -0.081 Cl
HETATM   26  C   UNL     1       6.928  31.936  59.311  1.00  0.00     0.137 A 
ENDBRANCH  20  21
ENDBRANCH  19  20
ENDBRANCH   3  19
TORSDOF 6
ENDMDL
MODEL 6
REMARK VINA RESULT:      -6.9      4.054      8.617
REMARK  6 active torsions:
REMARK  status: ('A' for Active; 'I' for Inactive)
REMARK    1  A    between atoms: C_2  and  C_3 
REMARK    2  A    between atoms: C_5  and  N_6 
REMARK       I    between atoms: N_6  and  C_7 
REMARK       I    between atoms: C_7  and  N_8 
REMARK    3  A    between atoms: N_8  and  C_9 
REMARK    4  A    between atoms: C_9  and  C_10 
REMARK    5  A    between atoms: C_10  and  N_11 
REMARK    6  A    between atoms: C_18  and  O_19 
ROOT
HETATM    1  N   UNL     1       6.799  30.637  58.008  1.00  0.00    -0.306 N 
HETATM    2  C   UNL     1       5.805  31.187  57.256  1.00  0.00     0.320 C 
HETATM    3  N   UNL     1       5.147  30.318  56.430  1.00  0.00    -0.341 N 
HETATM    4  O   UNL     1       5.465  32.366  57.234  1.00  0.00    -0.247 OA
HETATM    5  H   UNL     1       7.230  29.795  57.646  1.00  0.00     0.171 HD
HETATM    6  H   UNL     1       4.417  30.817  55.936  1.00  0.00     0.164 HD
ENDROOT
BRANCH   1   7
HETATM    7  C   UNL     1       7.523  31.243  59.057  1.00  0.00     0.070 A 
HETATM    8  C   UNL     1       6.914  31.715  60.226  1.00  0.00     0.040 A 
HETATM    9  C   UNL     1       7.664  32.281  61.278  1.00  0.00    -0.048 A 
HETATM   10  C   UNL     1       9.053  32.359  61.106  1.00  0.00     0.011 A 
HETATM   11  C   UNL     1       9.676  31.886  59.943  1.00  0.00     0.039 A 
HETATM   12  C   UNL     1       8.919  31.321  58.917  1.00  0.00     0.095 A 
BRANCH   9  13
HETATM   13  C   UNL     1       6.951  32.760  62.555  1.00  0.00    -0.024 C 
HETATM   14  C   UNL     1       6.402  34.186  62.330  1.00  0.00     0.019 C 
HETATM   15  C   UNL     1       7.943  32.779  63.739  1.00  0.00     0.019 C 
HETATM   16  C   UNL     1       5.759  31.872  62.974  1.00  0.00     0.019 C 
ENDBRANCH   9  13
BRANCH  12  17
HETATM   17  O   UNL     1       9.429  30.820  57.742  1.00  0.00    -0.354 OA
HETATM   18  C   UNL     1      10.827  30.563  57.703  1.00  0.00     0.210 C 
ENDBRANCH  12  17
ENDBRANCH   1   7
BRANCH   3  19
HETATM   19  C   UNL     1       4.891  28.907  56.704  1.00  0.00     0.146 C 
BRANCH  19  20
HETATM   20  C   UNL     1       4.537  28.135  55.438  1.00  0.00     0.170 C 
BRANCH  20  21
HETATM   21  N   UNL     1       5.720  27.712  54.715  1.00  0.00    -0.278 N 
HETATM   22  N   UNL     1       6.832  28.475  54.743  1.00  0.00    -0.184 NA
HETATM   23  C   UNL     1       7.709  27.774  54.015  1.00  0.00     0.164 A 
HETATM   24  C   UNL     1       7.156  26.582  53.517  1.00  0.00     0.070 A 
HETATM   25 CL   UNL     1       7.935  25.429  52.558  1.00  0.00    -0.081 Cl
HETATM   26  C   UNL     1       5.864  26.567  53.984  1.00  0.00     0.137 A 
ENDBRANCH  20  21
ENDBRANCH  19  20
ENDBRANCH   3  19
TORSDOF 6
ENDMDL
MODEL 7
REMARK VINA RESULT:      -6.9      5.433     10.025
REMARK  6 active torsions:
REMARK  status: ('A' for Active; 'I' for Inactive)
REMARK    1  A    between atoms: C_2  and  C_3 
REMARK    2  A    between atoms: C_5  and  N_6 
REMARK       I    between atoms: N_6  and  C_7 
REMARK       I    between atoms: C_7  and  N_8 
REMARK    3  A    between atoms: N_8  and  C_9 
REMARK    4  A    between atoms: C_9  and  C_10 
REMARK    5  A    between atoms: C_10  and  N_11 
REMARK    6  A    between atoms: C_18  and  O_19 
ROOT
HETATM    1  N   UNL     1       7.180  31.285  60.165  1.00  0.00    -0.306 N 
HETATM    2  C   UNL     1       8.322  31.474  59.444  1.00  0.00     0.320 C 
HETATM    3  N   UNL     1       8.810  30.359  58.820  1.00  0.00    -0.341 N 
HETATM    4  O   UNL     1       8.951  32.520  59.322  1.00  0.00    -0.247 OA
HETATM    5  H   UNL     1       7.008  30.348  60.507  1.00  0.00     0.171 HD
HETATM    6  H   UNL     1       9.640  30.608  58.296  1.00  0.00     0.164 HD
ENDROOT
BRANCH   1   7
HETATM    7  C   UNL     1       6.366  32.271  60.765  1.00  0.00     0.070 A 
HETATM    8  C   UNL     1       6.543  32.698  62.086  1.00  0.00     0.040 A 
HETATM    9  C   UNL     1       5.743  33.713  62.651  1.00  0.00    -0.048 A 
HETATM   10  C   UNL     1       4.752  34.279  61.836  1.00  0.00     0.011 A 
HETATM   11  C   UNL     1       4.569  33.862  60.510  1.00  0.00     0.039 A 
HETATM   12  C   UNL     1       5.375  32.864  59.965  1.00  0.00     0.095 A 
BRANCH   9  13
HETATM   13  C   UNL     1       5.995  34.170  64.100  1.00  0.00    -0.024 C 
HETATM   14  C   UNL     1       4.906  33.573  65.019  1.00  0.00     0.019 C 
HETATM   15  C   UNL     1       5.944  35.711  64.186  1.00  0.00     0.019 C 
HETATM   16  C   UNL     1       7.363  33.727  64.664  1.00  0.00     0.019 C 
ENDBRANCH   9  13
BRANCH  12  17
HETATM   17  O   UNL     1       5.285  32.389  58.678  1.00  0.00    -0.354 OA
HETATM   18  C   UNL     1       4.036  31.837  58.280  1.00  0.00     0.210 C 
ENDBRANCH  12  17
ENDBRANCH   1   7
BRANCH   3  19
HETATM   19  C   UNL     1       8.011  29.264  58.279  1.00  0.00     0.146 C 
BRANCH  19  20
HETATM   20  C   UNL     1       8.729  28.539  57.146  1.00  0.00     0.170 C 
BRANCH  20  21
HETATM   21  N   UNL     1       8.143  27.240  56.880  1.00  0.00    -0.278 N 
HETATM   22  N   UNL     1       8.043  26.333  57.873  1.00  0.00    -0.184 NA
HETATM   23  C   UNL     1       7.438  25.294  57.286  1.00  0.00     0.164 A 
HETATM   24  C   UNL     1       7.166  25.533  55.928  1.00  0.00     0.070 A 
HETATM   25 CL   UNL     1       6.418  24.474  54.845  1.00  0.00    -0.081 Cl
HETATM   26  C   UNL     1       7.637  26.802  55.689  1.00  0.00     0.137 A 
ENDBRANCH  20  21
ENDBRANCH  19  20
ENDBRANCH   3  19
TORSDOF 6
ENDMDL
MODEL 8
REMARK VINA RESULT:      -6.8      4.310      6.305
REMARK  6 active torsions:
REMARK  status: ('A' for Active; 'I' for Inactive)
REMARK    1  A    between atoms: C_2  and  C_3 
REMARK    2  A    between atoms: C_5  and  N_6 
REMARK       I    between atoms: N_6  and  C_7 
REMARK       I    between atoms: C_7  and  N_8 
REMARK    3  A    between atoms: N_8  and  C_9 
REMARK    4  A    between atoms: C_9  and  C_10 
REMARK    5  A    between atoms: C_10  and  N_11 
REMARK    6  A    between atoms: C_18  and  O_19 
ROOT
HETATM    1  N   UNL     1       7.791  30.188  59.153  1.00  0.00    -0.306 N 
HETATM    2  C   UNL     1       9.093  30.545  59.340  1.00  0.00     0.320 C 
HETATM    3  N   UNL     1       9.394  31.029  60.583  1.00  0.00    -0.341 N 
HETATM    4  O   UNL     1       9.996  30.492  58.511  1.00  0.00    -0.247 OA
HETATM    5  H   UNL     1       7.105  30.645  59.742  1.00  0.00     0.171 HD
HETATM    6  H   UNL     1      10.384  31.241  60.626  1.00  0.00     0.164 HD
ENDROOT
BRANCH   1   7
HETATM    7  C   UNL     1       7.232  29.509  58.049  1.00  0.00     0.070 A 
HETATM    8  C   UNL     1       7.460  28.150  57.800  1.00  0.00     0.040 A 
HETATM    9  C   UNL     1       6.858  27.484  56.712  1.00  0.00    -0.048 A 
HETATM   10  C   UNL     1       6.020  28.240  55.879  1.00  0.00     0.011 A 
HETATM   11  C   UNL     1       5.781  29.600  56.121  1.00  0.00     0.039 A 
HETATM   12  C   UNL     1       6.377  30.240  57.207  1.00  0.00     0.095 A 
BRANCH   9  13
HETATM   13  C   UNL     1       7.116  25.982  56.496  1.00  0.00    -0.024 C 
HETATM   14  C   UNL     1       5.880  25.179  56.960  1.00  0.00     0.019 C 
HETATM   15  C   UNL     1       8.349  25.534  57.312  1.00  0.00     0.019 C 
HETATM   16  C   UNL     1       7.382  25.601  55.023  1.00  0.00     0.019 C 
ENDBRANCH   9  13
BRANCH  12  17
HETATM   17  O   UNL     1       6.204  31.563  57.538  1.00  0.00    -0.354 OA
HETATM   18  C   UNL     1       5.040  32.208  57.033  1.00  0.00     0.210 C 
ENDBRANCH  12  17
ENDBRANCH   1   7
BRANCH   3  19
HETATM   19  C   UNL     1       8.768  30.617  61.835  1.00  0.00     0.146 C 
BRANCH  19  20
HETATM   20  C   UNL     1       8.260  31.808  62.639  1.00  0.00     0.170 C 
BRANCH  20  21
HETATM   21  N   UNL     1       6.959  32.254  62.179  1.00  0.00    -0.278 N 
HETATM   22  N   UNL     1       6.782  32.579  60.882  1.00  0.00    -0.184 NA
HETATM   23  C   UNL     1       5.485  32.902  60.817  1.00  0.00     0.164 A 
HETATM   24  C   UNL     1       4.846  32.796  62.064  1.00  0.00     0.070 A 
HETATM   25 CL   UNL     1       3.221  33.116  62.398  1.00  0.00    -0.081 Cl
HETATM   26  C   UNL     1       5.826  32.377  62.931  1.00  0.00     0.137 A 
ENDBRANCH  20  21
ENDBRANCH  19  20
ENDBRANCH   3  19
TORSDOF 6
ENDMDL
MODEL 9
REMARK VINA RESULT:      -6.7      2.731      4.122
REMARK  6 active torsions:
REMARK  status: ('A' for Active; 'I' for Inactive)
REMARK    1  A    between atoms: C_2  and  C_3 
REMARK    2  A    between atoms: C_5  and  N_6 
REMARK       I    between atoms: N_6  and  C_7 
REMARK       I    between atoms: C_7  and  N_8 
REMARK    3  A    between atoms: N_8  and  C_9 
REMARK    4  A    between atoms: C_9  and  C_10 
REMARK    5  A    between atoms: C_10  and  N_11 
REMARK    6  A    between atoms: C_18  and  O_19 
ROOT
HETATM    1  N   UNL     1       5.440  26.216  54.167  1.00  0.00    -0.306 N 
HETATM    2  C   UNL     1       4.828  25.898  52.991  1.00  0.00     0.320 C 
HETATM    3  N   UNL     1       4.256  26.947  52.327  1.00  0.00    -0.341 N 
HETATM    4  O   UNL     1       4.726  24.781  52.494  1.00  0.00    -0.247 OA
HETATM    5  H   UNL     1       5.110  27.048  54.640  1.00  0.00     0.171 HD
HETATM    6  H   UNL     1       3.852  26.611  51.460  1.00  0.00     0.164 HD
ENDROOT
BRANCH   1   7
HETATM    7  C   UNL     1       6.249  25.385  54.971  1.00  0.00     0.070 A 
HETATM    8  C   UNL     1       6.749  24.155  54.528  1.00  0.00     0.040 A 
HETATM    9  C   UNL     1       7.589  23.360  55.335  1.00  0.00    -0.048 A 
HETATM   10  C   UNL     1       7.903  23.849  56.611  1.00  0.00     0.011 A 
HETATM   11  C   UNL     1       7.413  25.082  57.065  1.00  0.00     0.039 A 
HETATM   12  C   UNL     1       6.591  25.858  56.249  1.00  0.00     0.095 A 
BRANCH   9  13
HETATM   13  C   UNL     1       8.137  22.027  54.793  1.00  0.00    -0.024 C 
HETATM   14  C   UNL     1       7.800  21.911  53.290  1.00  0.00     0.019 C 
HETATM   15  C   UNL     1       7.496  20.844  55.551  1.00  0.00     0.019 C 
HETATM   16  C   UNL     1       9.668  21.881  54.931  1.00  0.00     0.019 C 
ENDBRANCH   9  13
BRANCH  12  17
HETATM   17  O   UNL     1       6.065  27.082  56.591  1.00  0.00    -0.354 OA
HETATM   18  C   UNL     1       6.941  28.006  57.226  1.00  0.00     0.210 C 
ENDBRANCH  12  17
ENDBRANCH   1   7
BRANCH   3  19
HETATM   19  C   UNL     1       4.745  28.322  52.319  1.00  0.00     0.146 C 
BRANCH  19  20
HETATM   20  C   UNL     1       3.637  29.324  52.621  1.00  0.00     0.170 C 
BRANCH  20  21
HETATM   21  N   UNL     1       3.845  29.992  53.891  1.00  0.00    -0.278 N 
HETATM   22  N   UNL     1       3.938  31.337  53.934  1.00  0.00    -0.184 NA
HETATM   23  C   UNL     1       4.088  31.596  55.238  1.00  0.00     0.164 A 
HETATM   24  C   UNL     1       4.103  30.426  56.016  1.00  0.00     0.070 A 
HETATM   25 CL   UNL     1       4.274  30.330  57.695  1.00  0.00    -0.081 Cl
HETATM   26  C   UNL     1       3.947  29.400  55.117  1.00  0.00     0.137 A 
ENDBRANCH  20  21
ENDBRANCH  19  20
ENDBRANCH   3  19
TORSDOF 6
ENDMDL
MODEL 10
REMARK VINA RESULT:      -6.6      2.999      7.601
REMARK  6 active torsions:
REMARK  status: ('A' for Active; 'I' for Inactive)
REMARK    1  A    between atoms: C_2  and  C_3 
REMARK    2  A    between atoms: C_5  and  N_6 
REMARK       I    between atoms: N_6  and  C_7 
REMARK       I    between atoms: C_7  and  N_8 
REMARK    3  A    between atoms: N_8  and  C_9 
REMARK    4  A    between atoms: C_9  and  C_10 
REMARK    5  A    between atoms: C_10  and  N_11 
REMARK    6  A    between atoms: C_18  and  O_19 
ROOT
HETATM    1  N   UNL     1       6.659  28.274  56.801  1.00  0.00    -0.306 N 
HETATM    2  C   UNL     1       7.408  28.080  55.679  1.00  0.00     0.320 C 
HETATM    3  N   UNL     1       7.161  26.916  55.005  1.00  0.00    -0.341 N 
HETATM    4  O   UNL     1       8.278  28.824  55.238  1.00  0.00    -0.247 OA
HETATM    5  H   UNL     1       6.300  27.444  57.257  1.00  0.00     0.171 HD
HETATM    6  H   UNL     1       7.747  26.879  54.180  1.00  0.00     0.164 HD
ENDROOT
BRANCH   1   7
HETATM    7  C   UNL     1       6.574  29.442  57.591  1.00  0.00     0.070 A 
HETATM    8  C   UNL     1       7.622  29.882  58.408  1.00  0.00     0.040 A 
HETATM    9  C   UNL     1       7.529  31.073  59.157  1.00  0.00    -0.048 A 
HETATM   10  C   UNL     1       6.336  31.803  59.057  1.00  0.00     0.011 A 
HETATM   11  C   UNL     1       5.281  31.375  58.239  1.00  0.00     0.039 A 
HETATM   12  C   UNL     1       5.395  30.200  57.498  1.00  0.00     0.095 A 
BRANCH   9  13
HETATM   13  C   UNL     1       8.719  31.531  60.019  1.00  0.00    -0.024 C 
HETATM   14  C   UNL     1       8.328  32.809  60.793  1.00  0.00     0.019 C 
HETATM   15  C   UNL     1       9.939  31.834  59.121  1.00  0.00     0.019 C 
HETATM   16  C   UNL     1       9.171  30.485  61.063  1.00  0.00     0.019 C 
ENDBRANCH   9  13
BRANCH  12  17
HETATM   17  O   UNL     1       4.427  29.696  56.661  1.00  0.00    -0.354 OA
HETATM   18  C   UNL     1       3.348  30.561  56.327  1.00  0.00     0.210 C 
ENDBRANCH  12  17
ENDBRANCH   1   7
BRANCH   3  19
HETATM   19  C   UNL     1       5.870  26.242  54.909  1.00  0.00     0.146 C 
BRANCH  19  20
HETATM   20  C   UNL     1       5.999  24.844  54.315  1.00  0.00     0.170 C 
BRANCH  20  21
HETATM   21  N   UNL     1       6.887  24.006  55.097  1.00  0.00    -0.278 N 
HETATM   22  N   UNL     1       7.206  24.360  56.359  1.00  0.00    -0.184 NA
HETATM   23  C   UNL     1       7.995  23.362  56.772  1.00  0.00     0.164 A 
HETATM   24  C   UNL     1       8.187  22.388  55.778  1.00  0.00     0.070 A 
HETATM   25 CL   UNL     1       9.114  20.981  55.906  1.00  0.00    -0.081 Cl
HETATM   26  C   UNL     1       7.460  22.832  54.700  1.00  0.00     0.137 A 
ENDBRANCH  20  21
ENDBRANCH  19  20
ENDBRANCH   3  19
TORSDOF 6
ENDMDL
