MODEL 1
REMARK VINA RESULT:      -9.6      0.000      0.000
REMARK  3 active torsions:
REMARK  status: ('A' for Active; 'I' for Inactive)
REMARK    1  A    between atoms: C_6  and  C_7 
REMARK       I    between atoms: C_7  and  N_8 
REMARK    2  A    between atoms: N_8  and  C_9 
REMARK    3  A    between atoms: N_12  and  C_13 
ROOT
HETATM    1  C   UNL     1       7.334  28.240  55.410  1.00  0.00     0.177 C 
HETATM    2  C   UNL     1       8.038  28.585  56.746  1.00  0.00     0.248 C 
HETATM    3  O   UNL     1       8.987  27.875  57.102  1.00  0.00    -0.271 OA
HETATM    4  N   UNL     1       7.560  29.725  57.413  1.00  0.00    -0.299 N 
HETATM    5  C   UNL     1       6.156  30.121  57.280  1.00  0.00     0.134 C 
HETATM    6  C   UNL     1       5.558  29.875  55.906  1.00  0.00     0.023 C 
HETATM    7  C   UNL     1       5.828  28.444  55.488  1.00  0.00     0.036 C 
ENDROOT
BRANCH   1   8
HETATM    8  N   UNL     1       7.688  26.863  55.068  1.00  0.00    -0.344 N 
HETATM    9  C   UNL     1       6.958  25.773  55.473  1.00  0.00     0.253 C 
HETATM   10  O   UNL     1       6.007  25.834  56.242  1.00  0.00    -0.268 OA
HETATM   11  H   UNL     1       8.302  26.765  54.261  1.00  0.00     0.163 HD
BRANCH   9  12
HETATM   12  C   UNL     1       7.376  24.471  54.877  1.00  0.00     0.043 A 
HETATM   13  C   UNL     1       6.857  24.046  53.633  1.00  0.00    -0.045 A 
HETATM   14  C   UNL     1       7.263  22.803  53.116  1.00  0.00     0.014 A 
HETATM   15  C   UNL     1       5.878  24.863  52.832  1.00  0.00     0.049 C 
HETATM   16  C   UNL     1       8.189  22.004  53.791  1.00  0.00    -0.061 A 
HETATM   17  C   UNL     1       8.653  20.703  53.203  1.00  0.00     0.048 C 
HETATM   18  C   UNL     1       8.728  22.459  55.000  1.00  0.00     0.014 A 
HETATM   19  C   UNL     1       8.323  23.680  55.562  1.00  0.00    -0.045 A 
HETATM   20  C   UNL     1       8.939  24.115  56.866  1.00  0.00     0.049 C 
ENDBRANCH   9  12
ENDBRANCH   1   8
BRANCH   4  21
HETATM   21  C   UNL     1       8.335  30.279  58.450  1.00  0.00     0.154 A 
HETATM   22  N   UNL     1       8.290  29.869  59.722  1.00  0.00    -0.155 NA
HETATM   23  N   UNL     1       9.156  30.652  60.377  1.00  0.00    -0.283 N 
HETATM   24  C   UNL     1       9.316  30.498  61.803  1.00  0.00     0.179 C 
HETATM   25  C   UNL     1       9.819  31.521  59.571  1.00  0.00     0.115 A 
HETATM   26  C   UNL     1       9.318  31.302  58.310  1.00  0.00     0.071 A 
ENDBRANCH   4  21
TORSDOF 3
ENDMDL
MODEL 2
REMARK VINA RESULT:      -9.6      0.208      1.756
REMARK  3 active torsions:
REMARK  status: ('A' for Active; 'I' for Inactive)
REMARK    1  A    between atoms: C_6  and  C_7 
REMARK       I    between atoms: C_7  and  N_8 
REMARK    2  A    between atoms: N_8  and  C_9 
REMARK    3  A    between atoms: N_12  and  C_13 
ROOT
HETATM    1  C   UNL     1       7.457  28.406  55.512  1.00  0.00     0.177 C 
HETATM    2  C   UNL     1       8.113  28.726  56.878  1.00  0.00     0.248 C 
HETATM    3  O   UNL     1       9.033  27.995  57.265  1.00  0.00    -0.271 OA
HETATM    4  N   UNL     1       7.631  29.870  57.537  1.00  0.00    -0.299 N 
HETATM    5  C   UNL     1       6.242  30.294  57.351  1.00  0.00     0.134 C 
HETATM    6  C   UNL     1       5.695  30.071  55.953  1.00  0.00     0.023 C 
HETATM    7  C   UNL     1       5.953  28.640  55.532  1.00  0.00     0.036 C 
ENDROOT
BRANCH   1   8
HETATM    8  N   UNL     1       7.798  27.026  55.172  1.00  0.00    -0.344 N 
HETATM    9  C   UNL     1       7.037  25.946  55.547  1.00  0.00     0.253 C 
HETATM   10  O   UNL     1       6.064  26.018  56.287  1.00  0.00    -0.268 OA
HETATM   11  H   UNL     1       8.434  26.922  54.383  1.00  0.00     0.163 HD
BRANCH   9  12
HETATM   12  C   UNL     1       7.451  24.641  54.955  1.00  0.00     0.043 A 
HETATM   13  C   UNL     1       8.354  23.793  55.634  1.00  0.00    -0.045 A 
HETATM   14  C   UNL     1       8.733  22.581  55.031  1.00  0.00     0.014 A 
HETATM   15  C   UNL     1       8.939  24.130  56.980  1.00  0.00     0.049 C 
HETATM   16  C   UNL     1       8.210  22.190  53.796  1.00  0.00    -0.061 A 
HETATM   17  C   UNL     1       8.582  20.869  53.187  1.00  0.00     0.048 C 
HETATM   18  C   UNL     1       7.282  23.020  53.156  1.00  0.00     0.014 A 
HETATM   19  C   UNL     1       6.903  24.252  53.713  1.00  0.00    -0.045 A 
HETATM   20  C   UNL     1       5.902  25.101  52.976  1.00  0.00     0.049 C 
ENDBRANCH   9  12
ENDBRANCH   1   8
BRANCH   4  21
HETATM   21  C   UNL     1       8.374  30.399  58.609  1.00  0.00     0.154 A 
HETATM   22  N   UNL     1       8.325  29.931  59.861  1.00  0.00    -0.155 NA
HETATM   23  N   UNL     1       9.156  30.710  60.563  1.00  0.00    -0.283 N 
HETATM   24  C   UNL     1       9.301  30.497  61.983  1.00  0.00     0.179 C 
HETATM   25  C   UNL     1       9.804  31.634  59.807  1.00  0.00     0.115 A 
HETATM   26  C   UNL     1       9.327  31.456  58.530  1.00  0.00     0.071 A 
ENDBRANCH   4  21
TORSDOF 3
ENDMDL
MODEL 3
REMARK VINA RESULT:      -8.9      4.202      6.957
REMARK  3 active torsions:
REMARK  status: ('A' for Active; 'I' for Inactive)
REMARK    1  A    between atoms: C_6  and  C_7 
REMARK       I    between atoms: C_7  and  N_8 
REMARK    2  A    between atoms: N_8  and  C_9 
REMARK    3  A    between atoms: N_12  and  C_13 
ROOT
HETATM    1  C   UNL     1       4.868  26.700  53.470  1.00  0.00     0.177 C 
HETATM    2  C   UNL     1       5.014  26.792  51.931  1.00  0.00     0.248 C 
HETATM    3  O   UNL     1       5.343  25.769  51.318  1.00  0.00    -0.271 OA
HETATM    4  N   UNL     1       4.701  28.036  51.358  1.00  0.00    -0.299 N 
HETATM    5  C   UNL     1       4.910  29.269  52.121  1.00  0.00     0.134 C 
HETATM    6  C   UNL     1       4.626  29.149  53.607  1.00  0.00     0.023 C 
HETATM    7  C   UNL     1       5.372  27.956  54.167  1.00  0.00     0.036 C 
ENDROOT
BRANCH   1   8
HETATM    8  N   UNL     1       5.579  25.501  53.909  1.00  0.00    -0.344 N 
HETATM    9  C   UNL     1       6.927  25.474  54.171  1.00  0.00     0.253 C 
HETATM   10  O   UNL     1       7.682  26.415  53.962  1.00  0.00    -0.268 OA
HETATM   11  H   UNL     1       4.990  24.779  54.321  1.00  0.00     0.163 HD
BRANCH   9  12
HETATM   12  C   UNL     1       7.431  24.209  54.778  1.00  0.00     0.043 A 
HETATM   13  C   UNL     1       7.849  23.133  53.963  1.00  0.00    -0.045 A 
HETATM   14  C   UNL     1       8.299  21.950  54.576  1.00  0.00     0.014 A 
HETATM   15  C   UNL     1       7.828  23.189  52.459  1.00  0.00     0.049 C 
HETATM   16  C   UNL     1       8.371  21.836  55.967  1.00  0.00    -0.061 A 
HETATM   17  C   UNL     1       8.903  20.588  56.608  1.00  0.00     0.048 C 
HETATM   18  C   UNL     1       7.997  22.927  56.760  1.00  0.00     0.014 A 
HETATM   19  C   UNL     1       7.512  24.112  56.184  1.00  0.00    -0.045 A 
HETATM   20  C   UNL     1       7.124  25.251  57.090  1.00  0.00     0.049 C 
ENDBRANCH   9  12
ENDBRANCH   1   8
BRANCH   4  21
HETATM   21  C   UNL     1       4.507  28.113  49.966  1.00  0.00     0.154 A 
HETATM   22  N   UNL     1       3.345  27.857  49.355  1.00  0.00    -0.155 NA
HETATM   23  N   UNL     1       3.587  28.027  48.049  1.00  0.00    -0.283 N 
HETATM   24  C   UNL     1       2.535  27.782  47.093  1.00  0.00     0.179 C 
HETATM   25  C   UNL     1       4.850  28.450  47.782  1.00  0.00     0.115 A 
HETATM   26  C   UNL     1       5.475  28.524  49.004  1.00  0.00     0.071 A 
ENDBRANCH   4  21
TORSDOF 3
ENDMDL
MODEL 4
REMARK VINA RESULT:      -8.9      4.169      7.073
REMARK  3 active torsions:
REMARK  status: ('A' for Active; 'I' for Inactive)
REMARK    1  A    between atoms: C_6  and  C_7 
REMARK       I    between atoms: C_7  and  N_8 
REMARK    2  A    between atoms: N_8  and  C_9 
REMARK    3  A    between atoms: N_12  and  C_13 
ROOT
HETATM    1  C   UNL     1       4.863  26.835  53.477  1.00  0.00     0.177 C 
HETATM    2  C   UNL     1       4.998  26.912  51.937  1.00  0.00     0.248 C 
HETATM    3  O   UNL     1       5.325  25.885  51.331  1.00  0.00    -0.271 OA
HETATM    4  N   UNL     1       4.678  28.151  51.354  1.00  0.00    -0.299 N 
HETATM    5  C   UNL     1       4.889  29.391  52.103  1.00  0.00     0.134 C 
HETATM    6  C   UNL     1       4.616  29.284  53.593  1.00  0.00     0.023 C 
HETATM    7  C   UNL     1       5.369  28.099  54.159  1.00  0.00     0.036 C 
ENDROOT
BRANCH   1   8
HETATM    8  N   UNL     1       5.580  25.642  53.923  1.00  0.00    -0.344 N 
HETATM    9  C   UNL     1       6.931  25.619  54.169  1.00  0.00     0.253 C 
HETATM   10  O   UNL     1       7.683  26.558  53.939  1.00  0.00    -0.268 OA
HETATM   11  H   UNL     1       4.996  24.925  54.351  1.00  0.00     0.163 HD
BRANCH   9  12
HETATM   12  C   UNL     1       7.444  24.362  54.785  1.00  0.00     0.043 A 
HETATM   13  C   UNL     1       7.500  24.216  56.190  1.00  0.00    -0.045 A 
HETATM   14  C   UNL     1       8.009  23.022  56.729  1.00  0.00     0.014 A 
HETATM   15  C   UNL     1       7.044  25.288  57.143  1.00  0.00     0.049 C 
HETATM   16  C   UNL     1       8.426  21.973  55.905  1.00  0.00    -0.061 A 
HETATM   17  C   UNL     1       8.918  20.683  56.494  1.00  0.00     0.048 C 
HETATM   18  C   UNL     1       8.322  22.115  54.517  1.00  0.00     0.014 A 
HETATM   19  C   UNL     1       7.848  23.305  53.941  1.00  0.00    -0.045 A 
HETATM   20  C   UNL     1       7.761  23.398  52.441  1.00  0.00     0.049 C 
ENDBRANCH   9  12
ENDBRANCH   1   8
BRANCH   4  21
HETATM   21  C   UNL     1       4.473  28.213  49.963  1.00  0.00     0.154 A 
HETATM   22  N   UNL     1       3.304  27.964  49.364  1.00  0.00    -0.155 NA
HETATM   23  N   UNL     1       3.538  28.116  48.055  1.00  0.00    -0.283 N 
HETATM   24  C   UNL     1       2.476  27.871  47.109  1.00  0.00     0.179 C 
HETATM   25  C   UNL     1       4.803  28.522  47.772  1.00  0.00     0.115 A 
HETATM   26  C   UNL     1       5.438  28.604  48.989  1.00  0.00     0.071 A 
ENDBRANCH   4  21
TORSDOF 3
ENDMDL
MODEL 5
REMARK VINA RESULT:      -8.8      2.755      3.578
REMARK  3 active torsions:
REMARK  status: ('A' for Active; 'I' for Inactive)
REMARK    1  A    between atoms: C_6  and  C_7 
REMARK       I    between atoms: C_7  and  N_8 
REMARK    2  A    between atoms: N_8  and  C_9 
REMARK    3  A    between atoms: N_12  and  C_13 
ROOT
HETATM    1  C   UNL     1       5.387  28.462  54.928  1.00  0.00     0.177 C 
HETATM    2  C   UNL     1       5.214  29.104  56.326  1.00  0.00     0.248 C 
HETATM    3  O   UNL     1       5.760  28.553  57.290  1.00  0.00    -0.271 OA
HETATM    4  N   UNL     1       4.485  30.305  56.363  1.00  0.00    -0.299 N 
HETATM    5  C   UNL     1       3.426  30.552  55.382  1.00  0.00     0.134 C 
HETATM    6  C   UNL     1       3.712  30.009  53.994  1.00  0.00     0.023 C 
HETATM    7  C   UNL     1       4.116  28.553  54.096  1.00  0.00     0.036 C 
ENDROOT
BRANCH   1   8
HETATM    8  N   UNL     1       5.819  27.080  55.128  1.00  0.00    -0.344 N 
HETATM    9  C   UNL     1       7.010  26.584  54.657  1.00  0.00     0.253 C 
HETATM   10  O   UNL     1       7.774  27.213  53.936  1.00  0.00    -0.268 OA
HETATM   11  H   UNL     1       5.361  26.594  55.898  1.00  0.00     0.163 HD
BRANCH   9  12
HETATM   12  C   UNL     1       7.350  25.206  55.115  1.00  0.00     0.043 A 
HETATM   13  C   UNL     1       7.963  24.993  56.371  1.00  0.00    -0.045 A 
HETATM   14  C   UNL     1       8.285  23.680  56.756  1.00  0.00     0.014 A 
HETATM   15  C   UNL     1       8.294  26.113  57.320  1.00  0.00     0.049 C 
HETATM   16  C   UNL     1       7.982  22.588  55.937  1.00  0.00    -0.061 A 
HETATM   17  C   UNL     1       8.284  21.187  56.382  1.00  0.00     0.048 C 
HETATM   18  C   UNL     1       7.335  22.812  54.716  1.00  0.00     0.014 A 
HETATM   19  C   UNL     1       7.026  24.112  54.284  1.00  0.00    -0.045 A 
HETATM   20  C   UNL     1       6.330  24.288  52.961  1.00  0.00     0.049 C 
ENDBRANCH   9  12
ENDBRANCH   1   8
BRANCH   4  21
HETATM   21  C   UNL     1       4.549  31.102  57.522  1.00  0.00     0.154 A 
HETATM   22  N   UNL     1       3.535  31.267  58.377  1.00  0.00    -0.155 NA
HETATM   23  N   UNL     1       3.997  32.098  59.319  1.00  0.00    -0.283 N 
HETATM   24  C   UNL     1       3.122  32.522  60.385  1.00  0.00     0.179 C 
HETATM   25  C   UNL     1       5.303  32.435  59.152  1.00  0.00     0.115 A 
HETATM   26  C   UNL     1       5.697  31.800  57.999  1.00  0.00     0.071 A 
ENDBRANCH   4  21
TORSDOF 3
ENDMDL
MODEL 6
REMARK VINA RESULT:      -8.7      5.058      8.371
REMARK  3 active torsions:
REMARK  status: ('A' for Active; 'I' for Inactive)
REMARK    1  A    between atoms: C_6  and  C_7 
REMARK       I    between atoms: C_7  and  N_8 
REMARK    2  A    between atoms: N_8  and  C_9 
REMARK    3  A    between atoms: N_12  and  C_13 
ROOT
HETATM    1  C   UNL     1       4.868  27.489  52.344  1.00  0.00     0.177 C 
HETATM    2  C   UNL     1       5.378  26.030  52.453  1.00  0.00     0.248 C 
HETATM    3  O   UNL     1       5.191  25.277  51.490  1.00  0.00    -0.271 OA
HETATM    4  N   UNL     1       6.067  25.708  53.635  1.00  0.00    -0.299 N 
HETATM    5  C   UNL     1       5.737  26.393  54.887  1.00  0.00     0.134 C 
HETATM    6  C   UNL     1       5.369  27.857  54.728  1.00  0.00     0.023 C 
HETATM    7  C   UNL     1       4.302  27.996  53.663  1.00  0.00     0.036 C 
ENDROOT
BRANCH   1   8
HETATM    8  N   UNL     1       3.881  27.531  51.266  1.00  0.00    -0.344 N 
HETATM    9  C   UNL     1       4.032  28.292  50.133  1.00  0.00     0.253 C 
HETATM   10  O   UNL     1       4.948  29.087  49.961  1.00  0.00    -0.268 OA
HETATM   11  H   UNL     1       3.242  26.738  51.237  1.00  0.00     0.163 HD
BRANCH   9  12
HETATM   12  C   UNL     1       3.008  28.065  49.073  1.00  0.00     0.043 A 
HETATM   13  C   UNL     1       1.796  28.791  49.072  1.00  0.00    -0.045 A 
HETATM   14  C   UNL     1       0.849  28.531  48.065  1.00  0.00     0.014 A 
HETATM   15  C   UNL     1       1.465  29.833  50.106  1.00  0.00     0.049 C 
HETATM   16  C   UNL     1       1.100  27.597  47.057  1.00  0.00    -0.061 A 
HETATM   17  C   UNL     1       0.103  27.367  45.959  1.00  0.00     0.048 C 
HETATM   18  C   UNL     1       2.323  26.917  47.046  1.00  0.00     0.014 A 
HETATM   19  C   UNL     1       3.280  27.128  48.052  1.00  0.00    -0.045 A 
HETATM   20  C   UNL     1       4.577  26.366  47.988  1.00  0.00     0.049 C 
ENDBRANCH   9  12
ENDBRANCH   1   8
BRANCH   4  21
HETATM   21  C   UNL     1       6.821  24.521  53.678  1.00  0.00     0.154 A 
HETATM   22  N   UNL     1       6.725  23.604  54.646  1.00  0.00    -0.155 NA
HETATM   23  N   UNL     1       7.610  22.654  54.324  1.00  0.00    -0.283 N 
HETATM   24  C   UNL     1       7.791  21.523  55.202  1.00  0.00     0.179 C 
HETATM   25  C   UNL     1       8.241  22.878  53.142  1.00  0.00     0.115 A 
HETATM   26  C   UNL     1       7.749  24.078  52.689  1.00  0.00     0.071 A 
ENDBRANCH   4  21
TORSDOF 3
ENDMDL
MODEL 7
REMARK VINA RESULT:      -8.7      2.189      4.096
REMARK  3 active torsions:
REMARK  status: ('A' for Active; 'I' for Inactive)
REMARK    1  A    between atoms: C_6  and  C_7 
REMARK       I    between atoms: C_7  and  N_8 
REMARK    2  A    between atoms: N_8  and  C_9 
REMARK    3  A    between atoms: N_12  and  C_13 
ROOT
HETATM    1  C   UNL     1       6.653  27.888  57.153  1.00  0.00     0.177 C 
HETATM    2  C   UNL     1       5.737  28.702  56.207  1.00  0.00     0.248 C 
HETATM    3  O   UNL     1       5.262  28.126  55.220  1.00  0.00    -0.271 OA
HETATM    4  N   UNL     1       5.480  30.029  56.594  1.00  0.00    -0.299 N 
HETATM    5  C   UNL     1       6.480  30.777  57.358  1.00  0.00     0.134 C 
HETATM    6  C   UNL     1       7.259  29.948  58.362  1.00  0.00     0.023 C 
HETATM    7  C   UNL     1       7.817  28.719  57.676  1.00  0.00     0.036 C 
ENDROOT
BRANCH   1   8
HETATM    8  N   UNL     1       7.103  26.706  56.420  1.00  0.00    -0.344 N 
HETATM    9  C   UNL     1       6.489  25.480  56.513  1.00  0.00     0.253 C 
HETATM   10  O   UNL     1       5.579  25.229  57.292  1.00  0.00    -0.268 OA
HETATM   11  H   UNL     1       7.679  26.900  55.603  1.00  0.00     0.163 HD
BRANCH   9  12
HETATM   12  C   UNL     1       6.984  24.448  55.557  1.00  0.00     0.043 A 
HETATM   13  C   UNL     1       6.406  24.317  54.273  1.00  0.00    -0.045 A 
HETATM   14  C   UNL     1       6.889  23.318  53.410  1.00  0.00     0.014 A 
HETATM   15  C   UNL     1       5.288  25.198  53.785  1.00  0.00     0.049 C 
HETATM   16  C   UNL     1       7.944  22.481  53.786  1.00  0.00    -0.061 A 
HETATM   17  C   UNL     1       8.484  21.454  52.835  1.00  0.00     0.048 C 
HETATM   18  C   UNL     1       8.534  22.653  55.043  1.00  0.00     0.014 A 
HETATM   19  C   UNL     1       8.059  23.619  55.944  1.00  0.00    -0.045 A 
HETATM   20  C   UNL     1       8.735  23.755  57.282  1.00  0.00     0.049 C 
ENDBRANCH   9  12
ENDBRANCH   1   8
BRANCH   4  21
HETATM   21  C   UNL     1       4.426  30.725  55.972  1.00  0.00     0.154 A 
HETATM   22  N   UNL     1       4.529  31.345  54.792  1.00  0.00    -0.155 NA
HETATM   23  N   UNL     1       3.326  31.887  54.570  1.00  0.00    -0.283 N 
HETATM   24  C   UNL     1       3.109  32.678  53.383  1.00  0.00     0.179 C 
HETATM   25  C   UNL     1       2.412  31.591  55.531  1.00  0.00     0.115 A 
HETATM   26  C   UNL     1       3.089  30.830  56.454  1.00  0.00     0.071 A 
ENDBRANCH   4  21
TORSDOF 3
ENDMDL
MODEL 8
REMARK VINA RESULT:      -8.6      2.242      4.462
REMARK  3 active torsions:
REMARK  status: ('A' for Active; 'I' for Inactive)
REMARK    1  A    between atoms: C_6  and  C_7 
REMARK       I    between atoms: C_7  and  N_8 
REMARK    2  A    between atoms: N_8  and  C_9 
REMARK    3  A    between atoms: N_12  and  C_13 
ROOT
HETATM    1  C   UNL     1       6.615  28.044  57.200  1.00  0.00     0.177 C 
HETATM    2  C   UNL     1       5.726  28.860  56.229  1.00  0.00     0.248 C 
HETATM    3  O   UNL     1       5.285  28.288  55.225  1.00  0.00    -0.271 OA
HETATM    4  N   UNL     1       5.451  30.184  56.615  1.00  0.00    -0.299 N 
HETATM    5  C   UNL     1       6.423  30.932  57.415  1.00  0.00     0.134 C 
HETATM    6  C   UNL     1       7.174  30.100  58.439  1.00  0.00     0.023 C 
HETATM    7  C   UNL     1       7.758  28.877  57.764  1.00  0.00     0.036 C 
ENDROOT
BRANCH   1   8
HETATM    8  N   UNL     1       7.093  26.868  56.475  1.00  0.00    -0.344 N 
HETATM    9  C   UNL     1       6.488  25.637  56.551  1.00  0.00     0.253 C 
HETATM   10  O   UNL     1       5.562  25.376  57.307  1.00  0.00    -0.268 OA
HETATM   11  H   UNL     1       7.686  27.070  55.672  1.00  0.00     0.163 HD
BRANCH   9  12
HETATM   12  C   UNL     1       7.014  24.612  55.604  1.00  0.00     0.043 A 
HETATM   13  C   UNL     1       8.102  23.785  55.965  1.00  0.00    -0.045 A 
HETATM   14  C   UNL     1       8.579  22.845  55.034  1.00  0.00     0.014 A 
HETATM   15  C   UNL     1       8.783  23.867  57.304  1.00  0.00     0.049 C 
HETATM   16  C   UNL     1       7.978  22.695  53.781  1.00  0.00    -0.061 A 
HETATM   17  C   UNL     1       8.464  21.651  52.818  1.00  0.00     0.048 C 
HETATM   18  C   UNL     1       6.874  23.490  53.456  1.00  0.00     0.014 A 
HETATM   19  C   UNL     1       6.389  24.461  54.347  1.00  0.00    -0.045 A 
HETATM   20  C   UNL     1       5.198  25.287  53.939  1.00  0.00     0.049 C 
ENDBRANCH   9  12
ENDBRANCH   1   8
BRANCH   4  21
HETATM   21  C   UNL     1       4.415  30.879  55.964  1.00  0.00     0.154 A 
HETATM   22  N   UNL     1       4.584  31.622  54.865  1.00  0.00    -0.155 NA
HETATM   23  N   UNL     1       3.372  32.115  54.581  1.00  0.00    -0.283 N 
HETATM   24  C   UNL     1       3.213  33.010  53.460  1.00  0.00     0.179 C 
HETATM   25  C   UNL     1       2.396  31.671  55.415  1.00  0.00     0.115 A 
HETATM   26  C   UNL     1       3.035  30.859  56.322  1.00  0.00     0.071 A 
ENDBRANCH   4  21
TORSDOF 3
ENDMDL
MODEL 9
REMARK VINA RESULT:      -8.5      3.787      8.976
REMARK  3 active torsions:
REMARK  status: ('A' for Active; 'I' for Inactive)
REMARK    1  A    between atoms: C_6  and  C_7 
REMARK       I    between atoms: C_7  and  N_8 
REMARK    2  A    between atoms: N_8  and  C_9 
REMARK    3  A    between atoms: N_12  and  C_13 
ROOT
HETATM    1  C   UNL     1       7.620  29.988  57.880  1.00  0.00     0.177 C 
HETATM    2  C   UNL     1       6.267  30.196  57.156  1.00  0.00     0.248 C 
HETATM    3  O   UNL     1       5.482  31.030  57.623  1.00  0.00    -0.271 OA
HETATM    4  N   UNL     1       6.078  29.446  55.983  1.00  0.00    -0.299 N 
HETATM    5  C   UNL     1       6.714  28.134  55.839  1.00  0.00     0.134 C 
HETATM    6  C   UNL     1       8.095  28.031  56.460  1.00  0.00     0.023 C 
HETATM    7  C   UNL     1       8.043  28.525  57.890  1.00  0.00     0.036 C 
ENDROOT
BRANCH   1   8
HETATM    8  N   UNL     1       7.486  30.534  59.229  1.00  0.00    -0.344 N 
HETATM    9  C   UNL     1       8.049  31.723  59.622  1.00  0.00     0.253 C 
HETATM   10  O   UNL     1       8.802  32.388  58.921  1.00  0.00    -0.268 OA
HETATM   11  H   UNL     1       6.702  30.167  59.765  1.00  0.00     0.163 HD
BRANCH   9  12
HETATM   12  C   UNL     1       7.652  32.197  60.980  1.00  0.00     0.043 A 
HETATM   13  C   UNL     1       6.466  32.941  61.167  1.00  0.00    -0.045 A 
HETATM   14  C   UNL     1       6.138  33.384  62.461  1.00  0.00     0.014 A 
HETATM   15  C   UNL     1       5.531  33.289  60.039  1.00  0.00     0.049 C 
HETATM   16  C   UNL     1       6.945  33.075  63.559  1.00  0.00    -0.061 A 
HETATM   17  C   UNL     1       6.557  33.510  64.942  1.00  0.00     0.048 C 
HETATM   18  C   UNL     1       8.093  32.299  63.365  1.00  0.00     0.014 A 
HETATM   19  C   UNL     1       8.468  31.865  62.083  1.00  0.00    -0.045 A 
HETATM   20  C   UNL     1       9.716  31.034  61.937  1.00  0.00     0.049 C 
ENDBRANCH   9  12
ENDBRANCH   1   8
BRANCH   4  21
HETATM   21  C   UNL     1       5.032  29.802  55.111  1.00  0.00     0.154 A 
HETATM   22  N   UNL     1       4.579  31.050  54.952  1.00  0.00    -0.155 NA
HETATM   23  N   UNL     1       3.586  30.956  54.059  1.00  0.00    -0.283 N 
HETATM   24  C   UNL     1       2.844  32.137  53.693  1.00  0.00     0.179 C 
HETATM   25  C   UNL     1       3.411  29.699  53.573  1.00  0.00     0.115 A 
HETATM   26  C   UNL     1       4.338  28.924  54.228  1.00  0.00     0.071 A 
ENDBRANCH   4  21
TORSDOF 3
ENDMDL
MODEL 10
REMARK VINA RESULT:      -8.4      2.132      7.719
REMARK  3 active torsions:
REMARK  status: ('A' for Active; 'I' for Inactive)
REMARK    1  A    between atoms: C_6  and  C_7 
REMARK       I    between atoms: C_7  and  N_8 
REMARK    2  A    between atoms: N_8  and  C_9 
REMARK    3  A    between atoms: N_12  and  C_13 
ROOT
HETATM    1  C   UNL     1       5.906  26.277  55.771  1.00  0.00     0.177 C 
HETATM    2  C   UNL     1       6.988  25.191  55.550  1.00  0.00     0.248 C 
HETATM    3  O   UNL     1       7.949  25.162  56.328  1.00  0.00    -0.271 OA
HETATM    4  N   UNL     1       6.744  24.288  54.501  1.00  0.00    -0.299 N 
HETATM    5  C   UNL     1       5.981  24.715  53.326  1.00  0.00     0.134 C 
HETATM    6  C   UNL     1       4.850  25.683  53.625  1.00  0.00     0.023 C 
HETATM    7  C   UNL     1       5.379  26.834  54.455  1.00  0.00     0.036 C 
ENDROOT
BRANCH   1   8
HETATM    8  N   UNL     1       6.492  27.317  56.615  1.00  0.00    -0.344 N 
HETATM    9  C   UNL     1       7.023  28.483  56.120  1.00  0.00     0.253 C 
HETATM   10  O   UNL     1       7.155  28.721  54.926  1.00  0.00    -0.268 OA
HETATM   11  H   UNL     1       6.203  27.291  57.592  1.00  0.00     0.163 HD
BRANCH   9  12
HETATM   12  C   UNL     1       7.408  29.492  57.148  1.00  0.00     0.043 A 
HETATM   13  C   UNL     1       6.428  30.296  57.775  1.00  0.00    -0.045 A 
HETATM   14  C   UNL     1       6.837  31.249  58.724  1.00  0.00     0.014 A 
HETATM   15  C   UNL     1       4.959  30.183  57.468  1.00  0.00     0.049 C 
HETATM   16  C   UNL     1       8.182  31.390  59.078  1.00  0.00    -0.061 A 
HETATM   17  C   UNL     1       8.598  32.375  60.131  1.00  0.00     0.048 C 
HETATM   18  C   UNL     1       9.134  30.557  58.482  1.00  0.00     0.014 A 
HETATM   19  C   UNL     1       8.768  29.615  57.507  1.00  0.00    -0.045 A 
HETATM   20  C   UNL     1       9.839  28.748  56.900  1.00  0.00     0.049 C 
ENDBRANCH   9  12
ENDBRANCH   1   8
BRANCH   4  21
HETATM   21  C   UNL     1       7.502  23.104  54.436  1.00  0.00     0.154 A 
HETATM   22  N   UNL     1       7.537  22.180  55.402  1.00  0.00    -0.155 NA
HETATM   23  N   UNL     1       8.376  21.235  54.958  1.00  0.00    -0.283 N 
HETATM   24  C   UNL     1       8.675  20.100  55.796  1.00  0.00     0.179 C 
HETATM   25  C   UNL     1       8.845  21.471  53.705  1.00  0.00     0.115 A 
HETATM   26  C   UNL     1       8.292  22.672  53.330  1.00  0.00     0.071 A 
ENDBRANCH   4  21
TORSDOF 3
ENDMDL
