MODEL 1
REMARK VINA RESULT:     -11.7      0.000      0.000
REMARK  9 active torsions:
REMARK  status: ('A' for Active; 'I' for Inactive)
REMARK    1  A    between atoms: C_4  and  C_5 
REMARK    2  A    between atoms: C_5  and  N_6 
REMARK    3  A    between atoms: C_10  and  C_11 
REMARK    4  A    between atoms: C_11  and  N_12 
REMARK       I    between atoms: N_12  and  C_13 
REMARK    5  A    between atoms: C_13  and  C_14 
REMARK    6  A    between atoms: C_14  and  C_15 
REMARK    7  A    between atoms: C_15  and  C_16 
REMARK       I    between atoms: C_16  and  N_17 
REMARK    8  A    between atoms: N_17  and  C_18 
REMARK    9  A    between atoms: C_24  and  N_25 
ROOT
HETATM    1  C   UNL     1       4.300  32.508  59.927  1.00  0.00     0.112 C 
ENDROOT
BRANCH   1   2
HETATM    2  C   UNL     1       5.668  32.482  59.254  1.00  0.00     0.112 C 
BRANCH   2   3
HETATM    3  C   UNL     1       5.743  31.535  58.080  1.00  0.00     0.218 C 
HETATM    4  N   UNL     1       6.309  30.307  58.349  1.00  0.00    -0.361 N 
HETATM    5  H   UNL     1       6.490  30.077  59.320  1.00  0.00     0.162 HD
HETATM    6  O   UNL     1       5.306  31.832  56.970  1.00  0.00    -0.274 OA
BRANCH   4   7
HETATM    7  C   UNL     1       6.183  29.198  57.422  1.00  0.00     0.127 C 
BRANCH   7   8
HETATM    8  C   UNL     1       7.528  28.599  56.959  1.00  0.00     0.006 C 
HETATM    9  C   UNL     1       7.675  28.459  55.437  1.00  0.00     0.034 C 
HETATM   10  C   UNL     1       6.741  27.410  54.844  1.00  0.00     0.235 C 
HETATM   11  N   UNL     1       7.017  26.075  55.506  1.00  0.00    -0.067 N 
HETATM   12  H   UNL     1       7.990  25.832  55.291  1.00  0.00     0.280 HD
HETATM   13  C   UNL     1       6.860  26.126  57.003  1.00  0.00     0.235 C 
HETATM   14  C   UNL     1       7.756  27.214  57.592  1.00  0.00     0.034 C 
BRANCH  11  15
HETATM   15  C   UNL     1       6.173  24.957  54.914  1.00  0.00     0.273 C 
BRANCH  15  16
HETATM   16  C   UNL     1       6.969  23.739  54.534  1.00  0.00    -0.032 A 
HETATM   17  C   UNL     1       7.381  22.818  55.512  1.00  0.00     0.015 A 
HETATM   18  C   UNL     1       8.164  21.708  55.167  1.00  0.00    -0.061 A 
HETATM   19  C   UNL     1       8.584  20.707  56.203  1.00  0.00     0.048 C 
HETATM   20  C   UNL     1       8.510  21.509  53.826  1.00  0.00     0.007 A 
HETATM   21  C   UNL     1       8.098  22.409  52.847  1.00  0.00     0.001 A 
HETATM   22  C   UNL     1       7.334  23.521  53.198  1.00  0.00     0.009 A 
ENDBRANCH  15  16
ENDBRANCH  11  15
ENDBRANCH   7   8
ENDBRANCH   4   7
ENDBRANCH   2   3
ENDBRANCH   1   2
BRANCH   1  23
HETATM   23  C   UNL     1       4.446  32.466  61.440  1.00  0.00     0.222 C 
HETATM   24  N   UNL     1       5.398  33.355  61.915  1.00  0.00    -0.327 N 
HETATM   25  H   UNL     1       5.945  33.850  61.220  1.00  0.00     0.169 HD
HETATM   26  O   UNL     1       3.786  31.694  62.129  1.00  0.00    -0.273 OA
BRANCH  24  27
HETATM   27  C   UNL     1       5.757  33.563  63.267  1.00  0.00     0.035 A 
HETATM   28  C   UNL     1       4.897  34.114  64.227  1.00  0.00     0.043 A 
HETATM   29  C   UNL     1       5.284  34.282  65.578  1.00  0.00    -0.001 A 
HETATM   30  C   UNL     1       6.582  33.872  65.947  1.00  0.00     0.044 A 
HETATM   31  C   UNL     1       4.449  34.824  66.584  1.00  0.00    -0.046 A 
HETATM   32  N   UNL     1       6.971  33.988  67.225  1.00  0.00    -0.346 N 
HETATM   33  C   UNL     1       7.456  33.339  64.989  1.00  0.00     0.033 A 
HETATM   34  H   UNL     1       7.877  33.638  67.516  1.00  0.00     0.167 HD
HETATM   35  C   UNL     1       6.219  34.490  68.211  1.00  0.00     0.083 A 
HETATM   36  C   UNL     1       4.930  34.918  67.897  1.00  0.00     0.050 A 
HETATM   37  C   UNL     1       7.047  33.196  63.658  1.00  0.00     0.032 A 
HETATM   38  C   UNL     1       3.046  35.291  66.287  1.00  0.00     0.049 C 
BRANCH  35  39
HETATM   39  N   UNL     1       6.792  34.473  69.472  1.00  0.00    -0.269 NA
HETATM   40  C   UNL     1       5.952  34.959  70.590  1.00  0.00     0.097 C 
HETATM   41  C   UNL     1       6.583  34.551  71.920  1.00  0.00     0.015 C 
HETATM   42  C   UNL     1       8.020  35.053  72.029  1.00  0.00     0.002 C 
HETATM   43  C   UNL     1       8.841  34.616  70.818  1.00  0.00     0.015 C 
HETATM   44  C   UNL     1       8.164  35.025  69.509  1.00  0.00     0.097 C 
ENDBRANCH  35  39
ENDBRANCH  24  27
ENDBRANCH   1  23
TORSDOF 9
ENDMDL
MODEL 2
REMARK VINA RESULT:     -11.3      2.195      4.390
REMARK  9 active torsions:
REMARK  status: ('A' for Active; 'I' for Inactive)
REMARK    1  A    between atoms: C_4  and  C_5 
REMARK    2  A    between atoms: C_5  and  N_6 
REMARK    3  A    between atoms: C_10  and  C_11 
REMARK    4  A    between atoms: C_11  and  N_12 
REMARK       I    between atoms: N_12  and  C_13 
REMARK    5  A    between atoms: C_13  and  C_14 
REMARK    6  A    between atoms: C_14  and  C_15 
REMARK    7  A    between atoms: C_15  and  C_16 
REMARK       I    between atoms: C_16  and  N_17 
REMARK    8  A    between atoms: N_17  and  C_18 
REMARK    9  A    between atoms: C_24  and  N_25 
ROOT
HETATM    1  C   UNL     1       8.526  29.130  56.893  1.00  0.00     0.112 C 
ENDROOT
BRANCH   1   2
HETATM    2  C   UNL     1       8.673  27.633  57.145  1.00  0.00     0.112 C 
BRANCH   2   3
HETATM    3  C   UNL     1       7.405  26.853  56.891  1.00  0.00     0.218 C 
HETATM    4  N   UNL     1       6.501  27.460  56.046  1.00  0.00    -0.361 N 
HETATM    5  H   UNL     1       6.807  28.291  55.551  1.00  0.00     0.162 HD
HETATM    6  O   UNL     1       7.208  25.744  57.383  1.00  0.00    -0.274 OA
BRANCH   4   7
HETATM    7  C   UNL     1       5.390  26.723  55.474  1.00  0.00     0.127 C 
BRANCH   7   8
HETATM    8  C   UNL     1       5.202  26.928  53.956  1.00  0.00     0.006 C 
HETATM    9  C   UNL     1       4.761  25.673  53.190  1.00  0.00     0.034 C 
HETATM   10  C   UNL     1       5.840  24.598  53.143  1.00  0.00     0.235 C 
HETATM   11  N   UNL     1       7.084  25.175  52.499  1.00  0.00    -0.067 N 
HETATM   12  H   UNL     1       6.826  25.446  51.543  1.00  0.00     0.280 HD
HETATM   13  C   UNL     1       7.596  26.396  53.217  1.00  0.00     0.235 C 
HETATM   14  C   UNL     1       6.498  27.454  53.311  1.00  0.00     0.034 C 
BRANCH  11  15
HETATM   15  C   UNL     1       8.186  24.138  52.347  1.00  0.00     0.273 C 
BRANCH  15  16
HETATM   16  C   UNL     1       8.088  23.006  53.332  1.00  0.00    -0.032 A 
HETATM   17  C   UNL     1       8.260  23.235  54.707  1.00  0.00     0.015 A 
HETATM   18  C   UNL     1       8.218  22.172  55.621  1.00  0.00    -0.061 A 
HETATM   19  C   UNL     1       8.374  22.415  57.094  1.00  0.00     0.048 C 
HETATM   20  C   UNL     1       7.972  20.878  55.151  1.00  0.00     0.007 A 
HETATM   21  C   UNL     1       7.789  20.642  53.791  1.00  0.00     0.001 A 
HETATM   22  C   UNL     1       7.849  21.698  52.884  1.00  0.00     0.009 A 
ENDBRANCH  15  16
ENDBRANCH  11  15
ENDBRANCH   7   8
ENDBRANCH   4   7
ENDBRANCH   2   3
ENDBRANCH   1   2
BRANCH   1  23
HETATM   23  C   UNL     1       7.756  29.791  58.026  1.00  0.00     0.222 C 
HETATM   24  N   UNL     1       8.584  30.299  59.016  1.00  0.00    -0.327 N 
HETATM   25  H   UNL     1       9.574  30.097  58.929  1.00  0.00     0.169 HD
HETATM   26  O   UNL     1       6.530  29.828  58.035  1.00  0.00    -0.273 OA
BRANCH  24  27
HETATM   27  C   UNL     1       8.178  30.980  60.187  1.00  0.00     0.035 A 
HETATM   28  C   UNL     1       7.139  31.919  60.223  1.00  0.00     0.043 A 
HETATM   29  C   UNL     1       6.743  32.560  61.422  1.00  0.00    -0.001 A 
HETATM   30  C   UNL     1       7.432  32.224  62.606  1.00  0.00     0.044 A 
HETATM   31  C   UNL     1       5.695  33.507  61.510  1.00  0.00    -0.046 A 
HETATM   32  N   UNL     1       7.063  32.790  63.765  1.00  0.00    -0.346 N 
HETATM   33  C   UNL     1       8.486  31.301  62.575  1.00  0.00     0.033 A 
HETATM   34  H   UNL     1       7.506  32.509  64.632  1.00  0.00     0.167 HD
HETATM   35  C   UNL     1       6.078  33.685  63.900  1.00  0.00     0.083 A 
HETATM   36  C   UNL     1       5.372  34.058  62.758  1.00  0.00     0.050 A 
HETATM   37  C   UNL     1       8.861  30.692  61.372  1.00  0.00     0.032 A 
HETATM   38  C   UNL     1       4.901  33.931  60.299  1.00  0.00     0.049 C 
BRANCH  35  39
HETATM   39  N   UNL     1       5.824  34.108  65.195  1.00  0.00    -0.269 NA
HETATM   40  C   UNL     1       6.829  33.749  66.220  1.00  0.00     0.097 C 
HETATM   41  C   UNL     1       6.587  34.573  67.485  1.00  0.00     0.015 C 
HETATM   42  C   UNL     1       5.161  34.392  67.999  1.00  0.00     0.002 C 
HETATM   43  C   UNL     1       4.147  34.678  66.895  1.00  0.00     0.015 C 
HETATM   44  C   UNL     1       4.438  33.851  65.642  1.00  0.00     0.097 C 
ENDBRANCH  35  39
ENDBRANCH  24  27
ENDBRANCH   1  23
TORSDOF 9
ENDMDL
MODEL 3
REMARK VINA RESULT:     -11.1      2.268      4.516
REMARK  9 active torsions:
REMARK  status: ('A' for Active; 'I' for Inactive)
REMARK    1  A    between atoms: C_4  and  C_5 
REMARK    2  A    between atoms: C_5  and  N_6 
REMARK    3  A    between atoms: C_10  and  C_11 
REMARK    4  A    between atoms: C_11  and  N_12 
REMARK       I    between atoms: N_12  and  C_13 
REMARK    5  A    between atoms: C_13  and  C_14 
REMARK    6  A    between atoms: C_14  and  C_15 
REMARK    7  A    between atoms: C_15  and  C_16 
REMARK       I    between atoms: C_16  and  N_17 
REMARK    8  A    between atoms: N_17  and  C_18 
REMARK    9  A    between atoms: C_24  and  N_25 
ROOT
HETATM    1  C   UNL     1       5.532  30.491  55.649  1.00  0.00     0.112 C 
ENDROOT
BRANCH   1   2
HETATM    2  C   UNL     1       4.254  30.735  54.854  1.00  0.00     0.112 C 
BRANCH   2   3
HETATM    3  C   UNL     1       4.280  30.127  53.472  1.00  0.00     0.218 C 
HETATM    4  N   UNL     1       5.386  29.352  53.191  1.00  0.00    -0.361 N 
HETATM    5  H   UNL     1       6.008  29.128  53.959  1.00  0.00     0.162 HD
HETATM    6  O   UNL     1       3.367  30.292  52.666  1.00  0.00    -0.274 OA
BRANCH   4   7
HETATM    7  C   UNL     1       5.417  28.471  52.038  1.00  0.00     0.127 C 
BRANCH   7   8
HETATM    8  C   UNL     1       4.695  27.123  52.247  1.00  0.00     0.006 C 
HETATM    9  C   UNL     1       4.675  26.627  53.699  1.00  0.00     0.034 C 
HETATM   10  C   UNL     1       6.055  26.229  54.209  1.00  0.00     0.235 C 
HETATM   11  N   UNL     1       6.620  25.147  53.310  1.00  0.00    -0.067 N 
HETATM   12  H   UNL     1       5.983  24.345  53.376  1.00  0.00     0.280 HD
HETATM   13  C   UNL     1       6.700  25.575  51.868  1.00  0.00     0.235 C 
HETATM   14  C   UNL     1       5.327  26.024  51.373  1.00  0.00     0.034 C 
BRANCH  11  15
HETATM   15  C   UNL     1       7.969  24.642  53.798  1.00  0.00     0.273 C 
BRANCH  15  16
HETATM   16  C   UNL     1       8.025  23.150  53.976  1.00  0.00    -0.032 A 
HETATM   17  C   UNL     1       8.267  22.587  55.240  1.00  0.00     0.015 A 
HETATM   18  C   UNL     1       8.369  21.198  55.398  1.00  0.00    -0.061 A 
HETATM   19  C   UNL     1       8.600  20.590  56.751  1.00  0.00     0.048 C 
HETATM   20  C   UNL     1       8.198  20.370  54.284  1.00  0.00     0.007 A 
HETATM   21  C   UNL     1       7.947  20.918  53.027  1.00  0.00     0.001 A 
HETATM   22  C   UNL     1       7.863  22.300  52.872  1.00  0.00     0.009 A 
ENDBRANCH  15  16
ENDBRANCH  11  15
ENDBRANCH   7   8
ENDBRANCH   4   7
ENDBRANCH   2   3
ENDBRANCH   1   2
BRANCH   1  23
HETATM   23  C   UNL     1       5.250  30.530  57.143  1.00  0.00     0.222 C 
HETATM   24  N   UNL     1       5.749  31.669  57.757  1.00  0.00    -0.327 N 
HETATM   25  H   UNL     1       6.313  32.285  57.182  1.00  0.00     0.169 HD
HETATM   26  O   UNL     1       4.659  29.617  57.710  1.00  0.00    -0.273 OA
BRANCH  24  27
HETATM   27  C   UNL     1       5.641  32.005  59.125  1.00  0.00     0.035 A 
HETATM   28  C   UNL     1       6.719  31.991  60.020  1.00  0.00     0.043 A 
HETATM   29  C   UNL     1       6.576  32.362  61.379  1.00  0.00    -0.001 A 
HETATM   30  C   UNL     1       5.297  32.756  61.823  1.00  0.00     0.044 A 
HETATM   31  C   UNL     1       7.636  32.372  62.317  1.00  0.00    -0.046 A 
HETATM   32  N   UNL     1       5.133  33.142  63.097  1.00  0.00    -0.346 N 
HETATM   33  C   UNL     1       4.209  32.752  60.940  1.00  0.00     0.033 A 
HETATM   34  H   UNL     1       4.234  33.489  63.412  1.00  0.00     0.167 HD
HETATM   35  C   UNL     1       6.102  33.173  64.019  1.00  0.00     0.083 A 
HETATM   36  C   UNL     1       7.383  32.784  63.633  1.00  0.00     0.050 A 
HETATM   37  C   UNL     1       4.380  32.370  59.605  1.00  0.00     0.032 A 
HETATM   38  C   UNL     1       9.039  31.968  61.937  1.00  0.00     0.049 C 
BRANCH  35  39
HETATM   39  N   UNL     1       5.732  33.654  65.264  1.00  0.00    -0.269 NA
HETATM   40  C   UNL     1       4.629  34.640  65.294  1.00  0.00     0.097 C 
HETATM   41  C   UNL     1       4.118  34.794  66.726  1.00  0.00     0.015 C 
HETATM   42  C   UNL     1       5.248  35.175  67.679  1.00  0.00     0.002 C 
HETATM   43  C   UNL     1       6.411  34.194  67.561  1.00  0.00     0.015 C 
HETATM   44  C   UNL     1       6.876  34.054  66.111  1.00  0.00     0.097 C 
ENDBRANCH  35  39
ENDBRANCH  24  27
ENDBRANCH   1  23
TORSDOF 9
ENDMDL
MODEL 4
REMARK VINA RESULT:     -10.9      2.167      4.072
REMARK  9 active torsions:
REMARK  status: ('A' for Active; 'I' for Inactive)
REMARK    1  A    between atoms: C_4  and  C_5 
REMARK    2  A    between atoms: C_5  and  N_6 
REMARK    3  A    between atoms: C_10  and  C_11 
REMARK    4  A    between atoms: C_11  and  N_12 
REMARK       I    between atoms: N_12  and  C_13 
REMARK    5  A    between atoms: C_13  and  C_14 
REMARK    6  A    between atoms: C_14  and  C_15 
REMARK    7  A    between atoms: C_15  and  C_16 
REMARK       I    between atoms: C_16  and  N_17 
REMARK    8  A    between atoms: N_17  and  C_18 
REMARK    9  A    between atoms: C_24  and  N_25 
ROOT
HETATM    1  C   UNL     1       4.651  32.360  55.834  1.00  0.00     0.112 C 
ENDROOT
BRANCH   1   2
HETATM    2  C   UNL     1       5.335  30.998  55.806  1.00  0.00     0.112 C 
BRANCH   2   3
HETATM    3  C   UNL     1       4.625  29.986  54.938  1.00  0.00     0.218 C 
HETATM    4  N   UNL     1       5.448  29.192  54.167  1.00  0.00    -0.361 N 
HETATM    5  H   UNL     1       6.445  29.238  54.346  1.00  0.00     0.162 HD
HETATM    6  O   UNL     1       3.402  29.865  54.939  1.00  0.00    -0.274 OA
BRANCH   4   7
HETATM    7  C   UNL     1       4.948  27.994  53.518  1.00  0.00     0.127 C 
BRANCH   7   8
HETATM    8  C   UNL     1       6.026  27.174  52.777  1.00  0.00     0.006 C 
HETATM    9  C   UNL     1       5.641  25.714  52.502  1.00  0.00     0.034 C 
HETATM   10  C   UNL     1       5.549  24.875  53.771  1.00  0.00     0.235 C 
HETATM   11  N   UNL     1       6.882  24.923  54.490  1.00  0.00    -0.067 N 
HETATM   12  H   UNL     1       7.577  24.513  53.855  1.00  0.00     0.280 HD
HETATM   13  C   UNL     1       7.312  26.327  54.823  1.00  0.00     0.235 C 
HETATM   14  C   UNL     1       7.352  27.183  53.558  1.00  0.00     0.034 C 
BRANCH  11  15
HETATM   15  C   UNL     1       6.895  24.047  55.733  1.00  0.00     0.273 C 
BRANCH  15  16
HETATM   16  C   UNL     1       7.594  22.730  55.535  1.00  0.00    -0.032 A 
HETATM   17  C   UNL     1       7.690  22.155  54.257  1.00  0.00     0.015 A 
HETATM   18  C   UNL     1       8.297  20.904  54.078  1.00  0.00    -0.061 A 
HETATM   19  C   UNL     1       8.428  20.298  52.711  1.00  0.00     0.048 C 
HETATM   20  C   UNL     1       8.837  20.243  55.187  1.00  0.00     0.007 A 
HETATM   21  C   UNL     1       8.757  20.810  56.457  1.00  0.00     0.001 A 
HETATM   22  C   UNL     1       8.136  22.045  56.632  1.00  0.00     0.009 A 
ENDBRANCH  15  16
ENDBRANCH  11  15
ENDBRANCH   7   8
ENDBRANCH   4   7
ENDBRANCH   2   3
ENDBRANCH   1   2
BRANCH   1  23
HETATM   23  C   UNL     1       4.724  32.969  57.226  1.00  0.00     0.222 C 
HETATM   24  N   UNL     1       4.765  32.014  58.231  1.00  0.00    -0.327 N 
HETATM   25  H   UNL     1       4.646  31.048  57.945  1.00  0.00     0.169 HD
HETATM   26  O   UNL     1       4.723  34.183  57.398  1.00  0.00    -0.273 OA
BRANCH  24  27
HETATM   27  C   UNL     1       4.847  32.256  59.621  1.00  0.00     0.035 A 
HETATM   28  C   UNL     1       6.049  32.264  60.342  1.00  0.00     0.043 A 
HETATM   29  C   UNL     1       6.094  32.538  61.730  1.00  0.00    -0.001 A 
HETATM   30  C   UNL     1       4.877  32.810  62.387  1.00  0.00     0.044 A 
HETATM   31  C   UNL     1       7.283  32.567  62.497  1.00  0.00    -0.046 A 
HETATM   32  N   UNL     1       4.886  33.102  63.696  1.00  0.00    -0.346 N 
HETATM   33  C   UNL     1       3.668  32.782  61.679  1.00  0.00     0.033 A 
HETATM   34  H   UNL     1       4.027  33.363  64.166  1.00  0.00     0.167 HD
HETATM   35  C   UNL     1       5.982  33.146  64.463  1.00  0.00     0.083 A 
HETATM   36  C   UNL     1       7.211  32.877  63.863  1.00  0.00     0.050 A 
HETATM   37  C   UNL     1       3.655  32.498  60.308  1.00  0.00     0.032 A 
HETATM   38  C   UNL     1       8.633  32.290  61.885  1.00  0.00     0.049 C 
BRANCH  35  39
HETATM   39  N   UNL     1       5.778  33.521  65.781  1.00  0.00    -0.269 NA
HETATM   40  C   UNL     1       4.476  34.146  66.100  1.00  0.00     0.097 C 
HETATM   41  C   UNL     1       4.276  34.169  67.615  1.00  0.00     0.015 C 
HETATM   42  C   UNL     1       5.433  34.877  68.315  1.00  0.00     0.002 C 
HETATM   43  C   UNL     1       6.771  34.273  67.897  1.00  0.00     0.015 C 
HETATM   44  C   UNL     1       6.920  34.249  66.375  1.00  0.00     0.097 C 
ENDBRANCH  35  39
ENDBRANCH  24  27
ENDBRANCH   1  23
TORSDOF 9
ENDMDL
MODEL 5
REMARK VINA RESULT:     -10.7      2.114      3.972
REMARK  9 active torsions:
REMARK  status: ('A' for Active; 'I' for Inactive)
REMARK    1  A    between atoms: C_4  and  C_5 
REMARK    2  A    between atoms: C_5  and  N_6 
REMARK    3  A    between atoms: C_10  and  C_11 
REMARK    4  A    between atoms: C_11  and  N_12 
REMARK       I    between atoms: N_12  and  C_13 
REMARK    5  A    between atoms: C_13  and  C_14 
REMARK    6  A    between atoms: C_14  and  C_15 
REMARK    7  A    between atoms: C_15  and  C_16 
REMARK       I    between atoms: C_16  and  N_17 
REMARK    8  A    between atoms: N_17  and  C_18 
REMARK    9  A    between atoms: C_24  and  N_25 
ROOT
HETATM    1  C   UNL     1       4.312  32.936  55.461  1.00  0.00     0.112 C 
ENDROOT
BRANCH   1   2
HETATM    2  C   UNL     1       3.266  31.834  55.587  1.00  0.00     0.112 C 
BRANCH   2   3
HETATM    3  C   UNL     1       3.733  30.498  55.059  1.00  0.00     0.218 C 
HETATM    4  N   UNL     1       4.191  29.616  56.014  1.00  0.00    -0.361 N 
HETATM    5  H   UNL     1       4.045  29.861  56.987  1.00  0.00     0.162 HD
HETATM    6  O   UNL     1       3.683  30.212  53.865  1.00  0.00    -0.274 OA
BRANCH   4   7
HETATM    7  C   UNL     1       4.389  28.211  55.710  1.00  0.00     0.127 C 
BRANCH   7   8
HETATM    8  C   UNL     1       5.247  27.450  56.743  1.00  0.00     0.006 C 
HETATM    9  C   UNL     1       6.752  27.743  56.663  1.00  0.00     0.034 C 
HETATM   10  C   UNL     1       7.394  27.203  55.390  1.00  0.00     0.235 C 
HETATM   11  N   UNL     1       7.163  25.707  55.317  1.00  0.00    -0.067 N 
HETATM   12  H   UNL     1       7.622  25.295  56.137  1.00  0.00     0.280 HD
HETATM   13  C   UNL     1       5.702  25.344  55.358  1.00  0.00     0.235 C 
HETATM   14  C   UNL     1       5.046  25.929  56.606  1.00  0.00     0.034 C 
BRANCH  11  15
HETATM   15  C   UNL     1       7.840  25.080  54.108  1.00  0.00     0.273 C 
BRANCH  15  16
HETATM   16  C   UNL     1       7.901  23.579  54.163  1.00  0.00    -0.032 A 
HETATM   17  C   UNL     1       8.181  22.916  55.370  1.00  0.00     0.015 A 
HETATM   18  C   UNL     1       8.288  21.519  55.412  1.00  0.00    -0.061 A 
HETATM   19  C   UNL     1       8.558  20.805  56.704  1.00  0.00     0.048 C 
HETATM   20  C   UNL     1       8.082  20.784  54.240  1.00  0.00     0.007 A 
HETATM   21  C   UNL     1       7.794  21.430  53.040  1.00  0.00     0.001 A 
HETATM   22  C   UNL     1       7.706  22.821  52.999  1.00  0.00     0.009 A 
ENDBRANCH  15  16
ENDBRANCH  11  15
ENDBRANCH   7   8
ENDBRANCH   4   7
ENDBRANCH   2   3
ENDBRANCH   1   2
BRANCH   1  23
HETATM   23  C   UNL     1       4.658  33.507  56.828  1.00  0.00     0.222 C 
HETATM   24  N   UNL     1       4.209  32.713  57.873  1.00  0.00    -0.327 N 
HETATM   25  H   UNL     1       3.634  31.916  57.624  1.00  0.00     0.169 HD
HETATM   26  O   UNL     1       5.253  34.573  56.948  1.00  0.00    -0.273 OA
BRANCH  24  27
HETATM   27  C   UNL     1       4.382  32.960  59.254  1.00  0.00     0.035 A 
HETATM   28  C   UNL     1       5.585  32.747  59.940  1.00  0.00     0.043 A 
HETATM   29  C   UNL     1       5.728  33.033  61.320  1.00  0.00    -0.001 A 
HETATM   30  C   UNL     1       4.608  33.550  62.003  1.00  0.00     0.044 A 
HETATM   31  C   UNL     1       6.923  32.843  62.053  1.00  0.00    -0.046 A 
HETATM   32  N   UNL     1       4.717  33.860  63.304  1.00  0.00    -0.346 N 
HETATM   33  C   UNL     1       3.395  33.746  61.330  1.00  0.00     0.033 A 
HETATM   34  H   UNL     1       3.940  34.293  63.791  1.00  0.00     0.167 HD
HETATM   35  C   UNL     1       5.824  33.703  64.039  1.00  0.00     0.083 A 
HETATM   36  C   UNL     1       6.956  33.187  63.411  1.00  0.00     0.050 A 
HETATM   37  C   UNL     1       3.283  33.444  59.968  1.00  0.00     0.032 A 
HETATM   38  C   UNL     1       8.173  32.295  61.410  1.00  0.00     0.049 C 
BRANCH  35  39
HETATM   39  N   UNL     1       5.740  34.135  65.352  1.00  0.00    -0.269 NA
HETATM   40  C   UNL     1       6.849  33.745  66.251  1.00  0.00     0.097 C 
HETATM   41  C   UNL     1       6.787  34.577  67.532  1.00  0.00     0.015 C 
HETATM   42  C   UNL     1       5.428  34.443  68.213  1.00  0.00     0.002 C 
HETATM   43  C   UNL     1       4.298  34.761  67.238  1.00  0.00     0.015 C 
HETATM   44  C   UNL     1       4.410  33.923  65.963  1.00  0.00     0.097 C 
ENDBRANCH  35  39
ENDBRANCH  24  27
ENDBRANCH   1  23
TORSDOF 9
ENDMDL
MODEL 6
REMARK VINA RESULT:     -10.6      1.742     14.252
REMARK  9 active torsions:
REMARK  status: ('A' for Active; 'I' for Inactive)
REMARK    1  A    between atoms: C_4  and  C_5 
REMARK    2  A    between atoms: C_5  and  N_6 
REMARK    3  A    between atoms: C_10  and  C_11 
REMARK    4  A    between atoms: C_11  and  N_12 
REMARK       I    between atoms: N_12  and  C_13 
REMARK    5  A    between atoms: C_13  and  C_14 
REMARK    6  A    between atoms: C_14  and  C_15 
REMARK    7  A    between atoms: C_15  and  C_16 
REMARK       I    between atoms: C_16  and  N_17 
REMARK    8  A    between atoms: N_17  and  C_18 
REMARK    9  A    between atoms: C_24  and  N_25 
ROOT
HETATM    1  C   UNL     1       5.125  31.980  57.013  1.00  0.00     0.112 C 
ENDROOT
BRANCH   1   2
HETATM    2  C   UNL     1       4.974  32.421  58.464  1.00  0.00     0.112 C 
BRANCH   2   3
HETATM    3  C   UNL     1       6.288  32.520  59.203  1.00  0.00     0.218 C 
HETATM    4  N   UNL     1       6.229  33.156  60.425  1.00  0.00    -0.361 N 
HETATM    5  H   UNL     1       5.311  33.370  60.798  1.00  0.00     0.162 HD
HETATM    6  O   UNL     1       7.328  32.043  58.756  1.00  0.00    -0.274 OA
BRANCH   4   7
HETATM    7  C   UNL     1       7.323  33.068  61.375  1.00  0.00     0.127 C 
BRANCH   7   8
HETATM    8  C   UNL     1       7.119  32.018  62.487  1.00  0.00     0.006 C 
HETATM    9  C   UNL     1       5.665  31.855  62.952  1.00  0.00     0.034 C 
HETATM   10  C   UNL     1       5.138  33.079  63.693  1.00  0.00     0.235 C 
HETATM   11  N   UNL     1       6.027  33.351  64.890  1.00  0.00    -0.067 N 
HETATM   12  H   UNL     1       5.967  32.527  65.499  1.00  0.00     0.280 HD
HETATM   13  C   UNL     1       7.469  33.554  64.507  1.00  0.00     0.235 C 
HETATM   14  C   UNL     1       7.982  32.351  63.718  1.00  0.00     0.034 C 
BRANCH  11  15
HETATM   15  C   UNL     1       5.522  34.516  65.726  1.00  0.00     0.273 C 
BRANCH  15  16
HETATM   16  C   UNL     1       5.759  34.347  67.201  1.00  0.00    -0.032 A 
HETATM   17  C   UNL     1       7.009  34.651  67.767  1.00  0.00     0.015 A 
HETATM   18  C   UNL     1       7.245  34.446  69.133  1.00  0.00    -0.061 A 
HETATM   19  C   UNL     1       8.570  34.796  69.747  1.00  0.00     0.048 C 
HETATM   20  C   UNL     1       6.211  33.961  69.939  1.00  0.00     0.007 A 
HETATM   21  C   UNL     1       4.965  33.666  69.391  1.00  0.00     0.001 A 
HETATM   22  C   UNL     1       4.739  33.855  68.029  1.00  0.00     0.009 A 
ENDBRANCH  15  16
ENDBRANCH  11  15
ENDBRANCH   7   8
ENDBRANCH   4   7
ENDBRANCH   2   3
ENDBRANCH   1   2
BRANCH   1  23
HETATM   23  C   UNL     1       5.165  30.463  56.914  1.00  0.00     0.222 C 
HETATM   24  N   UNL     1       6.352  29.987  56.379  1.00  0.00    -0.327 N 
HETATM   25  H   UNL     1       7.005  30.681  56.033  1.00  0.00     0.169 HD
HETATM   26  O   UNL     1       4.213  29.771  57.263  1.00  0.00    -0.273 OA
BRANCH  24  27
HETATM   27  C   UNL     1       6.700  28.633  56.171  1.00  0.00     0.035 A 
HETATM   28  C   UNL     1       6.199  27.851  55.122  1.00  0.00     0.043 A 
HETATM   29  C   UNL     1       6.594  26.505  54.930  1.00  0.00    -0.001 A 
HETATM   30  C   UNL     1       7.524  25.956  55.837  1.00  0.00     0.044 A 
HETATM   31  C   UNL     1       6.122  25.679  53.882  1.00  0.00    -0.046 A 
HETATM   32  N   UNL     1       7.942  24.693  55.667  1.00  0.00    -0.346 N 
HETATM   33  C   UNL     1       8.014  26.724  56.901  1.00  0.00     0.033 A 
HETATM   34  H   UNL     1       8.658  24.307  56.272  1.00  0.00     0.167 HD
HETATM   35  C   UNL     1       7.530  23.875  54.691  1.00  0.00     0.083 A 
HETATM   36  C   UNL     1       6.604  24.367  53.774  1.00  0.00     0.050 A 
HETATM   37  C   UNL     1       7.597  28.050  57.071  1.00  0.00     0.032 A 
HETATM   38  C   UNL     1       5.127  26.176  52.863  1.00  0.00     0.049 C 
BRANCH  35  39
HETATM   39  N   UNL     1       8.126  22.624  54.664  1.00  0.00    -0.269 NA
HETATM   40  C   UNL     1       7.827  21.772  53.491  1.00  0.00     0.097 C 
HETATM   41  C   UNL     1       8.815  20.607  53.440  1.00  0.00     0.015 C 
HETATM   42  C   UNL     1       8.800  19.810  54.741  1.00  0.00     0.002 C 
HETATM   43  C   UNL     1       9.019  20.727  55.941  1.00  0.00     0.015 C 
HETATM   44  C   UNL     1       8.024  21.889  55.943  1.00  0.00     0.097 C 
ENDBRANCH  35  39
ENDBRANCH  24  27
ENDBRANCH   1  23
TORSDOF 9
ENDMDL
MODEL 7
REMARK VINA RESULT:     -10.5      2.911     13.608
REMARK  9 active torsions:
REMARK  status: ('A' for Active; 'I' for Inactive)
REMARK    1  A    between atoms: C_4  and  C_5 
REMARK    2  A    between atoms: C_5  and  N_6 
REMARK    3  A    between atoms: C_10  and  C_11 
REMARK    4  A    between atoms: C_11  and  N_12 
REMARK       I    between atoms: N_12  and  C_13 
REMARK    5  A    between atoms: C_13  and  C_14 
REMARK    6  A    between atoms: C_14  and  C_15 
REMARK    7  A    between atoms: C_15  and  C_16 
REMARK       I    between atoms: C_16  and  N_17 
REMARK    8  A    between atoms: N_17  and  C_18 
REMARK    9  A    between atoms: C_24  and  N_25 
ROOT
HETATM    1  C   UNL     1       5.922  31.854  57.996  1.00  0.00     0.112 C 
ENDROOT
BRANCH   1   2
HETATM    2  C   UNL     1       4.847  32.343  58.960  1.00  0.00     0.112 C 
BRANCH   2   3
HETATM    3  C   UNL     1       4.627  33.837  58.907  1.00  0.00     0.218 C 
HETATM    4  N   UNL     1       4.025  34.382  60.021  1.00  0.00    -0.361 N 
HETATM    5  H   UNL     1       3.914  33.786  60.834  1.00  0.00     0.162 HD
HETATM    6  O   UNL     1       4.984  34.518  57.949  1.00  0.00    -0.274 OA
BRANCH   4   7
HETATM    7  C   UNL     1       4.016  35.816  60.249  1.00  0.00     0.127 C 
BRANCH   7   8
HETATM    8  C   UNL     1       2.860  36.312  61.143  1.00  0.00     0.006 C 
HETATM    9  C   UNL     1       3.304  37.103  62.381  1.00  0.00     0.034 C 
HETATM   10  C   UNL     1       4.032  36.241  63.406  1.00  0.00     0.235 C 
HETATM   11  N   UNL     1       3.123  35.105  63.828  1.00  0.00    -0.067 N 
HETATM   12  H   UNL     1       2.295  35.531  64.261  1.00  0.00     0.280 HD
HETATM   13  C   UNL     1       2.670  34.261  62.665  1.00  0.00     0.235 C 
HETATM   14  C   UNL     1       1.988  35.133  61.613  1.00  0.00     0.034 C 
BRANCH  11  15
HETATM   15  C   UNL     1       3.751  34.239  64.909  1.00  0.00     0.273 C 
BRANCH  15  16
HETATM   16  C   UNL     1       5.144  33.781  64.580  1.00  0.00    -0.032 A 
HETATM   17  C   UNL     1       5.374  32.888  63.520  1.00  0.00     0.015 A 
HETATM   18  C   UNL     1       6.667  32.421  63.245  1.00  0.00    -0.061 A 
HETATM   19  C   UNL     1       6.922  31.489  62.096  1.00  0.00     0.048 C 
HETATM   20  C   UNL     1       7.737  32.878  64.020  1.00  0.00     0.007 A 
HETATM   21  C   UNL     1       7.522  33.772  65.066  1.00  0.00     0.001 A 
HETATM   22  C   UNL     1       6.233  34.220  65.349  1.00  0.00     0.009 A 
ENDBRANCH  15  16
ENDBRANCH  11  15
ENDBRANCH   7   8
ENDBRANCH   4   7
ENDBRANCH   2   3
ENDBRANCH   1   2
BRANCH   1  23
HETATM   23  C   UNL     1       5.703  30.389  57.649  1.00  0.00     0.222 C 
HETATM   24  N   UNL     1       6.860  29.759  57.216  1.00  0.00    -0.327 N 
HETATM   25  H   UNL     1       7.677  30.345  57.089  1.00  0.00     0.169 HD
HETATM   26  O   UNL     1       4.597  29.866  57.735  1.00  0.00    -0.273 OA
BRANCH  24  27
HETATM   27  C   UNL     1       6.989  28.404  56.833  1.00  0.00     0.035 A 
HETATM   28  C   UNL     1       6.547  27.895  55.605  1.00  0.00     0.043 A 
HETATM   29  C   UNL     1       6.719  26.536  55.246  1.00  0.00    -0.001 A 
HETATM   30  C   UNL     1       7.361  25.687  56.170  1.00  0.00     0.044 A 
HETATM   31  C   UNL     1       6.297  25.978  54.015  1.00  0.00    -0.046 A 
HETATM   32  N   UNL     1       7.567  24.401  55.850  1.00  0.00    -0.346 N 
HETATM   33  C   UNL     1       7.788  26.183  57.410  1.00  0.00     0.033 A 
HETATM   34  H   UNL     1       8.085  23.797  56.478  1.00  0.00     0.167 HD
HETATM   35  C   UNL     1       7.193  23.829  54.701  1.00  0.00     0.083 A 
HETATM   36  C   UNL     1       6.545  24.623  53.756  1.00  0.00     0.050 A 
HETATM   37  C   UNL     1       7.593  27.529  57.740  1.00  0.00     0.032 A 
HETATM   38  C   UNL     1       5.602  26.805  52.963  1.00  0.00     0.049 C 
BRANCH  35  39
HETATM   39  N   UNL     1       7.548  22.499  54.547  1.00  0.00    -0.269 NA
HETATM   40  C   UNL     1       8.346  21.895  55.638  1.00  0.00     0.097 C 
HETATM   41  C   UNL     1       8.348  20.374  55.489  1.00  0.00     0.015 C 
HETATM   42  C   UNL     1       8.855  19.952  54.113  1.00  0.00     0.002 C 
HETATM   43  C   UNL     1       8.076  20.660  53.007  1.00  0.00     0.015 C 
HETATM   44  C   UNL     1       8.081  22.177  53.206  1.00  0.00     0.097 C 
ENDBRANCH  35  39
ENDBRANCH  24  27
ENDBRANCH   1  23
TORSDOF 9
ENDMDL
MODEL 8
REMARK VINA RESULT:     -10.5      2.908     14.083
REMARK  9 active torsions:
REMARK  status: ('A' for Active; 'I' for Inactive)
REMARK    1  A    between atoms: C_4  and  C_5 
REMARK    2  A    between atoms: C_5  and  N_6 
REMARK    3  A    between atoms: C_10  and  C_11 
REMARK    4  A    between atoms: C_11  and  N_12 
REMARK       I    between atoms: N_12  and  C_13 
REMARK    5  A    between atoms: C_13  and  C_14 
REMARK    6  A    between atoms: C_14  and  C_15 
REMARK    7  A    between atoms: C_15  and  C_16 
REMARK       I    between atoms: C_16  and  N_17 
REMARK    8  A    between atoms: N_17  and  C_18 
REMARK    9  A    between atoms: C_24  and  N_25 
ROOT
HETATM    1  C   UNL     1       4.888  31.926  57.139  1.00  0.00     0.112 C 
ENDROOT
BRANCH   1   2
HETATM    2  C   UNL     1       4.793  32.187  58.638  1.00  0.00     0.112 C 
BRANCH   2   3
HETATM    3  C   UNL     1       6.135  32.404  59.297  1.00  0.00     0.218 C 
HETATM    4  N   UNL     1       6.087  32.948  60.563  1.00  0.00    -0.361 N 
HETATM    5  H   UNL     1       5.179  33.020  61.008  1.00  0.00     0.162 HD
HETATM    6  O   UNL     1       7.191  32.094  58.751  1.00  0.00    -0.274 OA
BRANCH   4   7
HETATM    7  C   UNL     1       7.250  32.940  61.432  1.00  0.00     0.127 C 
BRANCH   7   8
HETATM    8  C   UNL     1       7.091  32.074  62.700  1.00  0.00     0.006 C 
HETATM    9  C   UNL     1       5.641  31.710  63.048  1.00  0.00     0.034 C 
HETATM   10  C   UNL     1       4.817  32.914  63.489  1.00  0.00     0.235 C 
HETATM   11  N   UNL     1       5.483  33.553  64.691  1.00  0.00    -0.067 N 
HETATM   12  H   UNL     1       5.491  32.848  65.437  1.00  0.00     0.280 HD
HETATM   13  C   UNL     1       6.905  33.968  64.414  1.00  0.00     0.235 C 
HETATM   14  C   UNL     1       7.718  32.772  63.920  1.00  0.00     0.034 C 
BRANCH  11  15
HETATM   15  C   UNL     1       4.679  34.722  65.238  1.00  0.00     0.273 C 
BRANCH  15  16
HETATM   16  C   UNL     1       4.601  35.893  64.299  1.00  0.00    -0.032 A 
HETATM   17  C   UNL     1       5.579  36.902  64.329  1.00  0.00     0.015 A 
HETATM   18  C   UNL     1       5.480  38.020  63.489  1.00  0.00    -0.061 A 
HETATM   19  C   UNL     1       6.536  39.087  63.498  1.00  0.00     0.048 C 
HETATM   20  C   UNL     1       4.410  38.108  62.593  1.00  0.00     0.007 A 
HETATM   21  C   UNL     1       3.442  37.108  62.547  1.00  0.00     0.001 A 
HETATM   22  C   UNL     1       3.533  36.007  63.397  1.00  0.00     0.009 A 
ENDBRANCH  15  16
ENDBRANCH  11  15
ENDBRANCH   7   8
ENDBRANCH   4   7
ENDBRANCH   2   3
ENDBRANCH   1   2
BRANCH   1  23
HETATM   23  C   UNL     1       4.783  30.437  56.846  1.00  0.00     0.222 C 
HETATM   24  N   UNL     1       6.018  29.836  56.658  1.00  0.00    -0.327 N 
HETATM   25  H   UNL     1       6.825  30.450  56.640  1.00  0.00     0.169 HD
HETATM   26  O   UNL     1       3.697  29.872  56.771  1.00  0.00    -0.273 OA
BRANCH  24  27
HETATM   27  C   UNL     1       6.258  28.470  56.384  1.00  0.00     0.035 A 
HETATM   28  C   UNL     1       5.890  27.837  55.189  1.00  0.00     0.043 A 
HETATM   29  C   UNL     1       6.172  26.472  54.940  1.00  0.00    -0.001 A 
HETATM   30  C   UNL     1       6.848  25.747  55.942  1.00  0.00     0.044 A 
HETATM   31  C   UNL     1       5.828  25.793  53.747  1.00  0.00    -0.046 A 
HETATM   32  N   UNL     1       7.158  24.460  55.728  1.00  0.00    -0.346 N 
HETATM   33  C   UNL     1       7.202  26.366  57.149  1.00  0.00     0.033 A 
HETATM   34  H   UNL     1       7.701  23.945  56.412  1.00  0.00     0.167 HD
HETATM   35  C   UNL     1       6.860  23.775  54.618  1.00  0.00     0.083 A 
HETATM   36  C   UNL     1       6.183  24.445  53.599  1.00  0.00     0.050 A 
HETATM   37  C   UNL     1       6.899  27.715  57.370  1.00  0.00     0.032 A 
HETATM   38  C   UNL     1       5.104  26.484  52.618  1.00  0.00     0.049 C 
BRANCH  35  39
HETATM   39  N   UNL     1       7.317  22.468  54.576  1.00  0.00    -0.269 NA
HETATM   40  C   UNL     1       8.087  21.997  55.748  1.00  0.00     0.097 C 
HETATM   41  C   UNL     1       8.205  20.474  55.704  1.00  0.00     0.015 C 
HETATM   42  C   UNL     1       8.823  20.004  54.390  1.00  0.00     0.002 C 
HETATM   43  C   UNL     1       8.065  20.580  53.197  1.00  0.00     0.015 C 
HETATM   44  C   UNL     1       7.952  22.102  53.291  1.00  0.00     0.097 C 
ENDBRANCH  35  39
ENDBRANCH  24  27
ENDBRANCH   1  23
TORSDOF 9
ENDMDL
MODEL 9
REMARK VINA RESULT:     -10.4      2.259     14.315
REMARK  9 active torsions:
REMARK  status: ('A' for Active; 'I' for Inactive)
REMARK    1  A    between atoms: C_4  and  C_5 
REMARK    2  A    between atoms: C_5  and  N_6 
REMARK    3  A    between atoms: C_10  and  C_11 
REMARK    4  A    between atoms: C_11  and  N_12 
REMARK       I    between atoms: N_12  and  C_13 
REMARK    5  A    between atoms: C_13  and  C_14 
REMARK    6  A    between atoms: C_14  and  C_15 
REMARK    7  A    between atoms: C_15  and  C_16 
REMARK       I    between atoms: C_16  and  N_17 
REMARK    8  A    between atoms: N_17  and  C_18 
REMARK    9  A    between atoms: C_24  and  N_25 
ROOT
HETATM    1  C   UNL     1       3.907  31.337  56.674  1.00  0.00     0.112 C 
ENDROOT
BRANCH   1   2
HETATM    2  C   UNL     1       4.575  32.654  56.295  1.00  0.00     0.112 C 
BRANCH   2   3
HETATM    3  C   UNL     1       4.583  33.668  57.414  1.00  0.00     0.218 C 
HETATM    4  N   UNL     1       4.104  33.212  58.624  1.00  0.00    -0.361 N 
HETATM    5  H   UNL     1       3.928  32.218  58.714  1.00  0.00     0.162 HD
HETATM    6  O   UNL     1       5.010  34.810  57.260  1.00  0.00    -0.274 OA
BRANCH   4   7
HETATM    7  C   UNL     1       4.320  33.958  59.850  1.00  0.00     0.127 C 
BRANCH   7   8
HETATM    8  C   UNL     1       3.382  33.564  61.010  1.00  0.00     0.006 C 
HETATM    9  C   UNL     1       3.265  34.615  62.123  1.00  0.00     0.034 C 
HETATM   10  C   UNL     1       4.554  34.781  62.919  1.00  0.00     0.235 C 
HETATM   11  N   UNL     1       4.938  33.444  63.520  1.00  0.00    -0.067 N 
HETATM   12  H   UNL     1       4.176  33.172  64.152  1.00  0.00     0.280 HD
HETATM   13  C   UNL     1       5.103  32.367  62.481  1.00  0.00     0.235 C 
HETATM   14  C   UNL     1       3.830  32.236  61.648  1.00  0.00     0.034 C 
BRANCH  11  15
HETATM   15  C   UNL     1       6.179  33.544  64.395  1.00  0.00     0.273 C 
BRANCH  15  16
HETATM   16  C   UNL     1       5.880  33.884  65.828  1.00  0.00    -0.032 A 
HETATM   17  C   UNL     1       6.919  34.175  66.728  1.00  0.00     0.015 A 
HETATM   18  C   UNL     1       6.645  34.444  68.076  1.00  0.00    -0.061 A 
HETATM   19  C   UNL     1       7.750  34.782  69.035  1.00  0.00     0.048 C 
HETATM   20  C   UNL     1       5.317  34.449  68.515  1.00  0.00     0.007 A 
HETATM   21  C   UNL     1       4.278  34.173  67.629  1.00  0.00     0.001 A 
HETATM   22  C   UNL     1       4.556  33.889  66.293  1.00  0.00     0.009 A 
ENDBRANCH  15  16
ENDBRANCH  11  15
ENDBRANCH   7   8
ENDBRANCH   4   7
ENDBRANCH   2   3
ENDBRANCH   1   2
BRANCH   1  23
HETATM   23  C   UNL     1       4.880  30.178  56.517  1.00  0.00     0.222 C 
HETATM   24  N   UNL     1       4.267  29.014  56.079  1.00  0.00    -0.327 N 
HETATM   25  H   UNL     1       3.255  29.033  56.006  1.00  0.00     0.169 HD
HETATM   26  O   UNL     1       6.072  30.298  56.784  1.00  0.00    -0.273 OA
BRANCH  24  27
HETATM   27  C   UNL     1       4.895  27.774  55.824  1.00  0.00     0.035 A 
HETATM   28  C   UNL     1       5.231  27.318  54.543  1.00  0.00     0.043 A 
HETATM   29  C   UNL     1       5.886  26.080  54.330  1.00  0.00    -0.001 A 
HETATM   30  C   UNL     1       6.201  25.300  55.461  1.00  0.00     0.044 A 
HETATM   31  C   UNL     1       6.253  25.582  53.057  1.00  0.00    -0.046 A 
HETATM   32  N   UNL     1       6.848  24.136  55.298  1.00  0.00    -0.346 N 
HETATM   33  C   UNL     1       5.850  25.738  56.745  1.00  0.00     0.033 A 
HETATM   34  H   UNL     1       7.138  23.597  56.106  1.00  0.00     0.167 HD
HETATM   35  C   UNL     1       7.220  23.625  54.119  1.00  0.00     0.083 A 
HETATM   36  C   UNL     1       6.923  24.354  52.969  1.00  0.00     0.050 A 
HETATM   37  C   UNL     1       5.194  26.962  56.922  1.00  0.00     0.032 A 
HETATM   38  C   UNL     1       5.959  26.344  51.789  1.00  0.00     0.049 C 
BRANCH  35  39
HETATM   39  N   UNL     1       7.925  22.434  54.175  1.00  0.00    -0.269 NA
HETATM   40  C   UNL     1       7.680  21.466  53.083  1.00  0.00     0.097 C 
HETATM   41  C   UNL     1       8.768  20.392  53.097  1.00  0.00     0.015 C 
HETATM   42  C   UNL     1       8.850  19.706  54.458  1.00  0.00     0.002 C 
HETATM   43  C   UNL     1       9.009  20.733  55.575  1.00  0.00     0.015 C 
HETATM   44  C   UNL     1       7.914  21.800  55.511  1.00  0.00     0.097 C 
ENDBRANCH  35  39
ENDBRANCH  24  27
ENDBRANCH   1  23
TORSDOF 9
ENDMDL
MODEL 10
REMARK VINA RESULT:     -10.3      2.525      4.818
REMARK  9 active torsions:
REMARK  status: ('A' for Active; 'I' for Inactive)
REMARK    1  A    between atoms: C_4  and  C_5 
REMARK    2  A    between atoms: C_5  and  N_6 
REMARK    3  A    between atoms: C_10  and  C_11 
REMARK    4  A    between atoms: C_11  and  N_12 
REMARK       I    between atoms: N_12  and  C_13 
REMARK    5  A    between atoms: C_13  and  C_14 
REMARK    6  A    between atoms: C_14  and  C_15 
REMARK    7  A    between atoms: C_15  and  C_16 
REMARK       I    between atoms: C_16  and  N_17 
REMARK    8  A    between atoms: N_17  and  C_18 
REMARK    9  A    between atoms: C_24  and  N_25 
ROOT
HETATM    1  C   UNL     1       3.751  31.725  54.418  1.00  0.00     0.112 C 
ENDROOT
BRANCH   1   2
HETATM    2  C   UNL     1       3.395  30.375  53.807  1.00  0.00     0.112 C 
BRANCH   2   3
HETATM    3  C   UNL     1       4.454  29.320  54.021  1.00  0.00     0.218 C 
HETATM    4  N   UNL     1       4.415  28.688  55.246  1.00  0.00    -0.361 N 
HETATM    5  H   UNL     1       3.611  28.863  55.838  1.00  0.00     0.162 HD
HETATM    6  O   UNL     1       5.274  29.029  53.153  1.00  0.00    -0.274 OA
BRANCH   4   7
HETATM    7  C   UNL     1       5.159  27.466  55.488  1.00  0.00     0.127 C 
BRANCH   7   8
HETATM    8  C   UNL     1       5.386  27.143  56.980  1.00  0.00     0.006 C 
HETATM    9  C   UNL     1       6.815  27.398  57.480  1.00  0.00     0.034 C 
HETATM   10  C   UNL     1       7.833  26.435  56.881  1.00  0.00     0.235 C 
HETATM   11  N   UNL     1       7.423  25.014  57.214  1.00  0.00    -0.067 N 
HETATM   12  H   UNL     1       7.433  24.934  58.238  1.00  0.00     0.280 HD
HETATM   13  C   UNL     1       6.039  24.680  56.725  1.00  0.00     0.235 C 
HETATM   14  C   UNL     1       5.025  25.677  57.283  1.00  0.00     0.034 C 
BRANCH  11  15
HETATM   15  C   UNL     1       8.433  23.993  56.713  1.00  0.00     0.273 C 
BRANCH  15  16
HETATM   16  C   UNL     1       8.225  23.594  55.278  1.00  0.00    -0.032 A 
HETATM   17  C   UNL     1       8.243  22.241  54.901  1.00  0.00     0.015 A 
HETATM   18  C   UNL     1       8.099  21.871  53.557  1.00  0.00    -0.061 A 
HETATM   19  C   UNL     1       8.090  20.425  53.151  1.00  0.00     0.048 C 
HETATM   20  C   UNL     1       7.907  22.865  52.592  1.00  0.00     0.007 A 
HETATM   21  C   UNL     1       7.877  24.209  52.957  1.00  0.00     0.001 A 
HETATM   22  C   UNL     1       8.038  24.574  54.292  1.00  0.00     0.009 A 
ENDBRANCH  15  16
ENDBRANCH  11  15
ENDBRANCH   7   8
ENDBRANCH   4   7
ENDBRANCH   2   3
ENDBRANCH   1   2
BRANCH   1  23
HETATM   23  C   UNL     1       3.581  31.692  55.929  1.00  0.00     0.222 C 
HETATM   24  N   UNL     1       4.615  32.325  56.602  1.00  0.00    -0.327 N 
HETATM   25  H   UNL     1       5.395  32.645  56.040  1.00  0.00     0.169 HD
HETATM   26  O   UNL     1       2.625  31.132  56.456  1.00  0.00    -0.273 OA
BRANCH  24  27
HETATM   27  C   UNL     1       4.742  32.474  58.002  1.00  0.00     0.035 A 
HETATM   28  C   UNL     1       5.958  32.365  58.691  1.00  0.00     0.043 A 
HETATM   29  C   UNL     1       6.049  32.549  60.092  1.00  0.00    -0.001 A 
HETATM   30  C   UNL     1       4.865  32.853  60.795  1.00  0.00     0.044 A 
HETATM   31  C   UNL     1       7.254  32.458  60.830  1.00  0.00    -0.046 A 
HETATM   32  N   UNL     1       4.921  33.063  62.118  1.00  0.00    -0.346 N 
HETATM   33  C   UNL     1       3.642  32.943  60.117  1.00  0.00     0.033 A 
HETATM   34  H   UNL     1       4.090  33.346  62.625  1.00  0.00     0.167 HD
HETATM   35  C   UNL     1       6.033  32.993  62.859  1.00  0.00     0.083 A 
HETATM   36  C   UNL     1       7.230  32.687  62.213  1.00  0.00     0.050 A 
HETATM   37  C   UNL     1       3.582  32.745  58.733  1.00  0.00     0.032 A 
HETATM   38  C   UNL     1       8.571  32.139  60.167  1.00  0.00     0.049 C 
BRANCH  35  39
HETATM   39  N   UNL     1       5.882  33.296  64.202  1.00  0.00    -0.269 NA
HETATM   40  C   UNL     1       4.601  33.921  64.601  1.00  0.00     0.097 C 
HETATM   41  C   UNL     1       4.455  33.864  66.121  1.00  0.00     0.015 C 
HETATM   42  C   UNL     1       5.647  34.515  66.817  1.00  0.00     0.002 C 
HETATM   43  C   UNL     1       6.960  33.916  66.319  1.00  0.00     0.015 C 
HETATM   44  C   UNL     1       7.056  33.974  64.794  1.00  0.00     0.097 C 
ENDBRANCH  35  39
ENDBRANCH  24  27
ENDBRANCH   1  23
TORSDOF 9
ENDMDL
