MODEL 1
REMARK VINA RESULT:      -9.9      0.000      0.000
REMARK  5 active torsions:
REMARK  status: ('A' for Active; 'I' for Inactive)
REMARK    1  A    between atoms: C_2  and  C_3 
REMARK    2  A    between atoms: C_7  and  C_8 
REMARK    3  A    between atoms: C_8  and  N_9 
REMARK       I    between atoms: N_9  and  C_10 
REMARK       I    between atoms: C_10  and  N_11 
REMARK    4  A    between atoms: N_11  and  C_12 
REMARK    5  A    between atoms: N_18  and  C_19 
ROOT
HETATM    1  N   UNL     1       5.888  29.196  56.313  1.00  0.00    -0.337 N 
HETATM    2  C   UNL     1       4.770  28.820  55.634  1.00  0.00     0.321 C 
HETATM    3  N   UNL     1       4.581  27.498  55.382  1.00  0.00    -0.309 N 
HETATM    4  O   UNL     1       3.902  29.618  55.284  1.00  0.00    -0.247 OA
HETATM    5  H   UNL     1       6.227  28.486  56.942  1.00  0.00     0.164 HD
HETATM    6  H   UNL     1       3.637  27.344  55.043  1.00  0.00     0.170 HD
ENDROOT
BRANCH   3   7
HETATM    7  C   UNL     1       5.400  26.358  55.474  1.00  0.00     0.037 A 
HETATM    8  C   UNL     1       5.872  25.631  54.377  1.00  0.00     0.047 A 
HETATM    9  C   UNL     1       6.673  24.529  54.637  1.00  0.00     0.050 A 
HETATM   10  C   UNL     1       6.990  24.131  55.921  1.00  0.00     0.048 A 
HETATM   11  C   UNL     1       7.331  23.604  53.716  1.00  0.00     0.262 A 
HETATM   12  C   UNL     1       7.848  22.953  55.829  1.00  0.00     0.262 A 
HETATM   13  C   UNL     1       6.522  24.808  57.025  1.00  0.00     0.020 A 
HETATM   14  O   UNL     1       8.339  22.402  56.796  1.00  0.00    -0.267 OA
HETATM   15  N   UNL     1       7.974  22.669  54.491  1.00  0.00    -0.275 N 
HETATM   16  C   UNL     1       5.713  25.926  56.789  1.00  0.00     0.030 A 
HETATM   17  O   UNL     1       7.299  23.731  52.506  1.00  0.00    -0.267 OA
BRANCH  15  18
HETATM   18  C   UNL     1       8.797  21.620  53.977  1.00  0.00     0.096 A 
HETATM   19  C   UNL     1       8.541  20.178  54.335  1.00  0.00     0.028 A 
HETATM   20  C   UNL     1       8.298  20.653  52.935  1.00  0.00     0.028 A 
ENDBRANCH  15  18
ENDBRANCH   3   7
BRANCH   1  21
HETATM   21  C   UNL     1       6.021  30.543  56.831  1.00  0.00     0.183 C 
BRANCH  21  22
HETATM   22  C   UNL     1       6.790  30.580  58.097  1.00  0.00     0.047 A 
HETATM   23  N   UNL     1       7.781  29.679  58.373  1.00  0.00    -0.280 N 
HETATM   24  N   UNL     1       8.448  29.937  59.508  1.00  0.00    -0.178 NA
HETATM   25  H   UNL     1       8.054  28.876  57.806  1.00  0.00     0.189 HD
HETATM   26  C   UNL     1       7.863  31.040  59.996  1.00  0.00     0.064 A 
HETATM   27  C   UNL     1       6.803  31.466  59.151  1.00  0.00     0.058 A 
BRANCH  26  28
HETATM   28  C   UNL     1       8.379  31.716  61.258  1.00  0.00    -0.005 C 
HETATM   29  C   UNL     1       8.313  30.784  62.488  1.00  0.00     0.021 C 
HETATM   30  C   UNL     1       7.546  32.974  61.577  1.00  0.00     0.021 C 
HETATM   31  C   UNL     1       9.850  32.132  61.052  1.00  0.00     0.021 C 
ENDBRANCH  26  28
ENDBRANCH  21  22
ENDBRANCH   1  21
TORSDOF 5
ENDMDL
MODEL 2
REMARK VINA RESULT:      -9.8      0.785      1.981
REMARK  5 active torsions:
REMARK  status: ('A' for Active; 'I' for Inactive)
REMARK    1  A    between atoms: C_2  and  C_3 
REMARK    2  A    between atoms: C_7  and  C_8 
REMARK    3  A    between atoms: C_8  and  N_9 
REMARK       I    between atoms: N_9  and  C_10 
REMARK       I    between atoms: C_10  and  N_11 
REMARK    4  A    between atoms: N_11  and  C_12 
REMARK    5  A    between atoms: N_18  and  C_19 
ROOT
HETATM    1  N   UNL     1       6.108  28.966  56.082  1.00  0.00    -0.337 N 
HETATM    2  C   UNL     1       4.851  28.481  56.272  1.00  0.00     0.321 C 
HETATM    3  N   UNL     1       4.645  27.146  56.132  1.00  0.00    -0.309 N 
HETATM    4  O   UNL     1       3.906  29.191  56.614  1.00  0.00    -0.247 OA
HETATM    5  H   UNL     1       6.828  28.296  56.300  1.00  0.00     0.164 HD
HETATM    6  H   UNL     1       3.723  26.901  56.479  1.00  0.00     0.170 HD
ENDROOT
BRANCH   3   7
HETATM    7  C   UNL     1       5.409  26.088  55.607  1.00  0.00     0.037 A 
HETATM    8  C   UNL     1       6.310  25.318  56.349  1.00  0.00     0.047 A 
HETATM    9  C   UNL     1       6.987  24.307  55.684  1.00  0.00     0.050 A 
HETATM   10  C   UNL     1       6.812  24.062  54.335  1.00  0.00     0.048 A 
HETATM   11  C   UNL     1       7.953  23.330  56.184  1.00  0.00     0.262 A 
HETATM   12  C   UNL     1       7.663  22.933  53.968  1.00  0.00     0.262 A 
HETATM   13  C   UNL     1       5.952  24.817  53.569  1.00  0.00     0.020 A 
HETATM   14  O   UNL     1       7.686  22.445  52.854  1.00  0.00    -0.267 OA
HETATM   15  N   UNL     1       8.345  22.577  55.105  1.00  0.00    -0.275 N 
HETATM   16  C   UNL     1       5.255  25.842  54.218  1.00  0.00     0.030 A 
HETATM   17  O   UNL     1       8.267  23.243  57.357  1.00  0.00    -0.267 OA
BRANCH  15  18
HETATM   18  C   UNL     1       9.236  21.462  55.178  1.00  0.00     0.096 A 
HETATM   19  C   UNL     1       8.983  20.318  56.126  1.00  0.00     0.028 A 
HETATM   20  C   UNL     1       8.860  20.103  54.649  1.00  0.00     0.028 A 
ENDBRANCH  15  18
ENDBRANCH   3   7
BRANCH   1  21
HETATM   21  C   UNL     1       6.443  30.324  56.461  1.00  0.00     0.183 C 
BRANCH  21  22
HETATM   22  C   UNL     1       7.068  30.389  57.803  1.00  0.00     0.047 A 
HETATM   23  N   UNL     1       7.975  29.459  58.230  1.00  0.00    -0.280 N 
HETATM   24  N   UNL     1       8.524  29.743  59.420  1.00  0.00    -0.178 NA
HETATM   25  H   UNL     1       8.267  28.616  57.734  1.00  0.00     0.189 HD
HETATM   26  C   UNL     1       7.948  30.895  59.789  1.00  0.00     0.064 A 
HETATM   27  C   UNL     1       7.010  31.327  58.811  1.00  0.00     0.058 A 
BRANCH  26  28
HETATM   28  C   UNL     1       8.355  31.611  61.069  1.00  0.00    -0.005 C 
HETATM   29  C   UNL     1       9.827  32.077  61.033  1.00  0.00     0.021 C 
HETATM   30  C   UNL     1       8.187  30.679  62.286  1.00  0.00     0.021 C 
HETATM   31  C   UNL     1       7.464  32.855  61.266  1.00  0.00     0.021 C 
ENDBRANCH  26  28
ENDBRANCH  21  22
ENDBRANCH   1  21
TORSDOF 5
ENDMDL
MODEL 3
REMARK VINA RESULT:      -9.7      2.865      4.831
REMARK  5 active torsions:
REMARK  status: ('A' for Active; 'I' for Inactive)
REMARK    1  A    between atoms: C_2  and  C_3 
REMARK    2  A    between atoms: C_7  and  C_8 
REMARK    3  A    between atoms: C_8  and  N_9 
REMARK       I    between atoms: N_9  and  C_10 
REMARK       I    between atoms: C_10  and  N_11 
REMARK    4  A    between atoms: N_11  and  C_12 
REMARK    5  A    between atoms: N_18  and  C_19 
ROOT
HETATM    1  N   UNL     1       8.594  30.343  60.355  1.00  0.00    -0.337 N 
HETATM    2  C   UNL     1       8.684  31.292  59.384  1.00  0.00     0.321 C 
HETATM    3  N   UNL     1       8.140  31.025  58.168  1.00  0.00    -0.309 N 
HETATM    4  O   UNL     1       9.191  32.396  59.575  1.00  0.00    -0.247 OA
HETATM    5  H   UNL     1       7.783  29.753  60.258  1.00  0.00     0.164 HD
HETATM    6  H   UNL     1       8.113  31.873  57.611  1.00  0.00     0.170 HD
ENDROOT
BRANCH   3   7
HETATM    7  C   UNL     1       7.648  29.862  57.550  1.00  0.00     0.037 A 
HETATM    8  C   UNL     1       8.176  28.581  57.738  1.00  0.00     0.047 A 
HETATM    9  C   UNL     1       7.576  27.534  57.055  1.00  0.00     0.050 A 
HETATM   10  C   UNL     1       6.508  27.725  56.200  1.00  0.00     0.048 A 
HETATM   11  C   UNL     1       7.876  26.104  57.069  1.00  0.00     0.262 A 
HETATM   12  C   UNL     1       6.122  26.423  55.664  1.00  0.00     0.262 A 
HETATM   13  C   UNL     1       5.978  28.975  55.972  1.00  0.00     0.020 A 
HETATM   14  O   UNL     1       5.173  26.257  54.921  1.00  0.00    -0.267 OA
HETATM   15  N   UNL     1       7.004  25.511  56.188  1.00  0.00    -0.275 N 
HETATM   16  C   UNL     1       6.566  30.049  56.651  1.00  0.00     0.030 A 
HETATM   17  O   UNL     1       8.728  25.607  57.783  1.00  0.00    -0.267 OA
BRANCH  15  18
HETATM   18  C   UNL     1       6.921  24.103  55.956  1.00  0.00     0.096 A 
HETATM   19  C   UNL     1       7.279  23.508  54.618  1.00  0.00     0.028 A 
HETATM   20  C   UNL     1       8.151  23.245  55.807  1.00  0.00     0.028 A 
ENDBRANCH  15  18
ENDBRANCH   3   7
BRANCH   1  21
HETATM   21  C   UNL     1       8.922  30.658  61.731  1.00  0.00     0.183 C 
BRANCH  21  22
HETATM   22  C   UNL     1       7.870  31.473  62.383  1.00  0.00     0.047 A 
HETATM   23  N   UNL     1       6.548  31.127  62.338  1.00  0.00    -0.280 N 
HETATM   24  N   UNL     1       5.755  31.913  63.081  1.00  0.00    -0.178 NA
HETATM   25  H   UNL     1       6.137  30.347  61.824  1.00  0.00     0.189 HD
HETATM   26  C   UNL     1       6.589  32.812  63.623  1.00  0.00     0.064 A 
HETATM   27  C   UNL     1       7.925  32.585  63.194  1.00  0.00     0.058 A 
BRANCH  26  28
HETATM   28  C   UNL     1       6.091  33.858  64.610  1.00  0.00    -0.005 C 
HETATM   29  C   UNL     1       6.008  35.264  63.976  1.00  0.00     0.021 C 
HETATM   30  C   UNL     1       7.035  33.947  65.826  1.00  0.00     0.021 C 
HETATM   31  C   UNL     1       4.681  33.470  65.100  1.00  0.00     0.021 C 
ENDBRANCH  26  28
ENDBRANCH  21  22
ENDBRANCH   1  21
TORSDOF 5
ENDMDL
MODEL 4
REMARK VINA RESULT:      -9.4      2.616      9.388
REMARK  5 active torsions:
REMARK  status: ('A' for Active; 'I' for Inactive)
REMARK    1  A    between atoms: C_2  and  C_3 
REMARK    2  A    between atoms: C_7  and  C_8 
REMARK    3  A    between atoms: C_8  and  N_9 
REMARK       I    between atoms: N_9  and  C_10 
REMARK       I    between atoms: C_10  and  N_11 
REMARK    4  A    between atoms: N_11  and  C_12 
REMARK    5  A    between atoms: N_18  and  C_19 
ROOT
HETATM    1  N   UNL     1       6.090  27.556  56.538  1.00  0.00    -0.337 N 
HETATM    2  C   UNL     1       6.587  28.346  55.548  1.00  0.00     0.321 C 
HETATM    3  N   UNL     1       7.410  29.372  55.891  1.00  0.00    -0.309 N 
HETATM    4  O   UNL     1       6.366  28.140  54.356  1.00  0.00    -0.247 OA
HETATM    5  H   UNL     1       6.695  27.501  57.342  1.00  0.00     0.164 HD
HETATM    6  H   UNL     1       7.849  29.753  55.059  1.00  0.00     0.170 HD
ENDROOT
BRANCH   3   7
HETATM    7  C   UNL     1       7.743  29.994  57.107  1.00  0.00     0.037 A 
HETATM    8  C   UNL     1       6.848  30.725  57.894  1.00  0.00     0.047 A 
HETATM    9  C   UNL     1       7.333  31.276  59.071  1.00  0.00     0.050 A 
HETATM   10  C   UNL     1       8.651  31.140  59.463  1.00  0.00     0.048 A 
HETATM   11  C   UNL     1       6.647  32.053  60.101  1.00  0.00     0.262 A 
HETATM   12  C   UNL     1       8.814  31.829  60.740  1.00  0.00     0.262 A 
HETATM   13  C   UNL     1       9.566  30.449  58.700  1.00  0.00     0.020 A 
HETATM   14  O   UNL     1       9.855  31.839  61.369  1.00  0.00    -0.267 OA
HETATM   15  N   UNL     1       7.595  32.385  61.039  1.00  0.00    -0.275 N 
HETATM   16  C   UNL     1       9.099  29.881  57.509  1.00  0.00     0.030 A 
HETATM   17  O   UNL     1       5.452  32.286  60.077  1.00  0.00    -0.267 OA
BRANCH  15  18
HETATM   18  C   UNL     1       7.321  33.092  62.250  1.00  0.00     0.096 A 
HETATM   19  C   UNL     1       6.463  32.486  63.333  1.00  0.00     0.028 A 
HETATM   20  C   UNL     1       7.930  32.685  63.567  1.00  0.00     0.028 A 
ENDBRANCH  15  18
ENDBRANCH   3   7
BRANCH   1  21
HETATM   21  C   UNL     1       5.423  26.308  56.226  1.00  0.00     0.183 C 
BRANCH  21  22
HETATM   22  C   UNL     1       6.378  25.183  56.099  1.00  0.00     0.047 A 
HETATM   23  N   UNL     1       7.130  24.743  57.153  1.00  0.00    -0.280 N 
HETATM   24  N   UNL     1       7.847  23.642  56.885  1.00  0.00    -0.178 NA
HETATM   25  H   UNL     1       7.175  25.153  58.086  1.00  0.00     0.189 HD
HETATM   26  C   UNL     1       7.562  23.358  55.607  1.00  0.00     0.064 A 
HETATM   27  C   UNL     1       6.657  24.313  55.067  1.00  0.00     0.058 A 
BRANCH  26  28
HETATM   28  C   UNL     1       8.124  22.118  54.927  1.00  0.00    -0.005 C 
HETATM   29  C   UNL     1       7.671  22.005  53.454  1.00  0.00     0.021 C 
HETATM   30  C   UNL     1       7.661  20.843  55.659  1.00  0.00     0.021 C 
HETATM   31  C   UNL     1       9.665  22.175  54.950  1.00  0.00     0.021 C 
ENDBRANCH  26  28
ENDBRANCH  21  22
ENDBRANCH   1  21
TORSDOF 5
ENDMDL
MODEL 5
REMARK VINA RESULT:      -9.1      2.303      9.204
REMARK  5 active torsions:
REMARK  status: ('A' for Active; 'I' for Inactive)
REMARK    1  A    between atoms: C_2  and  C_3 
REMARK    2  A    between atoms: C_7  and  C_8 
REMARK    3  A    between atoms: C_8  and  N_9 
REMARK       I    between atoms: N_9  and  C_10 
REMARK       I    between atoms: C_10  and  N_11 
REMARK    4  A    between atoms: N_11  and  C_12 
REMARK    5  A    between atoms: N_18  and  C_19 
ROOT
HETATM    1  N   UNL     1       5.867  27.184  55.132  1.00  0.00    -0.337 N 
HETATM    2  C   UNL     1       6.857  27.824  54.453  1.00  0.00     0.321 C 
HETATM    3  N   UNL     1       7.476  28.876  55.051  1.00  0.00    -0.309 N 
HETATM    4  O   UNL     1       7.249  27.462  53.345  1.00  0.00    -0.247 OA
HETATM    5  H   UNL     1       5.980  27.229  56.132  1.00  0.00     0.164 HD
HETATM    6  H   UNL     1       8.302  29.134  54.523  1.00  0.00     0.170 HD
ENDROOT
BRANCH   3   7
HETATM    7  C   UNL     1       7.201  29.653  56.191  1.00  0.00     0.037 A 
HETATM    8  C   UNL     1       7.990  29.672  57.345  1.00  0.00     0.047 A 
HETATM    9  C   UNL     1       7.583  30.496  58.384  1.00  0.00     0.050 A 
HETATM   10  C   UNL     1       6.436  31.262  58.315  1.00  0.00     0.048 A 
HETATM   11  C   UNL     1       8.203  30.750  59.684  1.00  0.00     0.262 A 
HETATM   12  C   UNL     1       6.316  32.007  59.566  1.00  0.00     0.262 A 
HETATM   13  C   UNL     1       5.622  31.249  57.204  1.00  0.00     0.020 A 
HETATM   14  O   UNL     1       5.433  32.815  59.784  1.00  0.00    -0.267 OA
HETATM   15  N   UNL     1       7.375  31.622  60.350  1.00  0.00    -0.275 N 
HETATM   16  C   UNL     1       6.013  30.426  56.141  1.00  0.00     0.030 A 
HETATM   17  O   UNL     1       9.270  30.271  60.020  1.00  0.00    -0.267 OA
BRANCH  15  18
HETATM   18  C   UNL     1       7.654  32.178  61.636  1.00  0.00     0.096 A 
HETATM   19  C   UNL     1       6.732  31.946  62.806  1.00  0.00     0.028 A 
HETATM   20  C   UNL     1       8.095  31.324  62.796  1.00  0.00     0.028 A 
ENDBRANCH  15  18
ENDBRANCH   3   7
BRANCH   1  21
HETATM   21  C   UNL     1       5.349  25.914  54.663  1.00  0.00     0.183 C 
BRANCH  21  22
HETATM   22  C   UNL     1       6.276  24.794  54.948  1.00  0.00     0.047 A 
HETATM   23  N   UNL     1       6.752  24.545  56.206  1.00  0.00    -0.280 N 
HETATM   24  N   UNL     1       7.482  23.423  56.297  1.00  0.00    -0.178 NA
HETATM   25  H   UNL     1       6.592  25.106  57.043  1.00  0.00     0.189 HD
HETATM   26  C   UNL     1       7.491  22.927  55.052  1.00  0.00     0.064 A 
HETATM   27  C   UNL     1       6.762  23.768  54.167  1.00  0.00     0.058 A 
BRANCH  26  28
HETATM   28  C   UNL     1       8.160  21.598  54.735  1.00  0.00    -0.005 C 
HETATM   29  C   UNL     1       7.806  21.090  53.319  1.00  0.00     0.021 C 
HETATM   30  C   UNL     1       7.723  20.517  55.743  1.00  0.00     0.021 C 
HETATM   31  C   UNL     1       9.692  21.763  54.814  1.00  0.00     0.021 C 
ENDBRANCH  26  28
ENDBRANCH  21  22
ENDBRANCH   1  21
TORSDOF 5
ENDMDL
MODEL 6
REMARK VINA RESULT:      -9.1      3.432      6.847
REMARK  5 active torsions:
REMARK  status: ('A' for Active; 'I' for Inactive)
REMARK    1  A    between atoms: C_2  and  C_3 
REMARK    2  A    between atoms: C_7  and  C_8 
REMARK    3  A    between atoms: C_8  and  N_9 
REMARK       I    between atoms: N_9  and  C_10 
REMARK       I    between atoms: C_10  and  N_11 
REMARK    4  A    between atoms: N_11  and  C_12 
REMARK    5  A    between atoms: N_18  and  C_19 
ROOT
HETATM    1  N   UNL     1       4.557  28.442  54.513  1.00  0.00    -0.337 N 
HETATM    2  C   UNL     1       5.483  29.160  55.204  1.00  0.00     0.321 C 
HETATM    3  N   UNL     1       6.620  28.533  55.604  1.00  0.00    -0.309 N 
HETATM    4  O   UNL     1       5.357  30.361  55.439  1.00  0.00    -0.247 OA
HETATM    5  H   UNL     1       4.959  27.688  53.979  1.00  0.00     0.164 HD
HETATM    6  H   UNL     1       7.291  29.218  55.936  1.00  0.00     0.170 HD
ENDROOT
BRANCH   3   7
HETATM    7  C   UNL     1       7.026  27.188  55.665  1.00  0.00     0.037 A 
HETATM    8  C   UNL     1       7.299  26.391  54.550  1.00  0.00     0.047 A 
HETATM    9  C   UNL     1       7.692  25.081  54.779  1.00  0.00     0.050 A 
HETATM   10  C   UNL     1       7.798  24.553  56.051  1.00  0.00     0.048 A 
HETATM   11  C   UNL     1       8.068  24.030  53.835  1.00  0.00     0.262 A 
HETATM   12  C   UNL     1       8.240  23.166  55.928  1.00  0.00     0.262 A 
HETATM   13  C   UNL     1       7.514  25.301  57.172  1.00  0.00     0.020 A 
HETATM   14  O   UNL     1       8.478  22.450  56.882  1.00  0.00    -0.267 OA
HETATM   15  N   UNL     1       8.338  22.909  54.583  1.00  0.00    -0.275 N 
HETATM   16  C   UNL     1       7.117  26.628  56.966  1.00  0.00     0.030 A 
HETATM   17  O   UNL     1       8.140  24.207  52.633  1.00  0.00    -0.267 OA
BRANCH  15  18
HETATM   18  C   UNL     1       8.809  21.673  54.044  1.00  0.00     0.096 A 
HETATM   19  C   UNL     1       8.103  20.372  54.335  1.00  0.00     0.028 A 
HETATM   20  C   UNL     1       8.069  20.945  52.951  1.00  0.00     0.028 A 
ENDBRANCH  15  18
ENDBRANCH   3   7
BRANCH   1  21
HETATM   21  C   UNL     1       3.454  29.104  53.845  1.00  0.00     0.183 C 
BRANCH  21  22
HETATM   22  C   UNL     1       3.388  28.762  52.405  1.00  0.00     0.047 A 
HETATM   23  N   UNL     1       2.241  28.904  51.675  1.00  0.00    -0.280 N 
HETATM   24  N   UNL     1       2.397  28.661  50.365  1.00  0.00    -0.178 NA
HETATM   25  H   UNL     1       1.323  29.182  52.025  1.00  0.00     0.189 HD
HETATM   26  C   UNL     1       3.692  28.338  50.237  1.00  0.00     0.064 A 
HETATM   27  C   UNL     1       4.348  28.369  51.498  1.00  0.00     0.058 A 
BRANCH  26  28
HETATM   28  C   UNL     1       4.307  28.059  48.873  1.00  0.00    -0.005 C 
HETATM   29  C   UNL     1       3.436  28.602  47.719  1.00  0.00     0.021 C 
HETATM   30  C   UNL     1       4.478  26.542  48.658  1.00  0.00     0.021 C 
HETATM   31  C   UNL     1       5.691  28.735  48.787  1.00  0.00     0.021 C 
ENDBRANCH  26  28
ENDBRANCH  21  22
ENDBRANCH   1  21
TORSDOF 5
ENDMDL
MODEL 7
REMARK VINA RESULT:      -8.8      4.016      7.525
REMARK  5 active torsions:
REMARK  status: ('A' for Active; 'I' for Inactive)
REMARK    1  A    between atoms: C_2  and  C_3 
REMARK    2  A    between atoms: C_7  and  C_8 
REMARK    3  A    between atoms: C_8  and  N_9 
REMARK       I    between atoms: N_9  and  C_10 
REMARK       I    between atoms: C_10  and  N_11 
REMARK    4  A    between atoms: N_11  and  C_12 
REMARK    5  A    between atoms: N_18  and  C_19 
ROOT
HETATM    1  N   UNL     1       4.568  28.316  53.727  1.00  0.00    -0.337 N 
HETATM    2  C   UNL     1       5.437  28.876  54.611  1.00  0.00     0.321 C 
HETATM    3  N   UNL     1       6.581  28.205  54.906  1.00  0.00    -0.309 N 
HETATM    4  O   UNL     1       5.256  29.984  55.115  1.00  0.00    -0.247 OA
HETATM    5  H   UNL     1       5.019  27.721  53.051  1.00  0.00     0.164 HD
HETATM    6  H   UNL     1       7.211  28.811  55.422  1.00  0.00     0.170 HD
ENDROOT
BRANCH   3   7
HETATM    7  C   UNL     1       7.036  26.896  54.669  1.00  0.00     0.037 A 
HETATM    8  C   UNL     1       7.408  25.993  55.669  1.00  0.00     0.047 A 
HETATM    9  C   UNL     1       7.834  24.735  55.269  1.00  0.00     0.050 A 
HETATM   10  C   UNL     1       7.917  24.370  53.940  1.00  0.00     0.048 A 
HETATM   11  C   UNL     1       8.252  23.583  56.067  1.00  0.00     0.262 A 
HETATM   12  C   UNL     1       8.388  22.989  53.880  1.00  0.00     0.262 A 
HETATM   13  C   UNL     1       7.583  25.242  52.927  1.00  0.00     0.020 A 
HETATM   14  O   UNL     1       8.510  22.365  52.843  1.00  0.00    -0.267 OA
HETATM   15  N   UNL     1       8.609  22.598  55.178  1.00  0.00    -0.275 N 
HETATM   16  C   UNL     1       7.148  26.517  53.306  1.00  0.00     0.030 A 
HETATM   17  O   UNL     1       8.224  23.568  57.284  1.00  0.00    -0.267 OA
BRANCH  15  18
HETATM   18  C   UNL     1       9.015  21.281  55.551  1.00  0.00     0.096 A 
HETATM   19  C   UNL     1       8.051  20.317  56.195  1.00  0.00     0.028 A 
HETATM   20  C   UNL     1       8.546  20.059  54.805  1.00  0.00     0.028 A 
ENDBRANCH  15  18
ENDBRANCH   3   7
BRANCH   1  21
HETATM   21  C   UNL     1       3.468  29.086  53.182  1.00  0.00     0.183 C 
BRANCH  21  22
HETATM   22  C   UNL     1       3.205  28.754  51.762  1.00  0.00     0.047 A 
HETATM   23  N   UNL     1       1.965  28.889  51.200  1.00  0.00    -0.280 N 
HETATM   24  N   UNL     1       1.940  28.658  49.879  1.00  0.00    -0.178 NA
HETATM   25  H   UNL     1       1.103  29.155  51.676  1.00  0.00     0.189 HD
HETATM   26  C   UNL     1       3.207  28.351  49.569  1.00  0.00     0.064 A 
HETATM   27  C   UNL     1       4.032  28.379  50.726  1.00  0.00     0.058 A 
BRANCH  26  28
HETATM   28  C   UNL     1       3.629  28.088  48.130  1.00  0.00    -0.005 C 
HETATM   29  C   UNL     1       2.416  27.892  47.194  1.00  0.00     0.021 C 
HETATM   30  C   UNL     1       4.499  26.818  48.044  1.00  0.00     0.021 C 
HETATM   31  C   UNL     1       4.446  29.289  47.609  1.00  0.00     0.021 C 
ENDBRANCH  26  28
ENDBRANCH  21  22
ENDBRANCH   1  21
TORSDOF 5
ENDMDL
MODEL 8
REMARK VINA RESULT:      -8.5      4.438      8.578
REMARK  5 active torsions:
REMARK  status: ('A' for Active; 'I' for Inactive)
REMARK    1  A    between atoms: C_2  and  C_3 
REMARK    2  A    between atoms: C_7  and  C_8 
REMARK    3  A    between atoms: C_8  and  N_9 
REMARK       I    between atoms: N_9  and  C_10 
REMARK       I    between atoms: C_10  and  N_11 
REMARK    4  A    between atoms: N_11  and  C_12 
REMARK    5  A    between atoms: N_18  and  C_19 
ROOT
HETATM    1  N   UNL     1       5.601  27.184  54.663  1.00  0.00    -0.337 N 
HETATM    2  C   UNL     1       5.885  28.507  54.808  1.00  0.00     0.321 C 
HETATM    3  N   UNL     1       5.322  29.388  53.941  1.00  0.00    -0.309 N 
HETATM    4  O   UNL     1       6.589  28.942  55.719  1.00  0.00    -0.247 OA
HETATM    5  H   UNL     1       4.695  27.017  54.255  1.00  0.00     0.164 HD
HETATM    6  H   UNL     1       5.465  30.336  54.273  1.00  0.00     0.170 HD
ENDROOT
BRANCH   3   7
HETATM    7  C   UNL     1       4.631  29.256  52.723  1.00  0.00     0.037 A 
HETATM    8  C   UNL     1       4.964  28.345  51.717  1.00  0.00     0.047 A 
HETATM    9  C   UNL     1       4.179  28.338  50.574  1.00  0.00     0.050 A 
HETATM   10  C   UNL     1       3.115  29.203  50.402  1.00  0.00     0.048 A 
HETATM   11  C   UNL     1       4.257  27.496  49.382  1.00  0.00     0.262 A 
HETATM   12  C   UNL     1       2.510  28.919  49.103  1.00  0.00     0.262 A 
HETATM   13  C   UNL     1       2.774  30.130  51.361  1.00  0.00     0.020 A 
HETATM   14  O   UNL     1       1.514  29.482  48.690  1.00  0.00    -0.267 OA
HETATM   15  N   UNL     1       3.265  27.925  48.533  1.00  0.00    -0.275 N 
HETATM   16  C   UNL     1       3.550  30.155  52.525  1.00  0.00     0.030 A 
HETATM   17  O   UNL     1       5.054  26.584  49.260  1.00  0.00    -0.267 OA
BRANCH  15  18
HETATM   18  C   UNL     1       2.957  27.316  47.277  1.00  0.00     0.096 A 
HETATM   19  C   UNL     1       2.671  25.839  47.172  1.00  0.00     0.028 A 
HETATM   20  C   UNL     1       1.570  26.830  46.945  1.00  0.00     0.028 A 
ENDBRANCH  15  18
ENDBRANCH   3   7
BRANCH   1  21
HETATM   21  C   UNL     1       5.959  26.232  55.695  1.00  0.00     0.183 C 
BRANCH  21  22
HETATM   22  C   UNL     1       6.388  24.932  55.130  1.00  0.00     0.047 A 
HETATM   23  N   UNL     1       6.279  24.646  53.796  1.00  0.00    -0.280 N 
HETATM   24  N   UNL     1       6.826  23.472  53.447  1.00  0.00    -0.178 NA
HETATM   25  H   UNL     1       5.852  25.232  53.078  1.00  0.00     0.189 HD
HETATM   26  C   UNL     1       7.299  22.968  54.595  1.00  0.00     0.064 A 
HETATM   27  C   UNL     1       7.027  23.844  55.682  1.00  0.00     0.058 A 
BRANCH  26  28
HETATM   28  C   UNL     1       8.073  21.658  54.624  1.00  0.00    -0.005 C 
HETATM   29  C   UNL     1       7.598  20.726  55.761  1.00  0.00     0.021 C 
HETATM   30  C   UNL     1       9.577  21.923  54.833  1.00  0.00     0.021 C 
HETATM   31  C   UNL     1       7.878  20.917  53.285  1.00  0.00     0.021 C 
ENDBRANCH  26  28
ENDBRANCH  21  22
ENDBRANCH   1  21
TORSDOF 5
ENDMDL
MODEL 9
REMARK VINA RESULT:      -8.4      3.404      5.573
REMARK  5 active torsions:
REMARK  status: ('A' for Active; 'I' for Inactive)
REMARK    1  A    between atoms: C_2  and  C_3 
REMARK    2  A    between atoms: C_7  and  C_8 
REMARK    3  A    between atoms: C_8  and  N_9 
REMARK       I    between atoms: N_9  and  C_10 
REMARK       I    between atoms: C_10  and  N_11 
REMARK    4  A    between atoms: N_11  and  C_12 
REMARK    5  A    between atoms: N_18  and  C_19 
ROOT
HETATM    1  N   UNL     1       7.315  31.064  61.024  1.00  0.00    -0.337 N 
HETATM    2  C   UNL     1       8.140  31.716  60.160  1.00  0.00     0.321 C 
HETATM    3  N   UNL     1       8.100  31.374  58.846  1.00  0.00    -0.309 N 
HETATM    4  O   UNL     1       8.882  32.633  60.509  1.00  0.00    -0.247 OA
HETATM    5  H   UNL     1       6.467  30.737  60.590  1.00  0.00     0.164 HD
HETATM    6  H   UNL     1       8.617  32.053  58.298  1.00  0.00     0.170 HD
ENDROOT
BRANCH   3   7
HETATM    7  C   UNL     1       7.529  30.307  58.129  1.00  0.00     0.037 A 
HETATM    8  C   UNL     1       7.948  28.977  58.220  1.00  0.00     0.047 A 
HETATM    9  C   UNL     1       7.279  28.040  57.448  1.00  0.00     0.050 A 
HETATM   10  C   UNL     1       6.246  28.384  56.597  1.00  0.00     0.048 A 
HETATM   11  C   UNL     1       7.463  26.593  57.350  1.00  0.00     0.262 A 
HETATM   12  C   UNL     1       5.767  27.164  55.953  1.00  0.00     0.262 A 
HETATM   13  C   UNL     1       5.823  29.688  56.464  1.00  0.00     0.020 A 
HETATM   14  O   UNL     1       4.823  27.136  55.187  1.00  0.00    -0.267 OA
HETATM   15  N   UNL     1       6.563  26.145  56.413  1.00  0.00    -0.275 N 
HETATM   16  C   UNL     1       6.483  30.652  57.235  1.00  0.00     0.030 A 
HETATM   17  O   UNL     1       8.258  25.973  58.033  1.00  0.00    -0.267 OA
BRANCH  15  18
HETATM   18  C   UNL     1       6.372  24.772  56.068  1.00  0.00     0.096 A 
HETATM   19  C   UNL     1       6.648  24.269  54.673  1.00  0.00     0.028 A 
HETATM   20  C   UNL     1       7.532  23.846  55.806  1.00  0.00     0.028 A 
ENDBRANCH  15  18
ENDBRANCH   3   7
BRANCH   1  21
HETATM   21  C   UNL     1       7.126  31.550  62.376  1.00  0.00     0.183 C 
BRANCH  21  22
HETATM   22  C   UNL     1       6.229  32.728  62.425  1.00  0.00     0.047 A 
HETATM   23  N   UNL     1       6.684  33.998  62.201  1.00  0.00    -0.280 N 
HETATM   24  N   UNL     1       5.713  34.924  62.168  1.00  0.00    -0.178 NA
HETATM   25  H   UNL     1       7.651  34.284  62.049  1.00  0.00     0.189 HD
HETATM   26  C   UNL     1       4.585  34.234  62.388  1.00  0.00     0.064 A 
HETATM   27  C   UNL     1       4.866  32.853  62.576  1.00  0.00     0.058 A 
BRANCH  26  28
HETATM   28  C   UNL     1       3.224  34.913  62.355  1.00  0.00    -0.005 C 
HETATM   29  C   UNL     1       3.277  36.354  62.907  1.00  0.00     0.021 C 
HETATM   30  C   UNL     1       2.205  34.124  63.201  1.00  0.00     0.021 C 
HETATM   31  C   UNL     1       2.718  34.976  60.898  1.00  0.00     0.021 C 
ENDBRANCH  26  28
ENDBRANCH  21  22
ENDBRANCH   1  21
TORSDOF 5
ENDMDL
MODEL 10
REMARK VINA RESULT:      -8.3      3.812      7.610
REMARK  5 active torsions:
REMARK  status: ('A' for Active; 'I' for Inactive)
REMARK    1  A    between atoms: C_2  and  C_3 
REMARK    2  A    between atoms: C_7  and  C_8 
REMARK    3  A    between atoms: C_8  and  N_9 
REMARK       I    between atoms: N_9  and  C_10 
REMARK       I    between atoms: C_10  and  N_11 
REMARK    4  A    between atoms: N_11  and  C_12 
REMARK    5  A    between atoms: N_18  and  C_19 
ROOT
HETATM    1  N   UNL     1       6.528  27.524  55.914  1.00  0.00    -0.337 N 
HETATM    2  C   UNL     1       5.317  27.903  56.405  1.00  0.00     0.321 C 
HETATM    3  N   UNL     1       4.303  28.123  55.528  1.00  0.00    -0.309 N 
HETATM    4  O   UNL     1       5.088  28.006  57.610  1.00  0.00    -0.247 OA
HETATM    5  H   UNL     1       6.461  27.015  55.047  1.00  0.00     0.164 HD
HETATM    6  H   UNL     1       3.427  28.213  56.031  1.00  0.00     0.170 HD
ENDROOT
BRANCH   3   7
HETATM    7  C   UNL     1       4.232  28.263  54.130  1.00  0.00     0.037 A 
HETATM    8  C   UNL     1       4.618  27.280  53.215  1.00  0.00     0.047 A 
HETATM    9  C   UNL     1       4.484  27.573  51.866  1.00  0.00     0.050 A 
HETATM   10  C   UNL     1       4.009  28.790  51.417  1.00  0.00     0.048 A 
HETATM   11  C   UNL     1       4.769  26.754  50.690  1.00  0.00     0.262 A 
HETATM   12  C   UNL     1       3.989  28.756  49.957  1.00  0.00     0.262 A 
HETATM   13  C   UNL     1       3.642  29.791  52.290  1.00  0.00     0.020 A 
HETATM   14  O   UNL     1       3.566  29.666  49.270  1.00  0.00    -0.267 OA
HETATM   15  N   UNL     1       4.495  27.533  49.592  1.00  0.00    -0.275 N 
HETATM   16  C   UNL     1       3.767  29.518  53.657  1.00  0.00     0.030 A 
HETATM   17  O   UNL     1       5.140  25.596  50.756  1.00  0.00    -0.267 OA
BRANCH  15  18
HETATM   18  C   UNL     1       4.579  27.082  48.239  1.00  0.00     0.096 A 
HETATM   19  C   UNL     1       3.803  25.879  47.765  1.00  0.00     0.028 A 
HETATM   20  C   UNL     1       3.436  27.244  47.270  1.00  0.00     0.028 A 
ENDBRANCH  15  18
ENDBRANCH   3   7
BRANCH   1  21
HETATM   21  C   UNL     1       7.565  27.033  56.798  1.00  0.00     0.183 C 
BRANCH  21  22
HETATM   22  C   UNL     1       7.905  25.617  56.527  1.00  0.00     0.047 A 
HETATM   23  N   UNL     1       8.211  24.737  57.528  1.00  0.00    -0.280 N 
HETATM   24  N   UNL     1       8.374  23.473  57.109  1.00  0.00    -0.178 NA
HETATM   25  H   UNL     1       8.305  24.949  58.522  1.00  0.00     0.189 HD
HETATM   26  C   UNL     1       8.177  23.532  55.785  1.00  0.00     0.064 A 
HETATM   27  C   UNL     1       7.900  24.864  55.373  1.00  0.00     0.058 A 
BRANCH  26  28
HETATM   28  C   UNL     1       8.199  22.276  54.925  1.00  0.00    -0.005 C 
HETATM   29  C   UNL     1       7.480  22.483  53.573  1.00  0.00     0.021 C 
HETATM   30  C   UNL     1       7.503  21.110  55.653  1.00  0.00     0.021 C 
HETATM   31  C   UNL     1       9.661  21.880  54.633  1.00  0.00     0.021 C 
ENDBRANCH  26  28
ENDBRANCH  21  22
ENDBRANCH   1  21
TORSDOF 5
ENDMDL
