MODEL 1
REMARK VINA RESULT:      -8.7      0.000      0.000
REMARK  6 active torsions:
REMARK  status: ('A' for Active; 'I' for Inactive)
REMARK    1  A    between atoms: C_2  and  C_3 
REMARK    2  A    between atoms: C_2  and  C_18 
REMARK       I    between atoms: C_3  and  N_4 
REMARK    3  A    between atoms: N_4  and  C_5 
REMARK    4  A    between atoms: C_9  and  C_10 
REMARK    5  A    between atoms: C_18  and  C_19 
REMARK    6  A    between atoms: C_22  and  O_23 
ROOT
HETATM    1  C   UNL     1       7.434  27.782  54.589  1.00  0.00     0.227 C 
HETATM    2  N   UNL     1       6.970  27.805  55.892  1.00  0.00    -0.312 N 
HETATM    3  O   UNL     1       8.399  28.442  54.196  1.00  0.00    -0.273 OA
HETATM    4  H   UNL     1       6.144  27.284  56.153  1.00  0.00     0.170 HD
ENDROOT
BRANCH   2   5
HETATM    5  C   UNL     1       7.588  28.555  56.871  1.00  0.00     0.126 A 
HETATM    6  N   UNL     1       8.937  28.575  57.100  1.00  0.00    -0.262 N 
HETATM    7  H   UNL     1       9.648  28.073  56.574  1.00  0.00     0.191 HD
HETATM    8  N   UNL     1       9.293  29.324  58.159  1.00  0.00    -0.172 NA
HETATM    9  C   UNL     1       8.139  29.855  58.599  1.00  0.00     0.092 A 
HETATM   10  C   UNL     1       7.044  29.395  57.811  1.00  0.00     0.084 A 
BRANCH   9  11
HETATM   11  C   UNL     1       8.101  30.751  59.751  1.00  0.00     0.012 A 
HETATM   12  C   UNL     1       7.111  31.720  59.894  1.00  0.00     0.130 A 
HETATM   13  N   UNL     1       7.007  32.566  60.949  1.00  0.00    -0.272 NA
HETATM   14  C   UNL     1       7.946  32.446  61.912  1.00  0.00     0.116 A 
HETATM   15  C   UNL     1       8.978  31.524  61.869  1.00  0.00     0.020 A 
HETATM   16  C   UNL     1       9.055  30.668  60.770  1.00  0.00     0.017 A 
ENDBRANCH   9  11
ENDBRANCH   2   5
BRANCH   1  17
HETATM   17  C   UNL     1       6.760  26.766  53.666  1.00  0.00     0.078 C 
HETATM   18  C   UNL     1       5.920  27.527  52.638  1.00  0.00     0.020 C 
BRANCH  17  19
HETATM   19  C   UNL     1       7.712  25.791  52.954  1.00  0.00     0.052 C 
BRANCH  19  20
HETATM   20  C   UNL     1       7.753  24.395  53.523  1.00  0.00    -0.057 A 
HETATM   21  C   UNL     1       7.485  24.157  54.876  1.00  0.00     0.010 A 
HETATM   22  C   UNL     1       7.484  22.853  55.378  1.00  0.00     0.037 A 
HETATM   23  C   UNL     1       7.740  21.765  54.543  1.00  0.00     0.068 A 
HETATM   24  C   UNL     1       8.007  21.994  53.195  1.00  0.00     0.037 A 
HETATM   25  C   UNL     1       8.011  23.299  52.688  1.00  0.00     0.010 A 
BRANCH  23  26
HETATM   26  O   UNL     1       7.692  20.546  55.159  1.00  0.00    -0.356 OA
HETATM   27  C   UNL     1       8.287  20.452  56.447  1.00  0.00     0.210 C 
ENDBRANCH  23  26
ENDBRANCH  19  20
ENDBRANCH  17  19
ENDBRANCH   1  17
TORSDOF 6
ENDMDL
MODEL 2
REMARK VINA RESULT:      -8.7      2.818      5.086
REMARK  6 active torsions:
REMARK  status: ('A' for Active; 'I' for Inactive)
REMARK    1  A    between atoms: C_2  and  C_3 
REMARK    2  A    between atoms: C_2  and  C_18 
REMARK       I    between atoms: C_3  and  N_4 
REMARK    3  A    between atoms: N_4  and  C_5 
REMARK    4  A    between atoms: C_9  and  C_10 
REMARK    5  A    between atoms: C_18  and  C_19 
REMARK    6  A    between atoms: C_22  and  O_23 
ROOT
HETATM    1  C   UNL     1       9.230  30.879  58.469  1.00  0.00     0.227 C 
HETATM    2  N   UNL     1       8.380  30.483  59.486  1.00  0.00    -0.312 N 
HETATM    3  O   UNL     1       9.913  31.905  58.511  1.00  0.00    -0.273 OA
HETATM    4  H   UNL     1       7.803  29.658  59.384  1.00  0.00     0.170 HD
ENDROOT
BRANCH   2   5
HETATM    5  C   UNL     1       8.261  31.203  60.657  1.00  0.00     0.126 A 
HETATM    6  N   UNL     1       9.312  31.739  61.350  1.00  0.00    -0.262 N 
HETATM    7  H   UNL     1      10.293  31.701  61.086  1.00  0.00     0.191 HD
HETATM    8  N   UNL     1       8.951  32.332  62.502  1.00  0.00    -0.172 NA
HETATM    9  C   UNL     1       7.611  32.227  62.530  1.00  0.00     0.092 A 
HETATM   10  C   UNL     1       7.141  31.524  61.384  1.00  0.00     0.084 A 
BRANCH   9  11
HETATM   11  C   UNL     1       6.825  32.765  63.637  1.00  0.00     0.012 A 
HETATM   12  C   UNL     1       5.443  32.610  63.698  1.00  0.00     0.130 A 
HETATM   13  N   UNL     1       4.660  33.066  64.707  1.00  0.00    -0.272 NA
HETATM   14  C   UNL     1       5.287  33.720  65.708  1.00  0.00     0.116 A 
HETATM   15  C   UNL     1       6.655  33.938  65.746  1.00  0.00     0.020 A 
HETATM   16  C   UNL     1       7.431  33.454  64.692  1.00  0.00     0.017 A 
ENDBRANCH   9  11
ENDBRANCH   2   5
BRANCH   1  17
HETATM   17  C   UNL     1       9.390  29.885  57.318  1.00  0.00     0.078 C 
HETATM   18  C   UNL     1      10.882  29.726  57.019  1.00  0.00     0.020 C 
BRANCH  17  19
HETATM   19  C   UNL     1       8.746  28.508  57.544  1.00  0.00     0.052 C 
BRANCH  19  20
HETATM   20  C   UNL     1       8.176  27.850  56.312  1.00  0.00    -0.057 A 
HETATM   21  C   UNL     1       7.761  26.513  56.333  1.00  0.00     0.010 A 
HETATM   22  C   UNL     1       7.194  25.932  55.196  1.00  0.00     0.037 A 
HETATM   23  C   UNL     1       7.023  26.670  54.024  1.00  0.00     0.068 A 
HETATM   24  C   UNL     1       7.435  28.001  53.996  1.00  0.00     0.037 A 
HETATM   25  C   UNL     1       8.004  28.587  55.133  1.00  0.00     0.010 A 
BRANCH  23  26
HETATM   26  O   UNL     1       6.443  25.985  52.994  1.00  0.00    -0.356 OA
HETATM   27  C   UNL     1       5.625  24.874  53.339  1.00  0.00     0.210 C 
ENDBRANCH  23  26
ENDBRANCH  19  20
ENDBRANCH  17  19
ENDBRANCH   1  17
TORSDOF 6
ENDMDL
MODEL 3
REMARK VINA RESULT:      -8.6      6.299      9.462
REMARK  6 active torsions:
REMARK  status: ('A' for Active; 'I' for Inactive)
REMARK    1  A    between atoms: C_2  and  C_3 
REMARK    2  A    between atoms: C_2  and  C_18 
REMARK       I    between atoms: C_3  and  N_4 
REMARK    3  A    between atoms: N_4  and  C_5 
REMARK    4  A    between atoms: C_9  and  C_10 
REMARK    5  A    between atoms: C_18  and  C_19 
REMARK    6  A    between atoms: C_22  and  O_23 
ROOT
HETATM    1  C   UNL     1       5.832  26.655  51.449  1.00  0.00     0.227 C 
HETATM    2  N   UNL     1       5.363  26.057  50.293  1.00  0.00    -0.312 N 
HETATM    3  O   UNL     1       5.750  27.866  51.672  1.00  0.00    -0.273 OA
HETATM    4  H   UNL     1       5.497  25.068  50.134  1.00  0.00     0.170 HD
ENDROOT
BRANCH   2   5
HETATM    5  C   UNL     1       4.727  26.782  49.305  1.00  0.00     0.126 A 
HETATM    6  N   UNL     1       5.340  27.703  48.500  1.00  0.00    -0.262 N 
HETATM    7  H   UNL     1       6.326  27.950  48.505  1.00  0.00     0.191 HD
HETATM    8  N   UNL     1       4.496  28.334  47.664  1.00  0.00    -0.172 NA
HETATM    9  C   UNL     1       3.302  27.762  47.896  1.00  0.00     0.092 A 
HETATM   10  C   UNL     1       3.409  26.779  48.921  1.00  0.00     0.084 A 
BRANCH   9  11
HETATM   11  C   UNL     1       2.104  28.173  47.168  1.00  0.00     0.012 A 
HETATM   12  C   UNL     1       1.918  29.486  46.746  1.00  0.00     0.130 A 
HETATM   13  N   UNL     1       0.840  29.926  46.049  1.00  0.00    -0.272 NA
HETATM   14  C   UNL     1      -0.108  29.008  45.763  1.00  0.00     0.116 A 
HETATM   15  C   UNL     1      -0.029  27.677  46.140  1.00  0.00     0.020 A 
HETATM   16  C   UNL     1       1.093  27.259  46.855  1.00  0.00     0.017 A 
ENDBRANCH   9  11
ENDBRANCH   2   5
BRANCH   1  17
HETATM   17  C   UNL     1       6.345  25.699  52.525  1.00  0.00     0.078 C 
HETATM   18  C   UNL     1       5.188  24.802  52.969  1.00  0.00     0.020 C 
BRANCH  17  19
HETATM   19  C   UNL     1       7.554  24.841  52.121  1.00  0.00     0.052 C 
BRANCH  19  20
HETATM   20  C   UNL     1       7.929  23.751  53.094  1.00  0.00    -0.057 A 
HETATM   21  C   UNL     1       8.232  24.045  54.428  1.00  0.00     0.010 A 
HETATM   22  C   UNL     1       8.535  23.019  55.327  1.00  0.00     0.037 A 
HETATM   23  C   UNL     1       8.532  21.685  54.917  1.00  0.00     0.068 A 
HETATM   24  C   UNL     1       8.232  21.384  53.591  1.00  0.00     0.037 A 
HETATM   25  C   UNL     1       7.929  22.409  52.686  1.00  0.00     0.010 A 
BRANCH  23  26
HETATM   26  O   UNL     1       8.830  20.783  55.900  1.00  0.00    -0.356 OA
HETATM   27  C   UNL     1       8.444  21.124  57.225  1.00  0.00     0.210 C 
ENDBRANCH  23  26
ENDBRANCH  19  20
ENDBRANCH  17  19
ENDBRANCH   1  17
TORSDOF 6
ENDMDL
MODEL 4
REMARK VINA RESULT:      -8.5      2.893      9.713
REMARK  6 active torsions:
REMARK  status: ('A' for Active; 'I' for Inactive)
REMARK    1  A    between atoms: C_2  and  C_3 
REMARK    2  A    between atoms: C_2  and  C_18 
REMARK       I    between atoms: C_3  and  N_4 
REMARK    3  A    between atoms: N_4  and  C_5 
REMARK    4  A    between atoms: C_9  and  C_10 
REMARK    5  A    between atoms: C_18  and  C_19 
REMARK    6  A    between atoms: C_22  and  O_23 
ROOT
HETATM    1  C   UNL     1       9.023  29.050  57.300  1.00  0.00     0.227 C 
HETATM    2  N   UNL     1       8.315  27.911  57.639  1.00  0.00    -0.312 N 
HETATM    3  O   UNL     1       9.430  29.288  56.160  1.00  0.00    -0.273 OA
HETATM    4  H   UNL     1       8.046  27.738  58.598  1.00  0.00     0.170 HD
ENDROOT
BRANCH   2   5
HETATM    5  C   UNL     1       7.976  26.959  56.698  1.00  0.00     0.126 A 
HETATM    6  N   UNL     1       7.095  27.161  55.671  1.00  0.00    -0.262 N 
HETATM    7  H   UNL     1       6.606  28.026  55.453  1.00  0.00     0.191 HD
HETATM    8  N   UNL     1       6.870  26.060  54.931  1.00  0.00    -0.172 NA
HETATM    9  C   UNL     1       7.676  25.126  55.463  1.00  0.00     0.092 A 
HETATM   10  C   UNL     1       8.390  25.656  56.577  1.00  0.00     0.084 A 
BRANCH   9  11
HETATM   11  C   UNL     1       7.730  23.769  54.927  1.00  0.00     0.012 A 
HETATM   12  C   UNL     1       7.677  22.651  55.755  1.00  0.00     0.130 A 
HETATM   13  N   UNL     1       7.701  21.366  55.319  1.00  0.00    -0.272 NA
HETATM   14  C   UNL     1       7.790  21.185  53.984  1.00  0.00     0.116 A 
HETATM   15  C   UNL     1       7.856  22.224  53.070  1.00  0.00     0.020 A 
HETATM   16  C   UNL     1       7.828  23.532  53.552  1.00  0.00     0.017 A 
ENDBRANCH   9  11
ENDBRANCH   2   5
BRANCH   1  17
HETATM   17  C   UNL     1       9.163  30.094  58.409  1.00  0.00     0.078 C 
HETATM   18  C   UNL     1      10.186  31.141  57.963  1.00  0.00     0.020 C 
BRANCH  17  19
HETATM   19  C   UNL     1       7.854  30.780  58.834  1.00  0.00     0.052 C 
BRANCH  19  20
HETATM   20  C   UNL     1       7.840  31.334  60.237  1.00  0.00    -0.057 A 
HETATM   21  C   UNL     1       8.664  30.799  61.234  1.00  0.00     0.010 A 
HETATM   22  C   UNL     1       8.671  31.352  62.517  1.00  0.00     0.037 A 
HETATM   23  C   UNL     1       7.868  32.450  62.827  1.00  0.00     0.068 A 
HETATM   24  C   UNL     1       7.046  32.988  61.841  1.00  0.00     0.037 A 
HETATM   25  C   UNL     1       7.034  32.437  60.554  1.00  0.00     0.010 A 
BRANCH  23  26
HETATM   26  O   UNL     1       7.984  32.899  64.113  1.00  0.00    -0.356 OA
HETATM   27  C   UNL     1       6.829  33.488  64.696  1.00  0.00     0.210 C 
ENDBRANCH  23  26
ENDBRANCH  19  20
ENDBRANCH  17  19
ENDBRANCH   1  17
TORSDOF 6
ENDMDL
MODEL 5
REMARK VINA RESULT:      -8.4      2.851      7.779
REMARK  6 active torsions:
REMARK  status: ('A' for Active; 'I' for Inactive)
REMARK    1  A    between atoms: C_2  and  C_3 
REMARK    2  A    between atoms: C_2  and  C_18 
REMARK       I    between atoms: C_3  and  N_4 
REMARK    3  A    between atoms: N_4  and  C_5 
REMARK    4  A    between atoms: C_9  and  C_10 
REMARK    5  A    between atoms: C_18  and  C_19 
REMARK    6  A    between atoms: C_22  and  O_23 
ROOT
HETATM    1  C   UNL     1       7.643  27.566  57.484  1.00  0.00     0.227 C 
HETATM    2  N   UNL     1       6.811  26.471  57.336  1.00  0.00    -0.312 N 
HETATM    3  O   UNL     1       8.868  27.515  57.351  1.00  0.00    -0.273 OA
HETATM    4  H   UNL     1       5.817  26.553  57.503  1.00  0.00     0.170 HD
ENDROOT
BRANCH   2   5
HETATM    5  C   UNL     1       7.299  25.227  56.988  1.00  0.00     0.126 A 
HETATM    6  N   UNL     1       8.088  24.449  57.791  1.00  0.00    -0.262 N 
HETATM    7  H   UNL     1       8.391  24.668  58.737  1.00  0.00     0.191 HD
HETATM    8  N   UNL     1       8.501  23.313  57.202  1.00  0.00    -0.172 NA
HETATM    9  C   UNL     1       7.912  23.326  55.994  1.00  0.00     0.092 A 
HETATM   10  C   UNL     1       7.145  24.515  55.825  1.00  0.00     0.084 A 
BRANCH   9  11
HETATM   11  C   UNL     1       8.107  22.241  55.037  1.00  0.00     0.012 A 
HETATM   12  C   UNL     1       8.506  20.970  55.441  1.00  0.00     0.130 A 
HETATM   13  N   UNL     1       8.683  19.916  54.606  1.00  0.00    -0.272 NA
HETATM   14  C   UNL     1       8.458  20.142  53.294  1.00  0.00     0.116 A 
HETATM   15  C   UNL     1       8.066  21.368  52.781  1.00  0.00     0.020 A 
HETATM   16  C   UNL     1       7.892  22.430  53.668  1.00  0.00     0.017 A 
ENDBRANCH   9  11
ENDBRANCH   2   5
BRANCH   1  17
HETATM   17  C   UNL     1       6.939  28.907  57.689  1.00  0.00     0.078 C 
HETATM   18  C   UNL     1       7.818  29.785  58.581  1.00  0.00     0.020 C 
BRANCH  17  19
HETATM   19  C   UNL     1       6.572  29.661  56.401  1.00  0.00     0.052 C 
BRANCH  19  20
HETATM   20  C   UNL     1       6.195  28.791  55.227  1.00  0.00    -0.057 A 
HETATM   21  C   UNL     1       7.164  28.328  54.330  1.00  0.00     0.010 A 
HETATM   22  C   UNL     1       6.804  27.487  53.273  1.00  0.00     0.037 A 
HETATM   23  C   UNL     1       5.479  27.087  53.097  1.00  0.00     0.068 A 
HETATM   24  C   UNL     1       4.509  27.544  53.986  1.00  0.00     0.037 A 
HETATM   25  C   UNL     1       4.865  28.387  55.045  1.00  0.00     0.010 A 
BRANCH  23  26
HETATM   26  O   UNL     1       5.269  26.253  52.034  1.00  0.00    -0.356 OA
HETATM   27  C   UNL     1       4.989  24.891  52.331  1.00  0.00     0.210 C 
ENDBRANCH  23  26
ENDBRANCH  19  20
ENDBRANCH  17  19
ENDBRANCH   1  17
TORSDOF 6
ENDMDL
MODEL 6
REMARK VINA RESULT:      -8.4      1.404      1.928
REMARK  6 active torsions:
REMARK  status: ('A' for Active; 'I' for Inactive)
REMARK    1  A    between atoms: C_2  and  C_3 
REMARK    2  A    between atoms: C_2  and  C_18 
REMARK       I    between atoms: C_3  and  N_4 
REMARK    3  A    between atoms: N_4  and  C_5 
REMARK    4  A    between atoms: C_9  and  C_10 
REMARK    5  A    between atoms: C_18  and  C_19 
REMARK    6  A    between atoms: C_22  and  O_23 
ROOT
HETATM    1  C   UNL     1       7.201  27.700  56.523  1.00  0.00     0.227 C 
HETATM    2  N   UNL     1       7.409  29.067  56.563  1.00  0.00    -0.312 N 
HETATM    3  O   UNL     1       7.373  26.955  57.490  1.00  0.00    -0.273 OA
HETATM    4  H   UNL     1       7.301  29.630  55.730  1.00  0.00     0.170 HD
ENDROOT
BRANCH   2   5
HETATM    5  C   UNL     1       7.797  29.711  57.722  1.00  0.00     0.126 A 
HETATM    6  N   UNL     1       9.038  29.610  58.288  1.00  0.00    -0.262 N 
HETATM    7  H   UNL     1       9.828  29.082  57.925  1.00  0.00     0.191 HD
HETATM    8  N   UNL     1       9.152  30.268  59.455  1.00  0.00    -0.172 NA
HETATM    9  C   UNL     1       7.960  30.864  59.624  1.00  0.00     0.092 A 
HETATM   10  C   UNL     1       7.081  30.537  58.551  1.00  0.00     0.084 A 
BRANCH   9  11
HETATM   11  C   UNL     1       7.679  31.695  60.792  1.00  0.00     0.012 A 
HETATM   12  C   UNL     1       6.635  32.616  60.802  1.00  0.00     0.130 A 
HETATM   13  N   UNL     1       6.309  33.400  61.860  1.00  0.00    -0.272 NA
HETATM   14  C   UNL     1       7.070  33.265  62.967  1.00  0.00     0.116 A 
HETATM   15  C   UNL     1       8.137  32.386  63.064  1.00  0.00     0.020 A 
HETATM   16  C   UNL     1       8.444  31.594  61.958  1.00  0.00     0.017 A 
ENDBRANCH   9  11
ENDBRANCH   2   5
BRANCH   1  17
HETATM   17  C   UNL     1       6.599  27.163  55.225  1.00  0.00     0.078 C 
HETATM   18  C   UNL     1       5.828  28.294  54.542  1.00  0.00     0.020 C 
BRANCH  17  19
HETATM   19  C   UNL     1       7.603  26.539  54.243  1.00  0.00     0.052 C 
BRANCH  19  20
HETATM   20  C   UNL     1       7.576  25.032  54.159  1.00  0.00    -0.057 A 
HETATM   21  C   UNL     1       7.650  24.376  52.925  1.00  0.00     0.010 A 
HETATM   22  C   UNL     1       7.668  22.980  52.868  1.00  0.00     0.037 A 
HETATM   23  C   UNL     1       7.623  22.215  54.034  1.00  0.00     0.068 A 
HETATM   24  C   UNL     1       7.550  22.862  55.266  1.00  0.00     0.037 A 
HETATM   25  C   UNL     1       7.530  24.260  55.328  1.00  0.00     0.010 A 
BRANCH  23  26
HETATM   26  O   UNL     1       7.663  20.863  53.835  1.00  0.00    -0.356 OA
HETATM   27  C   UNL     1       8.744  20.358  53.062  1.00  0.00     0.210 C 
ENDBRANCH  23  26
ENDBRANCH  19  20
ENDBRANCH  17  19
ENDBRANCH   1  17
TORSDOF 6
ENDMDL
MODEL 7
REMARK VINA RESULT:      -8.3      3.781     10.581
REMARK  6 active torsions:
REMARK  status: ('A' for Active; 'I' for Inactive)
REMARK    1  A    between atoms: C_2  and  C_3 
REMARK    2  A    between atoms: C_2  and  C_18 
REMARK       I    between atoms: C_3  and  N_4 
REMARK    3  A    between atoms: N_4  and  C_5 
REMARK    4  A    between atoms: C_9  and  C_10 
REMARK    5  A    between atoms: C_18  and  C_19 
REMARK    6  A    between atoms: C_22  and  O_23 
ROOT
HETATM    1  C   UNL     1       7.954  31.009  59.773  1.00  0.00     0.227 C 
HETATM    2  N   UNL     1       8.186  29.692  59.418  1.00  0.00    -0.312 N 
HETATM    3  O   UNL     1       7.683  31.897  58.961  1.00  0.00    -0.273 OA
HETATM    4  H   UNL     1       8.453  29.010  60.115  1.00  0.00     0.170 HD
ENDROOT
BRANCH   2   5
HETATM    5  C   UNL     1       8.094  29.264  58.109  1.00  0.00     0.126 A 
HETATM    6  N   UNL     1       8.781  29.814  57.061  1.00  0.00    -0.262 N 
HETATM    7  H   UNL     1       9.455  30.574  57.111  1.00  0.00     0.191 HD
HETATM    8  N   UNL     1       8.467  29.276  55.870  1.00  0.00    -0.172 NA
HETATM    9  C   UNL     1       7.586  28.303  56.160  1.00  0.00     0.092 A 
HETATM   10  C   UNL     1       7.328  28.265  57.561  1.00  0.00     0.084 A 
BRANCH   9  11
HETATM   11  C   UNL     1       7.001  27.465  55.118  1.00  0.00     0.012 A 
HETATM   12  C   UNL     1       6.878  27.908  53.804  1.00  0.00     0.130 A 
HETATM   13  N   UNL     1       6.365  27.171  52.787  1.00  0.00    -0.272 NA
HETATM   14  C   UNL     1       5.945  25.926  53.097  1.00  0.00     0.116 A 
HETATM   15  C   UNL     1       6.013  25.387  54.371  1.00  0.00     0.020 A 
HETATM   16  C   UNL     1       6.547  26.171  55.394  1.00  0.00     0.017 A 
ENDBRANCH   9  11
ENDBRANCH   2   5
BRANCH   1  17
HETATM   17  C   UNL     1       7.913  31.290  61.275  1.00  0.00     0.078 C 
HETATM   18  C   UNL     1       9.118  30.612  61.929  1.00  0.00     0.020 C 
BRANCH  17  19
HETATM   19  C   UNL     1       7.866  32.777  61.665  1.00  0.00     0.052 C 
BRANCH  19  20
HETATM   20  C   UNL     1       7.063  33.097  62.901  1.00  0.00    -0.057 A 
HETATM   21  C   UNL     1       5.667  33.180  62.855  1.00  0.00     0.010 A 
HETATM   22  C   UNL     1       4.935  33.434  64.018  1.00  0.00     0.037 A 
HETATM   23  C   UNL     1       5.578  33.599  65.246  1.00  0.00     0.068 A 
HETATM   24  C   UNL     1       6.967  33.518  65.300  1.00  0.00     0.037 A 
HETATM   25  C   UNL     1       7.704  33.265  64.136  1.00  0.00     0.010 A 
BRANCH  23  26
HETATM   26  O   UNL     1       4.742  33.826  66.304  1.00  0.00    -0.356 OA
HETATM   27  C   UNL     1       4.090  35.089  66.350  1.00  0.00     0.210 C 
ENDBRANCH  23  26
ENDBRANCH  19  20
ENDBRANCH  17  19
ENDBRANCH   1  17
TORSDOF 6
ENDMDL
MODEL 8
REMARK VINA RESULT:      -8.2      6.086      9.742
REMARK  6 active torsions:
REMARK  status: ('A' for Active; 'I' for Inactive)
REMARK    1  A    between atoms: C_2  and  C_3 
REMARK    2  A    between atoms: C_2  and  C_18 
REMARK       I    between atoms: C_3  and  N_4 
REMARK    3  A    between atoms: N_4  and  C_5 
REMARK    4  A    between atoms: C_9  and  C_10 
REMARK    5  A    between atoms: C_18  and  C_19 
REMARK    6  A    between atoms: C_22  and  O_23 
ROOT
HETATM    1  C   UNL     1       4.630  27.973  50.542  1.00  0.00     0.227 C 
HETATM    2  N   UNL     1       5.330  26.807  50.292  1.00  0.00    -0.312 N 
HETATM    3  O   UNL     1       4.196  28.284  51.654  1.00  0.00    -0.273 OA
HETATM    4  H   UNL     1       5.623  26.573  49.352  1.00  0.00     0.170 HD
ENDROOT
BRANCH   2   5
HETATM    5  C   UNL     1       5.630  25.908  51.296  1.00  0.00     0.126 A 
HETATM    6  N   UNL     1       4.732  25.447  52.219  1.00  0.00    -0.262 N 
HETATM    7  H   UNL     1       3.743  25.678  52.270  1.00  0.00     0.191 HD
HETATM    8  N   UNL     1       5.279  24.638  53.144  1.00  0.00    -0.172 NA
HETATM    9  C   UNL     1       6.566  24.525  52.775  1.00  0.00     0.092 A 
HETATM   10  C   UNL     1       6.824  25.310  51.613  1.00  0.00     0.084 A 
BRANCH   9  11
HETATM   11  C   UNL     1       7.510  23.709  53.533  1.00  0.00     0.012 A 
HETATM   12  C   UNL     1       8.021  24.127  54.758  1.00  0.00     0.130 A 
HETATM   13  N   UNL     1       8.882  23.408  55.521  1.00  0.00    -0.272 NA
HETATM   14  C   UNL     1       9.261  22.208  55.032  1.00  0.00     0.116 A 
HETATM   15  C   UNL     1       8.822  21.697  53.822  1.00  0.00     0.020 A 
HETATM   16  C   UNL     1       7.936  22.462  53.064  1.00  0.00     0.017 A 
ENDBRANCH   9  11
ENDBRANCH   2   5
BRANCH   1  17
HETATM   17  C   UNL     1       4.536  28.951  49.370  1.00  0.00     0.078 C 
HETATM   18  C   UNL     1       5.740  29.893  49.427  1.00  0.00     0.020 C 
BRANCH  17  19
HETATM   19  C   UNL     1       4.435  28.303  47.980  1.00  0.00     0.052 C 
BRANCH  19  20
HETATM   20  C   UNL     1       3.039  28.189  47.419  1.00  0.00    -0.057 A 
HETATM   21  C   UNL     1       2.410  26.945  47.294  1.00  0.00     0.010 A 
HETATM   22  C   UNL     1       1.101  26.860  46.813  1.00  0.00     0.037 A 
HETATM   23  C   UNL     1       0.393  28.009  46.459  1.00  0.00     0.068 A 
HETATM   24  C   UNL     1       1.013  29.251  46.580  1.00  0.00     0.037 A 
HETATM   25  C   UNL     1       2.325  29.340  47.060  1.00  0.00     0.010 A 
BRANCH  23  26
HETATM   26  O   UNL     1      -0.881  27.785  46.019  1.00  0.00    -0.356 OA
HETATM   27  C   UNL     1      -1.699  28.928  45.803  1.00  0.00     0.210 C 
ENDBRANCH  23  26
ENDBRANCH  19  20
ENDBRANCH  17  19
ENDBRANCH   1  17
TORSDOF 6
ENDMDL
MODEL 9
REMARK VINA RESULT:      -8.1      2.865      8.975
REMARK  6 active torsions:
REMARK  status: ('A' for Active; 'I' for Inactive)
REMARK    1  A    between atoms: C_2  and  C_3 
REMARK    2  A    between atoms: C_2  and  C_18 
REMARK       I    between atoms: C_3  and  N_4 
REMARK    3  A    between atoms: N_4  and  C_5 
REMARK    4  A    between atoms: C_9  and  C_10 
REMARK    5  A    between atoms: C_18  and  C_19 
REMARK    6  A    between atoms: C_22  and  O_23 
ROOT
HETATM    1  C   UNL     1       6.225  28.234  54.777  1.00  0.00     0.227 C 
HETATM    2  N   UNL     1       6.068  27.036  55.449  1.00  0.00    -0.312 N 
HETATM    3  O   UNL     1       6.635  28.317  53.616  1.00  0.00    -0.273 OA
HETATM    4  H   UNL     1       5.775  27.022  56.417  1.00  0.00     0.170 HD
ENDROOT
BRANCH   2   5
HETATM    5  C   UNL     1       6.330  25.822  54.845  1.00  0.00     0.126 A 
HETATM    6  N   UNL     1       5.763  25.398  53.674  1.00  0.00    -0.262 N 
HETATM    7  H   UNL     1       5.110  25.920  53.094  1.00  0.00     0.191 HD
HETATM    8  N   UNL     1       6.118  24.149  53.326  1.00  0.00    -0.172 NA
HETATM    9  C   UNL     1       6.990  23.768  54.275  1.00  0.00     0.092 A 
HETATM   10  C   UNL     1       7.150  24.797  55.248  1.00  0.00     0.084 A 
BRANCH   9  11
HETATM   11  C   UNL     1       7.620  22.452  54.251  1.00  0.00     0.012 A 
HETATM   12  C   UNL     1       7.928  21.765  55.422  1.00  0.00     0.130 A 
HETATM   13  N   UNL     1       8.493  20.532  55.467  1.00  0.00    -0.272 NA
HETATM   14  C   UNL     1       8.773  19.954  54.279  1.00  0.00     0.116 A 
HETATM   15  C   UNL     1       8.516  20.549  53.055  1.00  0.00     0.020 A 
HETATM   16  C   UNL     1       7.934  21.817  53.045  1.00  0.00     0.017 A 
ENDBRANCH   9  11
ENDBRANCH   2   5
BRANCH   1  17
HETATM   17  C   UNL     1       5.721  29.475  55.513  1.00  0.00     0.078 C 
HETATM   18  C   UNL     1       4.312  29.798  55.013  1.00  0.00     0.020 C 
BRANCH  17  19
HETATM   19  C   UNL     1       5.729  29.378  57.048  1.00  0.00     0.052 C 
BRANCH  19  20
HETATM   20  C   UNL     1       6.843  30.124  57.738  1.00  0.00    -0.057 A 
HETATM   21  C   UNL     1       6.570  31.137  58.664  1.00  0.00     0.010 A 
HETATM   22  C   UNL     1       7.612  31.789  59.328  1.00  0.00     0.037 A 
HETATM   23  C   UNL     1       8.942  31.438  59.089  1.00  0.00     0.068 A 
HETATM   24  C   UNL     1       9.222  30.431  58.169  1.00  0.00     0.037 A 
HETATM   25  C   UNL     1       8.180  29.776  57.501  1.00  0.00     0.010 A 
BRANCH  23  26
HETATM   26  O   UNL     1       9.860  32.143  59.816  1.00  0.00    -0.356 OA
HETATM   27  C   UNL     1       9.773  32.045  61.232  1.00  0.00     0.210 C 
ENDBRANCH  23  26
ENDBRANCH  19  20
ENDBRANCH  17  19
ENDBRANCH   1  17
TORSDOF 6
ENDMDL
MODEL 10
REMARK VINA RESULT:      -8.1      3.522      7.672
REMARK  6 active torsions:
REMARK  status: ('A' for Active; 'I' for Inactive)
REMARK    1  A    between atoms: C_2  and  C_3 
REMARK    2  A    between atoms: C_2  and  C_18 
REMARK       I    between atoms: C_3  and  N_4 
REMARK    3  A    between atoms: N_4  and  C_5 
REMARK    4  A    between atoms: C_9  and  C_10 
REMARK    5  A    between atoms: C_18  and  C_19 
REMARK    6  A    between atoms: C_22  and  O_23 
ROOT
HETATM    1  C   UNL     1       6.718  27.144  55.249  1.00  0.00     0.227 C 
HETATM    2  N   UNL     1       7.254  27.265  53.980  1.00  0.00    -0.312 N 
HETATM    3  O   UNL     1       5.543  27.403  55.522  1.00  0.00    -0.273 OA
HETATM    4  H   UNL     1       8.236  27.088  53.816  1.00  0.00     0.170 HD
ENDROOT
BRANCH   2   5
HETATM    5  C   UNL     1       6.488  27.659  52.901  1.00  0.00     0.126 A 
HETATM    6  N   UNL     1       6.060  28.939  52.677  1.00  0.00    -0.262 N 
HETATM    7  H   UNL     1       6.267  29.755  53.248  1.00  0.00     0.191 HD
HETATM    8  N   UNL     1       5.263  29.060  51.601  1.00  0.00    -0.172 NA
HETATM    9  C   UNL     1       5.218  27.825  51.074  1.00  0.00     0.092 A 
HETATM   10  C   UNL     1       5.979  26.916  51.864  1.00  0.00     0.084 A 
BRANCH   9  11
HETATM   11  C   UNL     1       4.447  27.536  49.868  1.00  0.00     0.012 A 
HETATM   12  C   UNL     1       3.540  28.451  49.341  1.00  0.00     0.130 A 
HETATM   13  N   UNL     1       2.812  28.252  48.214  1.00  0.00    -0.272 NA
HETATM   14  C   UNL     1       2.991  27.073  47.581  1.00  0.00     0.116 A 
HETATM   15  C   UNL     1       3.860  26.089  48.020  1.00  0.00     0.020 A 
HETATM   16  C   UNL     1       4.595  26.326  49.182  1.00  0.00     0.017 A 
ENDBRANCH   9  11
ENDBRANCH   2   5
BRANCH   1  17
HETATM   17  C   UNL     1       7.641  26.524  56.298  1.00  0.00     0.078 C 
HETATM   18  C   UNL     1       7.936  27.577  57.368  1.00  0.00     0.020 C 
BRANCH  17  19
HETATM   19  C   UNL     1       7.119  25.236  56.955  1.00  0.00     0.052 C 
BRANCH  19  20
HETATM   20  C   UNL     1       7.528  23.951  56.277  1.00  0.00    -0.057 A 
HETATM   21  C   UNL     1       7.186  23.697  54.944  1.00  0.00     0.010 A 
HETATM   22  C   UNL     1       7.610  22.522  54.317  1.00  0.00     0.037 A 
HETATM   23  C   UNL     1       8.389  21.588  55.001  1.00  0.00     0.068 A 
HETATM   24  C   UNL     1       8.734  21.834  56.328  1.00  0.00     0.037 A 
HETATM   25  C   UNL     1       8.310  23.009  56.960  1.00  0.00     0.010 A 
BRANCH  23  26
HETATM   26  O   UNL     1       8.748  20.493  54.266  1.00  0.00    -0.356 OA
HETATM   27  C   UNL     1       8.360  20.480  52.898  1.00  0.00     0.210 C 
ENDBRANCH  23  26
ENDBRANCH  19  20
ENDBRANCH  17  19
ENDBRANCH   1  17
TORSDOF 6
ENDMDL
