MODEL 1
REMARK VINA RESULT:     -10.2      0.000      0.000
REMARK  3 active torsions:
REMARK  status: ('A' for Active; 'I' for Inactive)
REMARK    1  A    between atoms: C_3  and  C_4 
REMARK       I    between atoms: C_4  and  N_5 
REMARK    2  A    between atoms: N_5  and  C_6 
REMARK    3  A    between atoms: C_13  and  C_14 
REMARK       I    between atoms: C_14  and  N_15 
ROOT
HETATM    1  C   UNL     1       6.664  28.212  56.738  1.00  0.00     0.035 A 
HETATM    2  C   UNL     1       7.582  29.060  57.377  1.00  0.00     0.046 A 
HETATM    3  C   UNL     1       7.138  30.270  57.945  1.00  0.00     0.030 A 
HETATM    4  C   UNL     1       5.797  30.611  57.829  1.00  0.00     0.063 A 
HETATM    5  N   UNL     1       5.675  31.820  58.455  1.00  0.00    -0.277 N 
HETATM    6  H   UNL     1       4.833  32.375  58.558  1.00  0.00     0.189 HD
HETATM    7  N   UNL     1       6.817  32.285  58.995  1.00  0.00    -0.168 NA
HETATM    8  C   UNL     1       7.728  31.335  58.688  1.00  0.00     0.156 A 
HETATM    9  C   UNL     1       4.861  29.802  57.183  1.00  0.00     0.034 A 
HETATM   10  C   UNL     1       5.322  28.589  56.648  1.00  0.00     0.032 A 
ENDROOT
BRANCH   1  11
HETATM   11  N   UNL     1       7.172  27.007  56.219  1.00  0.00    -0.325 N 
HETATM   12  C   UNL     1       6.819  25.713  56.563  1.00  0.00     0.252 C 
HETATM   13  O   UNL     1       5.999  25.382  57.417  1.00  0.00    -0.270 OA
HETATM   14  H   UNL     1       7.910  27.083  55.524  1.00  0.00     0.169 HD
BRANCH  12  15
HETATM   15  C   UNL     1       7.649  24.658  55.825  1.00  0.00     0.229 C 
HETATM   16  C   UNL     1       7.313  24.543  54.321  1.00  0.00     0.056 C 
HETATM   17  C   UNL     1       5.860  24.806  53.933  1.00  0.00     0.018 C 
HETATM   18  C   UNL     1       7.651  23.102  54.145  1.00  0.00    -0.018 A 
HETATM   19  C   UNL     1       7.720  22.490  55.388  1.00  0.00     0.076 A 
HETATM   20  C   UNL     1       7.836  22.369  52.985  1.00  0.00     0.010 A 
HETATM   21  O   UNL     1       7.494  23.348  56.432  1.00  0.00    -0.335 OA
HETATM   22  C   UNL     1       7.964  21.141  55.530  1.00  0.00     0.037 A 
HETATM   23  C   UNL     1       8.161  20.390  54.369  1.00  0.00     0.003 A 
HETATM   24  C   UNL     1       8.097  21.001  53.105  1.00  0.00     0.001 A 
ENDBRANCH  12  15
ENDBRANCH   1  11
BRANCH   8  25
HETATM   25  C   UNL     1       9.129  31.447  59.118  1.00  0.00     0.270 C 
HETATM   26  N   UNL     1       9.429  30.724  60.239  1.00  0.00    -0.365 N 
HETATM   27  H   UNL     1       8.698  30.169  60.668  1.00  0.00     0.159 HD
HETATM   28  H   UNL     1      10.373  30.714  60.592  1.00  0.00     0.159 HD
HETATM   29  O   UNL     1       9.981  32.114  58.540  1.00  0.00    -0.266 OA
ENDBRANCH   8  25
TORSDOF 3
ENDMDL
MODEL 2
REMARK VINA RESULT:     -10.1      2.019      3.040
REMARK  3 active torsions:
REMARK  status: ('A' for Active; 'I' for Inactive)
REMARK    1  A    between atoms: C_3  and  C_4 
REMARK       I    between atoms: C_4  and  N_5 
REMARK    2  A    between atoms: N_5  and  C_6 
REMARK    3  A    between atoms: C_13  and  C_14 
REMARK       I    between atoms: C_14  and  N_15 
ROOT
HETATM    1  C   UNL     1       8.869  28.800  57.151  1.00  0.00     0.035 A 
HETATM    2  C   UNL     1       8.098  29.544  58.058  1.00  0.00     0.046 A 
HETATM    3  C   UNL     1       8.640  30.703  58.649  1.00  0.00     0.030 A 
HETATM    4  C   UNL     1       9.945  31.063  58.341  1.00  0.00     0.063 A 
HETATM    5  N   UNL     1      10.187  32.198  59.062  1.00  0.00    -0.277 N 
HETATM    6  H   UNL     1      11.046  32.737  59.089  1.00  0.00     0.189 HD
HETATM    7  N   UNL     1       9.142  32.627  59.794  1.00  0.00    -0.168 NA
HETATM    8  C   UNL     1       8.179  31.711  59.547  1.00  0.00     0.156 A 
HETATM    9  C   UNL     1      10.746  30.335  57.460  1.00  0.00     0.034 A 
HETATM   10  C   UNL     1      10.176  29.200  56.863  1.00  0.00     0.032 A 
ENDROOT
BRANCH   1  11
HETATM   11  N   UNL     1       8.255  27.672  56.577  1.00  0.00    -0.325 N 
HETATM   12  C   UNL     1       7.660  26.601  57.224  1.00  0.00     0.252 C 
HETATM   13  O   UNL     1       7.583  26.433  58.439  1.00  0.00    -0.270 OA
HETATM   14  H   UNL     1       8.267  27.611  55.563  1.00  0.00     0.169 HD
BRANCH  12  15
HETATM   15  C   UNL     1       7.161  25.527  56.253  1.00  0.00     0.229 C 
HETATM   16  C   UNL     1       7.606  24.095  56.627  1.00  0.00     0.056 C 
HETATM   17  C   UNL     1       8.971  23.968  57.299  1.00  0.00     0.018 C 
HETATM   18  C   UNL     1       7.643  23.526  55.251  1.00  0.00    -0.018 A 
HETATM   19  C   UNL     1       7.650  24.559  54.325  1.00  0.00     0.076 A 
HETATM   20  C   UNL     1       7.716  22.207  54.838  1.00  0.00     0.010 A 
HETATM   21  O   UNL     1       7.594  25.803  54.895  1.00  0.00    -0.335 OA
HETATM   22  C   UNL     1       7.736  24.328  52.969  1.00  0.00     0.037 A 
HETATM   23  C   UNL     1       7.802  23.003  52.536  1.00  0.00     0.003 A 
HETATM   24  C   UNL     1       7.791  21.948  53.466  1.00  0.00     0.001 A 
ENDBRANCH  12  15
ENDBRANCH   1  11
BRANCH   8  25
HETATM   25  C   UNL     1       6.843  31.821  60.147  1.00  0.00     0.270 C 
HETATM   26  N   UNL     1       6.748  31.288  61.403  1.00  0.00    -0.365 N 
HETATM   27  H   UNL     1       7.578  30.886  61.822  1.00  0.00     0.159 HD
HETATM   28  H   UNL     1       5.877  31.344  61.908  1.00  0.00     0.159 HD
HETATM   29  O   UNL     1       5.878  32.347  59.601  1.00  0.00    -0.266 OA
ENDBRANCH   8  25
TORSDOF 3
ENDMDL
MODEL 3
REMARK VINA RESULT:      -9.4      1.906      2.896
REMARK  3 active torsions:
REMARK  status: ('A' for Active; 'I' for Inactive)
REMARK    1  A    between atoms: C_3  and  C_4 
REMARK       I    between atoms: C_4  and  N_5 
REMARK    2  A    between atoms: N_5  and  C_6 
REMARK    3  A    between atoms: C_13  and  C_14 
REMARK       I    between atoms: C_14  and  N_15 
ROOT
HETATM    1  C   UNL     1       7.422  28.217  56.862  1.00  0.00     0.035 A 
HETATM    2  C   UNL     1       6.379  28.914  56.232  1.00  0.00     0.046 A 
HETATM    3  C   UNL     1       5.987  30.177  56.721  1.00  0.00     0.030 A 
HETATM    4  C   UNL     1       6.628  30.688  57.841  1.00  0.00     0.063 A 
HETATM    5  N   UNL     1       6.034  31.896  58.078  1.00  0.00    -0.277 N 
HETATM    6  H   UNL     1       6.245  32.547  58.825  1.00  0.00     0.189 HD
HETATM    7  N   UNL     1       5.079  32.230  57.190  1.00  0.00    -0.168 NA
HETATM    8  C   UNL     1       5.041  31.176  56.346  1.00  0.00     0.156 A 
HETATM    9  C   UNL     1       7.655  30.013  58.503  1.00  0.00     0.034 A 
HETATM   10  C   UNL     1       8.046  28.770  57.983  1.00  0.00     0.032 A 
ENDROOT
BRANCH   1  11
HETATM   11  N   UNL     1       7.780  26.976  56.303  1.00  0.00    -0.325 N 
HETATM   12  C   UNL     1       7.240  25.730  56.575  1.00  0.00     0.252 C 
HETATM   13  O   UNL     1       6.353  25.480  57.387  1.00  0.00    -0.270 OA
HETATM   14  H   UNL     1       8.546  26.978  55.636  1.00  0.00     0.169 HD
BRANCH  12  15
HETATM   15  C   UNL     1       7.945  24.602  55.815  1.00  0.00     0.229 C 
HETATM   16  C   UNL     1       7.532  24.500  54.329  1.00  0.00     0.056 C 
HETATM   17  C   UNL     1       6.089  24.880  54.004  1.00  0.00     0.018 C 
HETATM   18  C   UNL     1       7.741  23.035  54.158  1.00  0.00    -0.018 A 
HETATM   19  C   UNL     1       7.816  22.432  55.405  1.00  0.00     0.076 A 
HETATM   20  C   UNL     1       7.810  22.278  53.001  1.00  0.00     0.010 A 
HETATM   21  O   UNL     1       7.711  23.316  56.446  1.00  0.00    -0.335 OA
HETATM   22  C   UNL     1       7.954  21.068  55.553  1.00  0.00     0.037 A 
HETATM   23  C   UNL     1       8.034  20.292  54.396  1.00  0.00     0.003 A 
HETATM   24  C   UNL     1       7.963  20.894  53.127  1.00  0.00     0.001 A 
ENDBRANCH  12  15
ENDBRANCH   1  11
BRANCH   8  25
HETATM   25  C   UNL     1       4.128  31.146  55.195  1.00  0.00     0.270 C 
HETATM   26  N   UNL     1       4.750  31.261  53.983  1.00  0.00    -0.365 N 
HETATM   27  H   UNL     1       5.760  31.340  53.963  1.00  0.00     0.159 HD
HETATM   28  H   UNL     1       4.208  31.220  53.134  1.00  0.00     0.159 HD
HETATM   29  O   UNL     1       2.910  31.020  55.280  1.00  0.00    -0.266 OA
ENDBRANCH   8  25
TORSDOF 3
ENDMDL
MODEL 4
REMARK VINA RESULT:      -9.1      4.038      6.749
REMARK  3 active torsions:
REMARK  status: ('A' for Active; 'I' for Inactive)
REMARK    1  A    between atoms: C_3  and  C_4 
REMARK       I    between atoms: C_4  and  N_5 
REMARK    2  A    between atoms: N_5  and  C_6 
REMARK    3  A    between atoms: C_13  and  C_14 
REMARK       I    between atoms: C_14  and  N_15 
ROOT
HETATM    1  C   UNL     1       7.252  31.699  61.635  1.00  0.00     0.035 A 
HETATM    2  C   UNL     1       5.953  32.209  61.786  1.00  0.00     0.046 A 
HETATM    3  C   UNL     1       5.631  32.975  62.925  1.00  0.00     0.030 A 
HETATM    4  C   UNL     1       6.607  33.179  63.891  1.00  0.00     0.063 A 
HETATM    5  N   UNL     1       6.005  33.932  64.860  1.00  0.00    -0.277 N 
HETATM    6  H   UNL     1       6.419  34.264  65.724  1.00  0.00     0.189 HD
HETATM    7  N   UNL     1       4.728  34.261  64.596  1.00  0.00    -0.168 NA
HETATM    8  C   UNL     1       4.485  33.677  63.402  1.00  0.00     0.156 A 
HETATM    9  C   UNL     1       7.902  32.669  63.782  1.00  0.00     0.034 A 
HETATM   10  C   UNL     1       8.207  31.932  62.627  1.00  0.00     0.032 A 
ENDROOT
BRANCH   1  11
HETATM   11  N   UNL     1       7.510  30.969  60.460  1.00  0.00    -0.325 N 
HETATM   12  C   UNL     1       8.211  31.377  59.337  1.00  0.00     0.252 C 
HETATM   13  O   UNL     1       8.722  32.480  59.157  1.00  0.00    -0.270 OA
HETATM   14  H   UNL     1       7.114  30.035  60.405  1.00  0.00     0.169 HD
BRANCH  12  15
HETATM   15  C   UNL     1       8.219  30.320  58.228  1.00  0.00     0.229 C 
HETATM   16  C   UNL     1       7.055  30.466  57.222  1.00  0.00     0.056 C 
HETATM   17  C   UNL     1       5.739  30.998  57.787  1.00  0.00     0.018 C 
HETATM   18  C   UNL     1       6.924  29.029  56.851  1.00  0.00    -0.018 A 
HETATM   19  C   UNL     1       7.578  28.248  57.792  1.00  0.00     0.076 A 
HETATM   20  C   UNL     1       6.243  28.444  55.797  1.00  0.00     0.010 A 
HETATM   21  O   UNL     1       8.184  28.978  58.781  1.00  0.00    -0.335 OA
HETATM   22  C   UNL     1       7.577  26.871  57.733  1.00  0.00     0.037 A 
HETATM   23  C   UNL     1       6.902  26.266  56.671  1.00  0.00     0.003 A 
HETATM   24  C   UNL     1       6.239  27.048  55.709  1.00  0.00     0.001 A 
ENDBRANCH  12  15
ENDBRANCH   1  11
BRANCH   8  25
HETATM   25  C   UNL     1       3.184  33.811  62.732  1.00  0.00     0.270 C 
HETATM   26  N   UNL     1       2.111  33.532  63.532  1.00  0.00    -0.365 N 
HETATM   27  H   UNL     1       2.280  33.278  64.499  1.00  0.00     0.159 HD
HETATM   28  H   UNL     1       1.175  33.626  63.169  1.00  0.00     0.159 HD
HETATM   29  O   UNL     1       3.038  34.151  61.562  1.00  0.00    -0.266 OA
ENDBRANCH   8  25
TORSDOF 3
ENDMDL
MODEL 5
REMARK VINA RESULT:      -9.1      4.964      8.256
REMARK  3 active torsions:
REMARK  status: ('A' for Active; 'I' for Inactive)
REMARK    1  A    between atoms: C_3  and  C_4 
REMARK       I    between atoms: C_4  and  N_5 
REMARK    2  A    between atoms: N_5  and  C_6 
REMARK    3  A    between atoms: C_13  and  C_14 
REMARK       I    between atoms: C_14  and  N_15 
ROOT
HETATM    1  C   UNL     1       7.157  25.092  54.089  1.00  0.00     0.035 A 
HETATM    2  C   UNL     1       7.490  23.728  54.073  1.00  0.00     0.046 A 
HETATM    3  C   UNL     1       7.865  23.086  55.270  1.00  0.00     0.030 A 
HETATM    4  C   UNL     1       7.929  23.834  56.438  1.00  0.00     0.063 A 
HETATM    5  N   UNL     1       8.325  22.956  57.408  1.00  0.00    -0.277 N 
HETATM    6  H   UNL     1       8.484  23.157  58.389  1.00  0.00     0.189 HD
HETATM    7  N   UNL     1       8.499  21.693  56.979  1.00  0.00    -0.168 NA
HETATM    8  C   UNL     1       8.217  21.760  55.659  1.00  0.00     0.156 A 
HETATM    9  C   UNL     1       7.625  25.195  56.486  1.00  0.00     0.034 A 
HETATM   10  C   UNL     1       7.228  25.807  55.287  1.00  0.00     0.032 A 
ENDROOT
BRANCH   1  11
HETATM   11  N   UNL     1       6.764  25.660  52.864  1.00  0.00    -0.325 N 
HETATM   12  C   UNL     1       5.552  25.521  52.208  1.00  0.00     0.252 C 
HETATM   13  O   UNL     1       4.595  24.843  52.577  1.00  0.00    -0.270 OA
HETATM   14  H   UNL     1       7.456  26.222  52.377  1.00  0.00     0.169 HD
BRANCH  12  15
HETATM   15  C   UNL     1       5.526  26.239  50.855  1.00  0.00     0.229 C 
HETATM   16  C   UNL     1       5.258  27.757  50.961  1.00  0.00     0.056 C 
HETATM   17  C   UNL     1       4.342  28.201  52.100  1.00  0.00     0.018 C 
HETATM   18  C   UNL     1       4.585  27.940  49.645  1.00  0.00    -0.018 A 
HETATM   19  C   UNL     1       4.189  26.704  49.155  1.00  0.00     0.076 A 
HETATM   20  C   UNL     1       4.296  29.101  48.949  1.00  0.00     0.010 A 
HETATM   21  O   UNL     1       4.532  25.657  49.970  1.00  0.00    -0.335 OA
HETATM   22  C   UNL     1       3.491  26.571  47.973  1.00  0.00     0.037 A 
HETATM   23  C   UNL     1       3.200  27.733  47.256  1.00  0.00     0.003 A 
HETATM   24  C   UNL     1       3.600  28.990  47.741  1.00  0.00     0.001 A 
ENDBRANCH  12  15
ENDBRANCH   1  11
BRANCH   8  25
HETATM   25  C   UNL     1       8.267  20.568  54.801  1.00  0.00     0.270 C 
HETATM   26  N   UNL     1       9.056  19.561  55.287  1.00  0.00    -0.365 N 
HETATM   27  H   UNL     1       9.519  19.697  56.178  1.00  0.00     0.159 HD
HETATM   28  H   UNL     1       9.128  18.692  54.783  1.00  0.00     0.159 HD
HETATM   29  O   UNL     1       7.659  20.449  53.742  1.00  0.00    -0.266 OA
ENDBRANCH   8  25
TORSDOF 3
ENDMDL
MODEL 6
REMARK VINA RESULT:      -9.1      2.904      3.758
REMARK  3 active torsions:
REMARK  status: ('A' for Active; 'I' for Inactive)
REMARK    1  A    between atoms: C_3  and  C_4 
REMARK       I    between atoms: C_4  and  N_5 
REMARK    2  A    between atoms: N_5  and  C_6 
REMARK    3  A    between atoms: C_13  and  C_14 
REMARK       I    between atoms: C_14  and  N_15 
ROOT
HETATM    1  C   UNL     1       4.460  27.637  54.185  1.00  0.00     0.035 A 
HETATM    2  C   UNL     1       4.435  28.383  55.374  1.00  0.00     0.046 A 
HETATM    3  C   UNL     1       3.959  29.709  55.358  1.00  0.00     0.030 A 
HETATM    4  C   UNL     1       3.554  30.259  54.149  1.00  0.00     0.063 A 
HETATM    5  N   UNL     1       3.164  31.535  54.445  1.00  0.00    -0.277 N 
HETATM    6  H   UNL     1       2.815  32.235  53.800  1.00  0.00     0.189 HD
HETATM    7  N   UNL     1       3.253  31.856  55.748  1.00  0.00    -0.168 NA
HETATM    8  C   UNL     1       3.742  30.736  56.324  1.00  0.00     0.156 A 
HETATM    9  C   UNL     1       3.585  29.553  52.945  1.00  0.00     0.034 A 
HETATM   10  C   UNL     1       4.038  28.226  52.991  1.00  0.00     0.032 A 
ENDROOT
BRANCH   1  11
HETATM   11  N   UNL     1       4.920  26.311  54.281  1.00  0.00    -0.325 N 
HETATM   12  C   UNL     1       6.124  25.791  53.837  1.00  0.00     0.252 C 
HETATM   13  O   UNL     1       7.012  26.403  53.248  1.00  0.00    -0.270 OA
HETATM   14  H   UNL     1       4.287  25.636  54.701  1.00  0.00     0.169 HD
BRANCH  12  15
HETATM   15  C   UNL     1       6.233  24.279  54.060  1.00  0.00     0.229 C 
HETATM   16  C   UNL     1       6.821  23.893  55.436  1.00  0.00     0.056 C 
HETATM   17  C   UNL     1       7.867  24.845  56.012  1.00  0.00     0.018 C 
HETATM   18  C   UNL     1       7.449  22.603  55.036  1.00  0.00    -0.018 A 
HETATM   19  C   UNL     1       7.550  22.548  53.654  1.00  0.00     0.076 A 
HETATM   20  C   UNL     1       7.942  21.575  55.822  1.00  0.00     0.010 A 
HETATM   21  O   UNL     1       7.035  23.651  53.025  1.00  0.00    -0.335 OA
HETATM   22  C   UNL     1       8.143  21.488  53.002  1.00  0.00     0.037 A 
HETATM   23  C   UNL     1       8.637  20.439  53.780  1.00  0.00     0.003 A 
HETATM   24  C   UNL     1       8.536  20.483  55.182  1.00  0.00     0.001 A 
ENDBRANCH  12  15
ENDBRANCH   1  11
BRANCH   8  25
HETATM   25  C   UNL     1       3.975  30.654  57.772  1.00  0.00     0.270 C 
HETATM   26  N   UNL     1       5.258  30.331  58.116  1.00  0.00    -0.365 N 
HETATM   27  H   UNL     1       5.937  30.192  57.377  1.00  0.00     0.159 HD
HETATM   28  H   UNL     1       5.521  30.283  59.088  1.00  0.00     0.159 HD
HETATM   29  O   UNL     1       3.117  30.863  58.625  1.00  0.00    -0.266 OA
ENDBRANCH   8  25
TORSDOF 3
ENDMDL
MODEL 7
REMARK VINA RESULT:      -9.0      3.115      4.391
REMARK  3 active torsions:
REMARK  status: ('A' for Active; 'I' for Inactive)
REMARK    1  A    between atoms: C_3  and  C_4 
REMARK       I    between atoms: C_4  and  N_5 
REMARK    2  A    between atoms: N_5  and  C_6 
REMARK    3  A    between atoms: C_13  and  C_14 
REMARK       I    between atoms: C_14  and  N_15 
ROOT
HETATM    1  C   UNL     1       6.123  28.065  55.099  1.00  0.00     0.035 A 
HETATM    2  C   UNL     1       5.230  28.399  54.069  1.00  0.00     0.046 A 
HETATM    3  C   UNL     1       4.555  29.636  54.103  1.00  0.00     0.030 A 
HETATM    4  C   UNL     1       4.768  30.485  55.181  1.00  0.00     0.063 A 
HETATM    5  N   UNL     1       3.983  31.577  54.942  1.00  0.00    -0.277 N 
HETATM    6  H   UNL     1       3.880  32.399  55.527  1.00  0.00     0.189 HD
HETATM    7  N   UNL     1       3.296  31.527  53.786  1.00  0.00    -0.168 NA
HETATM    8  C   UNL     1       3.642  30.333  53.257  1.00  0.00     0.156 A 
HETATM    9  C   UNL     1       5.633  30.175  56.232  1.00  0.00     0.034 A 
HETATM   10  C   UNL     1       6.315  28.950  56.163  1.00  0.00     0.032 A 
ENDROOT
BRANCH   1  11
HETATM   11  N   UNL     1       6.784  26.828  54.985  1.00  0.00    -0.325 N 
HETATM   12  C   UNL     1       6.405  25.606  55.514  1.00  0.00     0.252 C 
HETATM   13  O   UNL     1       5.416  25.386  56.210  1.00  0.00    -0.270 OA
HETATM   14  H   UNL     1       7.664  26.825  54.478  1.00  0.00     0.169 HD
BRANCH  12  15
HETATM   15  C   UNL     1       7.425  24.498  55.233  1.00  0.00     0.229 C 
HETATM   16  C   UNL     1       7.509  24.093  53.744  1.00  0.00     0.056 C 
HETATM   17  C   UNL     1       6.209  24.179  52.948  1.00  0.00     0.018 C 
HETATM   18  C   UNL     1       7.912  22.673  53.940  1.00  0.00    -0.018 A 
HETATM   19  C   UNL     1       7.657  22.298  55.251  1.00  0.00     0.076 A 
HETATM   20  C   UNL     1       8.418  21.760  53.031  1.00  0.00     0.010 A 
HETATM   21  O   UNL     1       7.141  23.310  56.017  1.00  0.00    -0.335 OA
HETATM   22  C   UNL     1       7.883  21.016  55.706  1.00  0.00     0.037 A 
HETATM   23  C   UNL     1       8.400  20.087  54.803  1.00  0.00     0.003 A 
HETATM   24  C   UNL     1       8.666  20.457  53.473  1.00  0.00     0.001 A 
ENDBRANCH  12  15
ENDBRANCH   1  11
BRANCH   8  25
HETATM   25  C   UNL     1       3.117  29.886  51.960  1.00  0.00     0.270 C 
HETATM   26  N   UNL     1       2.349  28.757  52.025  1.00  0.00    -0.365 N 
HETATM   27  H   UNL     1       2.188  28.332  52.931  1.00  0.00     0.159 HD
HETATM   28  H   UNL     1       1.920  28.392  51.189  1.00  0.00     0.159 HD
HETATM   29  O   UNL     1       3.323  30.459  50.894  1.00  0.00    -0.266 OA
ENDBRANCH   8  25
TORSDOF 3
ENDMDL
MODEL 8
REMARK VINA RESULT:      -8.7      5.178      8.188
REMARK  3 active torsions:
REMARK  status: ('A' for Active; 'I' for Inactive)
REMARK    1  A    between atoms: C_3  and  C_4 
REMARK       I    between atoms: C_4  and  N_5 
REMARK    2  A    between atoms: N_5  and  C_6 
REMARK    3  A    between atoms: C_13  and  C_14 
REMARK       I    between atoms: C_14  and  N_15 
ROOT
HETATM    1  C   UNL     1       6.876  32.377  62.967  1.00  0.00     0.035 A 
HETATM    2  C   UNL     1       5.529  32.765  62.885  1.00  0.00     0.046 A 
HETATM    3  C   UNL     1       4.971  33.568  63.899  1.00  0.00     0.030 A 
HETATM    4  C   UNL     1       5.765  33.930  64.979  1.00  0.00     0.063 A 
HETATM    5  N   UNL     1       4.958  34.682  65.786  1.00  0.00    -0.277 N 
HETATM    6  H   UNL     1       5.203  35.110  66.672  1.00  0.00     0.189 HD
HETATM    7  N   UNL     1       3.712  34.865  65.312  1.00  0.00    -0.168 NA
HETATM    8  C   UNL     1       3.707  34.183  64.145  1.00  0.00     0.156 A 
HETATM    9  C   UNL     1       7.101  33.545  65.102  1.00  0.00     0.034 A 
HETATM   10  C   UNL     1       7.643  32.768  64.066  1.00  0.00     0.032 A 
ENDROOT
BRANCH   1  11
HETATM   11  N   UNL     1       7.375  31.600  61.905  1.00  0.00    -0.325 N 
HETATM   12  C   UNL     1       7.169  31.779  60.546  1.00  0.00     0.252 C 
HETATM   13  O   UNL     1       6.482  32.650  60.020  1.00  0.00    -0.270 OA
HETATM   14  H   UNL     1       7.933  30.789  62.154  1.00  0.00     0.169 HD
BRANCH  12  15
HETATM   15  C   UNL     1       7.823  30.680  59.701  1.00  0.00     0.229 C 
HETATM   16  C   UNL     1       9.344  30.868  59.506  1.00  0.00     0.056 C 
HETATM   17  C   UNL     1       9.841  32.310  59.434  1.00  0.00     0.018 C 
HETATM   18  C   UNL     1       9.464  30.204  58.177  1.00  0.00    -0.018 A 
HETATM   19  C   UNL     1       8.206  30.094  57.602  1.00  0.00     0.076 A 
HETATM   20  C   UNL     1      10.590  29.774  57.498  1.00  0.00     0.010 A 
HETATM   21  O   UNL     1       7.199  30.583  58.393  1.00  0.00    -0.335 OA
HETATM   22  C   UNL     1       8.018  29.565  56.343  1.00  0.00     0.037 A 
HETATM   23  C   UNL     1       9.144  29.119  55.650  1.00  0.00     0.003 A 
HETATM   24  C   UNL     1      10.423  29.223  56.224  1.00  0.00     0.001 A 
ENDBRANCH  12  15
ENDBRANCH   1  11
BRANCH   8  25
HETATM   25  C   UNL     1       2.518  34.143  63.284  1.00  0.00     0.270 C 
HETATM   26  N   UNL     1       1.357  33.852  63.945  1.00  0.00    -0.365 N 
HETATM   27  H   UNL     1       1.394  33.706  64.947  1.00  0.00     0.159 HD
HETATM   28  H   UNL     1       0.484  33.833  63.442  1.00  0.00     0.159 HD
HETATM   29  O   UNL     1       2.530  34.357  62.076  1.00  0.00    -0.266 OA
ENDBRANCH   8  25
TORSDOF 3
ENDMDL
MODEL 9
REMARK VINA RESULT:      -8.6      3.648      7.944
REMARK  3 active torsions:
REMARK  status: ('A' for Active; 'I' for Inactive)
REMARK    1  A    between atoms: C_3  and  C_4 
REMARK       I    between atoms: C_4  and  N_5 
REMARK    2  A    between atoms: N_5  and  C_6 
REMARK    3  A    between atoms: C_13  and  C_14 
REMARK       I    between atoms: C_14  and  N_15 
ROOT
HETATM    1  C   UNL     1       7.201  26.992  53.687  1.00  0.00     0.035 A 
HETATM    2  C   UNL     1       6.181  27.773  53.120  1.00  0.00     0.046 A 
HETATM    3  C   UNL     1       5.562  27.354  51.925  1.00  0.00     0.030 A 
HETATM    4  C   UNL     1       6.003  26.187  51.317  1.00  0.00     0.063 A 
HETATM    5  N   UNL     1       5.236  26.051  50.195  1.00  0.00    -0.277 N 
HETATM    6  H   UNL     1       5.287  25.312  49.502  1.00  0.00     0.189 HD
HETATM    7  N   UNL     1       4.312  27.016  50.032  1.00  0.00    -0.168 NA
HETATM    8  C   UNL     1       4.502  27.827  51.096  1.00  0.00     0.156 A 
HETATM    9  C   UNL     1       7.028  25.398  51.843  1.00  0.00     0.034 A 
HETATM   10  C   UNL     1       7.611  25.821  53.047  1.00  0.00     0.032 A 
ENDROOT
BRANCH   1  11
HETATM   11  N   UNL     1       7.753  27.456  54.895  1.00  0.00    -0.325 N 
HETATM   12  C   UNL     1       7.655  26.886  56.153  1.00  0.00     0.252 C 
HETATM   13  O   UNL     1       7.035  25.866  56.447  1.00  0.00    -0.270 OA
HETATM   14  H   UNL     1       8.267  28.332  54.856  1.00  0.00     0.169 HD
BRANCH  12  15
HETATM   15  C   UNL     1       8.336  27.727  57.238  1.00  0.00     0.229 C 
HETATM   16  C   UNL     1       7.351  28.561  58.087  1.00  0.00     0.056 C 
HETATM   17  C   UNL     1       6.107  29.075  57.366  1.00  0.00     0.018 C 
HETATM   18  C   UNL     1       8.269  29.688  58.418  1.00  0.00    -0.018 A 
HETATM   19  C   UNL     1       9.356  29.664  57.556  1.00  0.00     0.076 A 
HETATM   20  C   UNL     1       8.141  30.688  59.366  1.00  0.00     0.010 A 
HETATM   21  O   UNL     1       9.324  28.623  56.665  1.00  0.00    -0.335 OA
HETATM   22  C   UNL     1      10.345  30.623  57.594  1.00  0.00     0.037 A 
HETATM   23  C   UNL     1      10.234  31.634  58.551  1.00  0.00     0.003 A 
HETATM   24  C   UNL     1       9.139  31.666  59.432  1.00  0.00     0.001 A 
ENDBRANCH  12  15
ENDBRANCH   1  11
BRANCH   8  25
HETATM   25  C   UNL     1       3.668  29.017  51.313  1.00  0.00     0.270 C 
HETATM   26  N   UNL     1       2.366  28.738  51.625  1.00  0.00    -0.365 N 
HETATM   27  H   UNL     1       2.082  27.768  51.697  1.00  0.00     0.159 HD
HETATM   28  H   UNL     1       1.725  29.490  51.822  1.00  0.00     0.159 HD
HETATM   29  O   UNL     1       4.075  30.172  51.240  1.00  0.00    -0.266 OA
ENDBRANCH   8  25
TORSDOF 3
ENDMDL
MODEL 10
REMARK VINA RESULT:      -8.6      4.816      7.670
REMARK  3 active torsions:
REMARK  status: ('A' for Active; 'I' for Inactive)
REMARK    1  A    between atoms: C_3  and  C_4 
REMARK       I    between atoms: C_4  and  N_5 
REMARK    2  A    between atoms: N_5  and  C_6 
REMARK    3  A    between atoms: C_13  and  C_14 
REMARK       I    between atoms: C_14  and  N_15 
ROOT
HETATM    1  C   UNL     1       7.281  24.939  52.767  1.00  0.00     0.035 A 
HETATM    2  C   UNL     1       7.197  25.535  54.036  1.00  0.00     0.046 A 
HETATM    3  C   UNL     1       7.775  24.892  55.149  1.00  0.00     0.030 A 
HETATM    4  C   UNL     1       8.389  23.661  54.966  1.00  0.00     0.063 A 
HETATM    5  N   UNL     1       8.834  23.290  56.204  1.00  0.00    -0.277 N 
HETATM    6  H   UNL     1       9.325  22.438  56.449  1.00  0.00     0.189 HD
HETATM    7  N   UNL     1       8.588  24.188  57.175  1.00  0.00    -0.168 NA
HETATM    8  C   UNL     1       7.935  25.184  56.536  1.00  0.00     0.156 A 
HETATM    9  C   UNL     1       8.472  23.031  53.723  1.00  0.00     0.034 A 
HETATM   10  C   UNL     1       7.913  23.702  52.624  1.00  0.00     0.032 A 
ENDROOT
BRANCH   1  11
HETATM   11  N   UNL     1       6.708  25.651  51.697  1.00  0.00    -0.325 N 
HETATM   12  C   UNL     1       5.399  25.608  51.247  1.00  0.00     0.252 C 
HETATM   13  O   UNL     1       4.494  24.908  51.696  1.00  0.00    -0.270 OA
HETATM   14  H   UNL     1       7.329  26.253  51.164  1.00  0.00     0.169 HD
BRANCH  12  15
HETATM   15  C   UNL     1       5.172  26.476  50.005  1.00  0.00     0.229 C 
HETATM   16  C   UNL     1       4.964  27.974  50.323  1.00  0.00     0.056 C 
HETATM   17  C   UNL     1       4.255  28.290  51.638  1.00  0.00     0.018 C 
HETATM   18  C   UNL     1       4.091  28.310  49.163  1.00  0.00    -0.018 A 
HETATM   19  C   UNL     1       3.590  27.141  48.609  1.00  0.00     0.076 A 
HETATM   20  C   UNL     1       3.723  29.545  48.659  1.00  0.00     0.010 A 
HETATM   21  O   UNL     1       4.035  26.006  49.235  1.00  0.00    -0.335 OA
HETATM   22  C   UNL     1       2.707  27.150  47.551  1.00  0.00     0.037 A 
HETATM   23  C   UNL     1       2.333  28.388  47.026  1.00  0.00     0.003 A 
HETATM   24  C   UNL     1       2.838  29.579  47.577  1.00  0.00     0.001 A 
ENDBRANCH  12  15
ENDBRANCH   1  11
BRANCH   8  25
HETATM   25  C   UNL     1       7.495  26.393  57.245  1.00  0.00     0.270 C 
HETATM   26  N   UNL     1       6.149  26.624  57.175  1.00  0.00    -0.365 N 
HETATM   27  H   UNL     1       5.570  25.963  56.673  1.00  0.00     0.159 HD
HETATM   28  H   UNL     1       5.750  27.414  57.658  1.00  0.00     0.159 HD
HETATM   29  O   UNL     1       8.242  27.144  57.864  1.00  0.00    -0.266 OA
ENDBRANCH   8  25
TORSDOF 3
ENDMDL
