MODEL 1
REMARK VINA RESULT:     -10.4      0.000      0.000
REMARK  5 active torsions:
REMARK  status: ('A' for Active; 'I' for Inactive)
REMARK    1  A    between atoms: O_2  and  C_3 
REMARK    2  A    between atoms: C_4  and  O_5 
REMARK    3  A    between atoms: C_6  and  C_7 
REMARK    4  A    between atoms: N_8  and  N_9 
REMARK       I    between atoms: N_9  and  C_10 
REMARK    5  A    between atoms: C_10  and  C_11 
ROOT
HETATM    1  N   UNL     1       7.771  27.057  57.170  1.00  0.00    -0.242 N 
HETATM    2  C   UNL     1       6.535  26.614  56.723  1.00  0.00     0.292 C 
HETATM    3  O   UNL     1       5.450  27.052  57.100  1.00  0.00    -0.264 OA
HETATM    4  H   UNL     1       8.601  26.607  56.790  1.00  0.00     0.192 HD
ENDROOT
BRANCH   2   5
HETATM    5  C   UNL     1       6.642  25.531  55.731  1.00  0.00     0.154 A 
HETATM    6  N   UNL     1       6.057  25.604  54.511  1.00  0.00    -0.168 NA
HETATM    7  N   UNL     1       6.401  24.444  53.909  1.00  0.00    -0.276 N 
HETATM    8  H   UNL     1       6.064  24.271  52.969  1.00  0.00     0.189 HD
HETATM    9  C   UNL     1       7.179  23.638  54.681  1.00  0.00     0.069 A 
HETATM   10  C   UNL     1       7.346  24.308  55.872  1.00  0.00     0.007 A 
HETATM   11  C   UNL     1       7.749  22.333  54.389  1.00  0.00    -0.001 A 
HETATM   12  C   UNL     1       8.173  23.749  56.974  1.00  0.00     0.048 C 
HETATM   13  C   UNL     1       8.239  22.206  56.892  1.00  0.00     0.044 C 
HETATM   14  C   UNL     1       8.331  21.640  55.479  1.00  0.00    -0.045 A 
HETATM   15  C   UNL     1       8.908  20.381  55.269  1.00  0.00     0.008 A 
HETATM   16  C   UNL     1       8.928  19.827  53.989  1.00  0.00     0.001 A 
HETATM   17  C   UNL     1       8.364  20.517  52.916  1.00  0.00     0.001 A 
HETATM   18  C   UNL     1       7.772  21.768  53.112  1.00  0.00     0.014 A 
ENDBRANCH   2   5
BRANCH   1  19
HETATM   19  N   UNL     1       7.851  28.050  58.095  1.00  0.00    -0.183 NA
HETATM   20  C   UNL     1       8.222  29.212  57.661  1.00  0.00     0.153 C 
BRANCH  20  21
HETATM   21  C   UNL     1       8.340  30.356  58.590  1.00  0.00     0.019 A 
HETATM   22  C   UNL     1       7.206  31.031  59.041  1.00  0.00     0.110 A 
HETATM   23  C   UNL     1       7.321  32.122  59.917  1.00  0.00     0.102 A 
HETATM   24  C   UNL     1       8.587  32.529  60.343  1.00  0.00     0.040 A 
HETATM   25  C   UNL     1       9.726  31.854  59.895  1.00  0.00     0.004 A 
HETATM   26  C   UNL     1       9.605  30.773  59.021  1.00  0.00     0.016 A 
BRANCH  22  27
HETATM   27  O   UNL     1       5.955  30.642  58.631  1.00  0.00    -0.357 OA
HETATM   28  H   UNL     1       5.698  29.925  59.245  1.00  0.00     0.218 HD
ENDBRANCH  22  27
BRANCH  23  29
HETATM   29  O   UNL     1       6.129  32.700  60.280  1.00  0.00    -0.353 OA
HETATM   30  C   UNL     1       5.746  32.563  61.644  1.00  0.00     0.210 C 
ENDBRANCH  23  29
ENDBRANCH  20  21
ENDBRANCH   1  19
TORSDOF 5
ENDMDL
MODEL 2
REMARK VINA RESULT:     -10.0      2.393     10.121
REMARK  5 active torsions:
REMARK  status: ('A' for Active; 'I' for Inactive)
REMARK    1  A    between atoms: O_2  and  C_3 
REMARK    2  A    between atoms: C_4  and  O_5 
REMARK    3  A    between atoms: C_6  and  C_7 
REMARK    4  A    between atoms: N_8  and  N_9 
REMARK       I    between atoms: N_9  and  C_10 
REMARK    5  A    between atoms: C_10  and  C_11 
ROOT
HETATM    1  N   UNL     1       7.546  28.391  57.795  1.00  0.00    -0.242 N 
HETATM    2  C   UNL     1       8.367  29.490  57.992  1.00  0.00     0.292 C 
HETATM    3  O   UNL     1       9.526  29.585  57.593  1.00  0.00    -0.264 OA
HETATM    4  H   UNL     1       6.606  28.427  58.184  1.00  0.00     0.192 HD
ENDROOT
BRANCH   2   5
HETATM    5  C   UNL     1       7.708  30.566  58.752  1.00  0.00     0.154 A 
HETATM    6  N   UNL     1       6.732  31.339  58.218  1.00  0.00    -0.168 NA
HETATM    7  N   UNL     1       6.386  32.175  59.222  1.00  0.00    -0.276 N 
HETATM    8  H   UNL     1       5.662  32.862  59.048  1.00  0.00     0.189 HD
HETATM    9  C   UNL     1       7.088  31.971  60.369  1.00  0.00     0.069 A 
HETATM   10  C   UNL     1       7.961  30.941  60.095  1.00  0.00     0.007 A 
HETATM   11  C   UNL     1       7.002  32.653  61.650  1.00  0.00    -0.001 A 
HETATM   12  C   UNL     1       8.889  30.408  61.129  1.00  0.00     0.048 C 
HETATM   13  C   UNL     1       9.202  31.477  62.200  1.00  0.00     0.044 C 
HETATM   14  C   UNL     1       8.024  32.364  62.589  1.00  0.00    -0.045 A 
HETATM   15  C   UNL     1       7.998  32.978  63.848  1.00  0.00     0.008 A 
HETATM   16  C   UNL     1       6.960  33.847  64.180  1.00  0.00     0.001 A 
HETATM   17  C   UNL     1       5.950  34.120  63.257  1.00  0.00     0.001 A 
HETATM   18  C   UNL     1       5.968  33.527  61.993  1.00  0.00     0.014 A 
ENDBRANCH   2   5
BRANCH   1  19
HETATM   19  N   UNL     1       8.002  27.304  57.117  1.00  0.00    -0.183 NA
HETATM   20  C   UNL     1       7.118  26.625  56.459  1.00  0.00     0.153 C 
BRANCH  20  21
HETATM   21  C   UNL     1       7.516  25.426  55.690  1.00  0.00     0.019 A 
HETATM   22  C   UNL     1       7.933  24.265  56.340  1.00  0.00     0.110 A 
HETATM   23  C   UNL     1       8.318  23.130  55.607  1.00  0.00     0.102 A 
HETATM   24  C   UNL     1       8.275  23.169  54.212  1.00  0.00     0.040 A 
HETATM   25  C   UNL     1       7.857  24.330  53.556  1.00  0.00     0.004 A 
HETATM   26  C   UNL     1       7.479  25.455  54.291  1.00  0.00     0.016 A 
BRANCH  22  27
HETATM   27  O   UNL     1       7.979  24.212  57.711  1.00  0.00    -0.357 OA
HETATM   28  H   UNL     1       7.982  23.258  57.928  1.00  0.00     0.218 HD
ENDBRANCH  22  27
BRANCH  23  29
HETATM   29  O   UNL     1       8.711  22.057  56.368  1.00  0.00    -0.353 OA
HETATM   30  C   UNL     1       8.043  20.824  56.121  1.00  0.00     0.210 C 
ENDBRANCH  23  29
ENDBRANCH  20  21
ENDBRANCH   1  19
TORSDOF 5
ENDMDL
MODEL 3
REMARK VINA RESULT:      -9.6      2.798      3.424
REMARK  5 active torsions:
REMARK  status: ('A' for Active; 'I' for Inactive)
REMARK    1  A    between atoms: O_2  and  C_3 
REMARK    2  A    between atoms: C_4  and  O_5 
REMARK    3  A    between atoms: C_6  and  C_7 
REMARK    4  A    between atoms: N_8  and  N_9 
REMARK       I    between atoms: N_9  and  C_10 
REMARK    5  A    between atoms: C_10  and  C_11 
ROOT
HETATM    1  N   UNL     1       6.437  27.676  57.418  1.00  0.00    -0.242 N 
HETATM    2  C   UNL     1       7.719  27.377  56.983  1.00  0.00     0.292 C 
HETATM    3  O   UNL     1       8.579  28.207  56.697  1.00  0.00    -0.264 OA
HETATM    4  H   UNL     1       5.810  26.898  57.614  1.00  0.00     0.192 HD
ENDROOT
BRANCH   2   5
HETATM    5  C   UNL     1       7.964  25.927  56.884  1.00  0.00     0.154 A 
HETATM    6  N   UNL     1       8.360  25.185  57.946  1.00  0.00    -0.168 NA
HETATM    7  N   UNL     1       8.455  23.929  57.455  1.00  0.00    -0.276 N 
HETATM    8  H   UNL     1       8.748  23.188  58.080  1.00  0.00     0.189 HD
HETATM    9  C   UNL     1       8.135  23.834  56.136  1.00  0.00     0.069 A 
HETATM   10  C   UNL     1       7.822  25.113  55.733  1.00  0.00     0.007 A 
HETATM   11  C   UNL     1       8.109  22.671  55.263  1.00  0.00    -0.001 A 
HETATM   12  C   UNL     1       7.388  25.410  54.342  1.00  0.00     0.048 C 
HETATM   13  C   UNL     1       7.935  24.356  53.351  1.00  0.00     0.044 C 
HETATM   14  C   UNL     1       7.951  22.925  53.878  1.00  0.00    -0.045 A 
HETATM   15  C   UNL     1       7.908  21.851  52.980  1.00  0.00     0.008 A 
HETATM   16  C   UNL     1       7.995  20.542  53.452  1.00  0.00     0.001 A 
HETATM   17  C   UNL     1       8.139  20.296  54.818  1.00  0.00     0.001 A 
HETATM   18  C   UNL     1       8.199  21.356  55.725  1.00  0.00     0.014 A 
ENDBRANCH   2   5
BRANCH   1  19
HETATM   19  N   UNL     1       6.043  28.970  57.558  1.00  0.00    -0.183 NA
HETATM   20  C   UNL     1       5.202  29.413  56.680  1.00  0.00     0.153 C 
BRANCH  20  21
HETATM   21  C   UNL     1       4.714  30.807  56.747  1.00  0.00     0.019 A 
HETATM   22  C   UNL     1       3.999  31.263  57.854  1.00  0.00     0.110 A 
HETATM   23  C   UNL     1       3.530  32.585  57.912  1.00  0.00     0.102 A 
HETATM   24  C   UNL     1       3.791  33.452  56.849  1.00  0.00     0.040 A 
HETATM   25  C   UNL     1       4.508  33.000  55.738  1.00  0.00     0.004 A 
HETATM   26  C   UNL     1       4.968  31.683  55.685  1.00  0.00     0.016 A 
BRANCH  22  27
HETATM   27  O   UNL     1       3.736  30.422  58.907  1.00  0.00    -0.357 OA
HETATM   28  H   UNL     1       4.545  29.881  59.009  1.00  0.00     0.218 HD
ENDBRANCH  22  27
BRANCH  23  29
HETATM   29  O   UNL     1       2.837  32.903  59.054  1.00  0.00    -0.353 OA
HETATM   30  C   UNL     1       3.339  33.994  59.819  1.00  0.00     0.210 C 
ENDBRANCH  23  29
ENDBRANCH  20  21
ENDBRANCH   1  19
TORSDOF 5
ENDMDL
MODEL 4
REMARK VINA RESULT:      -9.6      2.478     10.530
REMARK  5 active torsions:
REMARK  status: ('A' for Active; 'I' for Inactive)
REMARK    1  A    between atoms: O_2  and  C_3 
REMARK    2  A    between atoms: C_4  and  O_5 
REMARK    3  A    between atoms: C_6  and  C_7 
REMARK    4  A    between atoms: N_8  and  N_9 
REMARK       I    between atoms: N_9  and  C_10 
REMARK    5  A    between atoms: C_10  and  C_11 
ROOT
HETATM    1  N   UNL     1       7.653  28.977  58.616  1.00  0.00    -0.242 N 
HETATM    2  C   UNL     1       8.518  30.041  58.823  1.00  0.00     0.292 C 
HETATM    3  O   UNL     1       9.271  30.514  57.974  1.00  0.00    -0.264 OA
HETATM    4  H   UNL     1       7.085  28.668  59.402  1.00  0.00     0.192 HD
ENDROOT
BRANCH   2   5
HETATM    5  C   UNL     1       8.456  30.567  60.198  1.00  0.00     0.154 A 
HETATM    6  N   UNL     1       9.246  30.093  61.191  1.00  0.00    -0.168 NA
HETATM    7  N   UNL     1       8.902  30.834  62.269  1.00  0.00    -0.276 N 
HETATM    8  H   UNL     1       9.368  30.648  63.149  1.00  0.00     0.189 HD
HETATM    9  C   UNL     1       7.938  31.758  62.010  1.00  0.00     0.069 A 
HETATM   10  C   UNL     1       7.619  31.605  60.679  1.00  0.00     0.007 A 
HETATM   11  C   UNL     1       7.318  32.732  62.894  1.00  0.00    -0.001 A 
HETATM   12  C   UNL     1       6.610  32.470  60.013  1.00  0.00     0.048 C 
HETATM   13  C   UNL     1       5.591  33.025  61.034  1.00  0.00     0.044 C 
HETATM   14  C   UNL     1       6.180  33.409  62.388  1.00  0.00    -0.045 A 
HETATM   15  C   UNL     1       5.537  34.368  63.181  1.00  0.00     0.008 A 
HETATM   16  C   UNL     1       6.032  34.669  64.450  1.00  0.00     0.001 A 
HETATM   17  C   UNL     1       7.158  34.009  64.940  1.00  0.00     0.001 A 
HETATM   18  C   UNL     1       7.802  33.040  64.167  1.00  0.00     0.014 A 
ENDBRANCH   2   5
BRANCH   1  19
HETATM   19  N   UNL     1       7.590  28.369  57.401  1.00  0.00    -0.183 NA
HETATM   20  C   UNL     1       7.527  27.076  57.408  1.00  0.00     0.153 C 
BRANCH  20  21
HETATM   21  C   UNL     1       7.456  26.324  56.137  1.00  0.00     0.019 A 
HETATM   22  C   UNL     1       7.404  24.930  56.133  1.00  0.00     0.110 A 
HETATM   23  C   UNL     1       7.345  24.217  54.925  1.00  0.00     0.102 A 
HETATM   24  C   UNL     1       7.332  24.916  53.716  1.00  0.00     0.040 A 
HETATM   25  C   UNL     1       7.382  26.313  53.715  1.00  0.00     0.004 A 
HETATM   26  C   UNL     1       7.446  27.015  54.920  1.00  0.00     0.016 A 
BRANCH  22  27
HETATM   27  O   UNL     1       7.415  24.229  57.313  1.00  0.00    -0.357 OA
HETATM   28  H   UNL     1       8.327  24.321  57.655  1.00  0.00     0.218 HD
ENDBRANCH  22  27
BRANCH  23  29
HETATM   29  O   UNL     1       7.302  22.851  55.061  1.00  0.00    -0.353 OA
HETATM   30  C   UNL     1       8.036  22.094  54.104  1.00  0.00     0.210 C 
ENDBRANCH  23  29
ENDBRANCH  20  21
ENDBRANCH   1  19
TORSDOF 5
ENDMDL
MODEL 5
REMARK VINA RESULT:      -9.5      5.713      8.422
REMARK  5 active torsions:
REMARK  status: ('A' for Active; 'I' for Inactive)
REMARK    1  A    between atoms: O_2  and  C_3 
REMARK    2  A    between atoms: C_4  and  O_5 
REMARK    3  A    between atoms: C_6  and  C_7 
REMARK    4  A    between atoms: N_8  and  N_9 
REMARK       I    between atoms: N_9  and  C_10 
REMARK    5  A    between atoms: C_10  and  C_11 
ROOT
HETATM    1  N   UNL     1       5.500  26.444  52.458  1.00  0.00    -0.242 N 
HETATM    2  C   UNL     1       6.487  26.988  53.266  1.00  0.00     0.292 C 
HETATM    3  O   UNL     1       6.894  28.146  53.200  1.00  0.00    -0.264 OA
HETATM    4  H   UNL     1       5.256  25.467  52.603  1.00  0.00     0.192 HD
ENDROOT
BRANCH   2   5
HETATM    5  C   UNL     1       7.027  26.021  54.238  1.00  0.00     0.154 A 
HETATM    6  N   UNL     1       7.406  26.383  55.487  1.00  0.00    -0.168 NA
HETATM    7  N   UNL     1       7.818  25.228  56.055  1.00  0.00    -0.276 N 
HETATM    8  H   UNL     1       8.159  25.255  57.009  1.00  0.00     0.189 HD
HETATM    9  C   UNL     1       7.714  24.148  55.233  1.00  0.00     0.069 A 
HETATM   10  C   UNL     1       7.214  24.630  54.044  1.00  0.00     0.007 A 
HETATM   11  C   UNL     1       8.045  22.754  55.479  1.00  0.00    -0.001 A 
HETATM   12  C   UNL     1       6.934  23.730  52.894  1.00  0.00     0.048 C 
HETATM   13  C   UNL     1       7.815  22.461  52.952  1.00  0.00     0.044 C 
HETATM   14  C   UNL     1       8.039  21.896  54.351  1.00  0.00    -0.045 A 
HETATM   15  C   UNL     1       8.338  20.537  54.515  1.00  0.00     0.008 A 
HETATM   16  C   UNL     1       8.616  20.032  55.784  1.00  0.00     0.001 A 
HETATM   17  C   UNL     1       8.609  20.877  56.894  1.00  0.00     0.001 A 
HETATM   18  C   UNL     1       8.327  22.237  56.745  1.00  0.00     0.014 A 
ENDBRANCH   2   5
BRANCH   1  19
HETATM   19  N   UNL     1       4.901  27.201  51.501  1.00  0.00    -0.183 NA
HETATM   20  C   UNL     1       4.902  26.717  50.301  1.00  0.00     0.153 C 
BRANCH  20  21
HETATM   21  C   UNL     1       4.275  27.466  49.191  1.00  0.00     0.019 A 
HETATM   22  C   UNL     1       3.257  26.895  48.427  1.00  0.00     0.110 A 
HETATM   23  C   UNL     1       2.669  27.605  47.368  1.00  0.00     0.102 A 
HETATM   24  C   UNL     1       3.107  28.900  47.085  1.00  0.00     0.040 A 
HETATM   25  C   UNL     1       4.125  29.478  47.849  1.00  0.00     0.004 A 
HETATM   26  C   UNL     1       4.708  28.764  48.897  1.00  0.00     0.016 A 
BRANCH  22  27
HETATM   27  O   UNL     1       2.816  25.623  48.694  1.00  0.00    -0.357 OA
HETATM   28  H   UNL     1       2.725  25.584  49.668  1.00  0.00     0.218 HD
ENDBRANCH  22  27
BRANCH  23  29
HETATM   29  O   UNL     1       1.684  26.926  46.694  1.00  0.00    -0.353 OA
HETATM   30  C   UNL     1       0.479  27.642  46.440  1.00  0.00     0.210 C 
ENDBRANCH  23  29
ENDBRANCH  20  21
ENDBRANCH   1  19
TORSDOF 5
ENDMDL
MODEL 6
REMARK VINA RESULT:      -9.5      7.886     11.630
REMARK  5 active torsions:
REMARK  status: ('A' for Active; 'I' for Inactive)
REMARK    1  A    between atoms: O_2  and  C_3 
REMARK    2  A    between atoms: C_4  and  O_5 
REMARK    3  A    between atoms: C_6  and  C_7 
REMARK    4  A    between atoms: N_8  and  N_9 
REMARK       I    between atoms: N_9  and  C_10 
REMARK    5  A    between atoms: C_10  and  C_11 
ROOT
HETATM    1  N   UNL     1       5.786  33.540  65.865  1.00  0.00    -0.242 N 
HETATM    2  C   UNL     1       4.685  33.574  65.022  1.00  0.00     0.292 C 
HETATM    3  O   UNL     1       3.576  34.007  65.327  1.00  0.00    -0.264 OA
HETATM    4  H   UNL     1       6.650  33.147  65.499  1.00  0.00     0.192 HD
ENDROOT
BRANCH   2   5
HETATM    5  C   UNL     1       4.971  33.020  63.688  1.00  0.00     0.154 A 
HETATM    6  N   UNL     1       3.991  32.610  62.847  1.00  0.00    -0.168 NA
HETATM    7  N   UNL     1       4.653  32.194  61.745  1.00  0.00    -0.276 N 
HETATM    8  H   UNL     1       4.113  31.831  60.968  1.00  0.00     0.189 HD
HETATM    9  C   UNL     1       6.004  32.323  61.839  1.00  0.00     0.069 A 
HETATM   10  C   UNL     1       6.244  32.845  63.090  1.00  0.00     0.007 A 
HETATM   11  C   UNL     1       7.041  31.996  60.874  1.00  0.00    -0.001 A 
HETATM   12  C   UNL     1       7.622  33.157  63.554  1.00  0.00     0.048 C 
HETATM   13  C   UNL     1       8.667  32.283  62.823  1.00  0.00     0.044 C 
HETATM   14  C   UNL     1       8.377  32.032  61.347  1.00  0.00    -0.045 A 
HETATM   15  C   UNL     1       9.429  31.738  60.470  1.00  0.00     0.008 A 
HETATM   16  C   UNL     1       9.161  31.436  59.135  1.00  0.00     0.001 A 
HETATM   17  C   UNL     1       7.846  31.412  58.670  1.00  0.00     0.001 A 
HETATM   18  C   UNL     1       6.785  31.689  59.536  1.00  0.00     0.014 A 
ENDBRANCH   2   5
BRANCH   1  19
HETATM   19  N   UNL     1       5.691  34.008  67.138  1.00  0.00    -0.183 NA
HETATM   20  C   UNL     1       6.808  34.235  67.751  1.00  0.00     0.153 C 
BRANCH  20  21
HETATM   21  C   UNL     1       6.810  34.745  69.139  1.00  0.00     0.019 A 
HETATM   22  C   UNL     1       6.031  34.138  70.125  1.00  0.00     0.110 A 
HETATM   23  C   UNL     1       6.028  34.629  71.441  1.00  0.00     0.102 A 
HETATM   24  C   UNL     1       6.820  35.733  71.762  1.00  0.00     0.040 A 
HETATM   25  C   UNL     1       7.603  36.343  70.778  1.00  0.00     0.004 A 
HETATM   26  C   UNL     1       7.598  35.852  69.471  1.00  0.00     0.016 A 
BRANCH  22  27
HETATM   27  O   UNL     1       5.248  33.052  69.824  1.00  0.00    -0.357 OA
HETATM   28  H   UNL     1       5.807  32.273  70.023  1.00  0.00     0.218 HD
ENDBRANCH  22  27
BRANCH  23  29
HETATM   29  O   UNL     1       5.215  33.945  72.311  1.00  0.00    -0.353 OA
HETATM   30  C   UNL     1       4.810  34.643  73.484  1.00  0.00     0.210 C 
ENDBRANCH  23  29
ENDBRANCH  20  21
ENDBRANCH   1  19
TORSDOF 5
ENDMDL
MODEL 7
REMARK VINA RESULT:      -9.2      2.743      3.583
REMARK  5 active torsions:
REMARK  status: ('A' for Active; 'I' for Inactive)
REMARK    1  A    between atoms: O_2  and  C_3 
REMARK    2  A    between atoms: C_4  and  O_5 
REMARK    3  A    between atoms: C_6  and  C_7 
REMARK    4  A    between atoms: N_8  and  N_9 
REMARK       I    between atoms: N_9  and  C_10 
REMARK    5  A    between atoms: C_10  and  C_11 
ROOT
HETATM    1  N   UNL     1       6.725  28.014  56.514  1.00  0.00    -0.242 N 
HETATM    2  C   UNL     1       7.979  27.558  56.892  1.00  0.00     0.292 C 
HETATM    3  O   UNL     1       8.922  28.275  57.217  1.00  0.00    -0.264 OA
HETATM    4  H   UNL     1       6.026  27.320  56.257  1.00  0.00     0.192 HD
ENDROOT
BRANCH   2   5
HETATM    5  C   UNL     1       8.084  26.089  56.863  1.00  0.00     0.154 A 
HETATM    6  N   UNL     1       8.335  25.357  57.974  1.00  0.00    -0.168 NA
HETATM    7  N   UNL     1       8.336  24.078  57.536  1.00  0.00    -0.276 N 
HETATM    8  H   UNL     1       8.513  23.340  58.206  1.00  0.00     0.189 HD
HETATM    9  C   UNL     1       8.092  23.959  56.203  1.00  0.00     0.069 A 
HETATM   10  C   UNL     1       7.934  25.244  55.734  1.00  0.00     0.007 A 
HETATM   11  C   UNL     1       8.006  22.768  55.373  1.00  0.00    -0.001 A 
HETATM   12  C   UNL     1       7.621  25.522  54.307  1.00  0.00     0.048 C 
HETATM   13  C   UNL     1       8.123  24.379  53.394  1.00  0.00     0.044 C 
HETATM   14  C   UNL     1       7.962  22.976  53.972  1.00  0.00    -0.045 A 
HETATM   15  C   UNL     1       7.869  21.875  53.112  1.00  0.00     0.008 A 
HETATM   16  C   UNL     1       7.795  20.584  53.636  1.00  0.00     0.001 A 
HETATM   17  C   UNL     1       7.827  20.384  55.016  1.00  0.00     0.001 A 
HETATM   18  C   UNL     1       7.934  21.471  55.887  1.00  0.00     0.014 A 
ENDBRANCH   2   5
BRANCH   1  19
HETATM   19  N   UNL     1       6.461  29.347  56.481  1.00  0.00    -0.183 NA
HETATM   20  C   UNL     1       5.669  29.800  57.400  1.00  0.00     0.153 C 
BRANCH  20  21
HETATM   21  C   UNL     1       5.320  31.236  57.447  1.00  0.00     0.019 A 
HETATM   22  C   UNL     1       5.011  31.935  56.281  1.00  0.00     0.110 A 
HETATM   23  C   UNL     1       4.688  33.301  56.327  1.00  0.00     0.102 A 
HETATM   24  C   UNL     1       4.672  33.960  57.558  1.00  0.00     0.040 A 
HETATM   25  C   UNL     1       4.979  33.263  58.729  1.00  0.00     0.004 A 
HETATM   26  C   UNL     1       5.304  31.906  58.675  1.00  0.00     0.016 A 
BRANCH  22  27
HETATM   27  O   UNL     1       5.022  31.301  55.064  1.00  0.00    -0.357 OA
HETATM   28  H   UNL     1       4.514  31.887  54.467  1.00  0.00     0.218 HD
ENDBRANCH  22  27
BRANCH  23  29
HETATM   29  O   UNL     1       4.409  33.871  55.109  1.00  0.00    -0.353 OA
HETATM   30  C   UNL     1       5.393  34.754  54.580  1.00  0.00     0.210 C 
ENDBRANCH  23  29
ENDBRANCH  20  21
ENDBRANCH   1  19
TORSDOF 5
ENDMDL
MODEL 8
REMARK VINA RESULT:      -9.2      9.184     13.261
REMARK  5 active torsions:
REMARK  status: ('A' for Active; 'I' for Inactive)
REMARK    1  A    between atoms: O_2  and  C_3 
REMARK    2  A    between atoms: C_4  and  O_5 
REMARK    3  A    between atoms: C_6  and  C_7 
REMARK    4  A    between atoms: N_8  and  N_9 
REMARK       I    between atoms: N_9  and  C_10 
REMARK    5  A    between atoms: C_10  and  C_11 
ROOT
HETATM    1  N   UNL     1       5.081  33.772  67.644  1.00  0.00    -0.242 N 
HETATM    2  C   UNL     1       4.534  34.623  66.696  1.00  0.00     0.292 C 
HETATM    3  O   UNL     1       4.060  35.732  66.932  1.00  0.00    -0.264 OA
HETATM    4  H   UNL     1       5.433  32.872  67.325  1.00  0.00     0.192 HD
ENDROOT
BRANCH   2   5
HETATM    5  C   UNL     1       4.565  34.057  65.336  1.00  0.00     0.154 A 
HETATM    6  N   UNL     1       3.437  33.783  64.638  1.00  0.00    -0.168 NA
HETATM    7  N   UNL     1       3.886  33.304  63.457  1.00  0.00    -0.276 N 
HETATM    8  H   UNL     1       3.205  33.022  62.762  1.00  0.00     0.189 HD
HETATM    9  C   UNL     1       5.243  33.265  63.365  1.00  0.00     0.069 A 
HETATM   10  C   UNL     1       5.714  33.736  64.570  1.00  0.00     0.007 A 
HETATM   11  C   UNL     1       6.091  32.827  62.269  1.00  0.00    -0.001 A 
HETATM   12  C   UNL     1       7.170  33.870  64.841  1.00  0.00     0.048 C 
HETATM   13  C   UNL     1       7.990  32.885  63.977  1.00  0.00     0.044 C 
HETATM   14  C   UNL     1       7.473  32.692  62.555  1.00  0.00    -0.045 A 
HETATM   15  C   UNL     1       8.351  32.284  61.543  1.00  0.00     0.008 A 
HETATM   16  C   UNL     1       7.869  32.036  60.258  1.00  0.00     0.001 A 
HETATM   17  C   UNL     1       6.511  32.181  59.977  1.00  0.00     0.001 A 
HETATM   18  C   UNL     1       5.620  32.574  60.979  1.00  0.00     0.014 A 
ENDBRANCH   2   5
BRANCH   1  19
HETATM   19  N   UNL     1       5.125  34.139  68.953  1.00  0.00    -0.183 NA
HETATM   20  C   UNL     1       6.255  34.602  69.382  1.00  0.00     0.153 C 
BRANCH  20  21
HETATM   21  C   UNL     1       6.402  35.027  70.791  1.00  0.00     0.019 A 
HETATM   22  C   UNL     1       7.421  35.901  71.171  1.00  0.00     0.110 A 
HETATM   23  C   UNL     1       7.564  36.298  72.510  1.00  0.00     0.102 A 
HETATM   24  C   UNL     1       6.671  35.813  73.468  1.00  0.00     0.040 A 
HETATM   25  C   UNL     1       5.648  34.939  73.091  1.00  0.00     0.004 A 
HETATM   26  C   UNL     1       5.514  34.546  71.758  1.00  0.00     0.016 A 
BRANCH  22  27
HETATM   27  O   UNL     1       8.306  36.386  70.240  1.00  0.00    -0.357 OA
HETATM   28  H   UNL     1       9.058  35.760  70.255  1.00  0.00     0.218 HD
ENDBRANCH  22  27
BRANCH  23  29
HETATM   29  O   UNL     1       8.609  37.156  72.750  1.00  0.00    -0.353 OA
HETATM   30  C   UNL     1       8.266  38.483  73.134  1.00  0.00     0.210 C 
ENDBRANCH  23  29
ENDBRANCH  20  21
ENDBRANCH   1  19
TORSDOF 5
ENDMDL
MODEL 9
REMARK VINA RESULT:      -9.2      5.374      7.294
REMARK  5 active torsions:
REMARK  status: ('A' for Active; 'I' for Inactive)
REMARK    1  A    between atoms: O_2  and  C_3 
REMARK    2  A    between atoms: C_4  and  O_5 
REMARK    3  A    between atoms: C_6  and  C_7 
REMARK    4  A    between atoms: N_8  and  N_9 
REMARK       I    between atoms: N_9  and  C_10 
REMARK    5  A    between atoms: C_10  and  C_11 
ROOT
HETATM    1  N   UNL     1       5.988  26.998  52.707  1.00  0.00    -0.242 N 
HETATM    2  C   UNL     1       5.445  26.857  53.976  1.00  0.00     0.292 C 
HETATM    3  O   UNL     1       4.553  27.560  54.444  1.00  0.00    -0.264 OA
HETATM    4  H   UNL     1       6.733  26.359  52.437  1.00  0.00     0.192 HD
ENDROOT
BRANCH   2   5
HETATM    5  C   UNL     1       6.060  25.757  54.740  1.00  0.00     0.154 A 
HETATM    6  N   UNL     1       6.173  25.787  56.089  1.00  0.00    -0.168 NA
HETATM    7  N   UNL     1       6.763  24.610  56.397  1.00  0.00    -0.276 N 
HETATM    8  H   UNL     1       6.957  24.409  57.371  1.00  0.00     0.189 HD
HETATM    9  C   UNL     1       7.026  23.831  55.313  1.00  0.00     0.069 A 
HETATM   10  C   UNL     1       6.592  24.550  54.222  1.00  0.00     0.007 A 
HETATM   11  C   UNL     1       7.637  22.514  55.236  1.00  0.00    -0.001 A 
HETATM   12  C   UNL     1       6.687  24.006  52.840  1.00  0.00     0.048 C 
HETATM   13  C   UNL     1       7.824  22.965  52.729  1.00  0.00     0.044 C 
HETATM   14  C   UNL     1       7.984  22.053  53.942  1.00  0.00    -0.045 A 
HETATM   15  C   UNL     1       8.567  20.789  53.792  1.00  0.00     0.008 A 
HETATM   16  C   UNL     1       8.781  19.982  54.909  1.00  0.00     0.001 A 
HETATM   17  C   UNL     1       8.429  20.434  56.180  1.00  0.00     0.001 A 
HETATM   18  C   UNL     1       7.859  21.699  56.348  1.00  0.00     0.014 A 
ENDBRANCH   2   5
BRANCH   1  19
HETATM   19  N   UNL     1       5.537  27.972  51.872  1.00  0.00    -0.183 NA
HETATM   20  C   UNL     1       5.537  27.691  50.609  1.00  0.00     0.153 C 
BRANCH  20  21
HETATM   21  C   UNL     1       5.067  28.685  49.620  1.00  0.00     0.019 A 
HETATM   22  C   UNL     1       5.428  30.028  49.729  1.00  0.00     0.110 A 
HETATM   23  C   UNL     1       4.973  30.972  48.795  1.00  0.00     0.102 A 
HETATM   24  C   UNL     1       4.155  30.555  47.742  1.00  0.00     0.040 A 
HETATM   25  C   UNL     1       3.792  29.210  47.628  1.00  0.00     0.004 A 
HETATM   26  C   UNL     1       4.244  28.278  48.564  1.00  0.00     0.016 A 
BRANCH  22  27
HETATM   27  O   UNL     1       6.231  30.452  50.758  1.00  0.00    -0.357 OA
HETATM   28  H   UNL     1       6.640  29.637  51.114  1.00  0.00     0.218 HD
ENDBRANCH  22  27
BRANCH  23  29
HETATM   29  O   UNL     1       5.396  32.258  49.019  1.00  0.00    -0.353 OA
HETATM   30  C   UNL     1       5.890  32.971  47.890  1.00  0.00     0.210 C 
ENDBRANCH  23  29
ENDBRANCH  20  21
ENDBRANCH   1  19
TORSDOF 5
ENDMDL
MODEL 10
REMARK VINA RESULT:      -9.0      2.911      3.034
REMARK  5 active torsions:
REMARK  status: ('A' for Active; 'I' for Inactive)
REMARK    1  A    between atoms: O_2  and  C_3 
REMARK    2  A    between atoms: C_4  and  O_5 
REMARK    3  A    between atoms: C_6  and  C_7 
REMARK    4  A    between atoms: N_8  and  N_9 
REMARK       I    between atoms: N_9  and  C_10 
REMARK    5  A    between atoms: C_10  and  C_11 
ROOT
HETATM    1  N   UNL     1       5.855  28.566  54.912  1.00  0.00    -0.242 N 
HETATM    2  C   UNL     1       7.136  28.096  54.662  1.00  0.00     0.292 C 
HETATM    3  O   UNL     1       8.172  28.716  54.890  1.00  0.00    -0.264 OA
HETATM    4  H   UNL     1       5.073  27.962  54.669  1.00  0.00     0.192 HD
ENDROOT
BRANCH   2   5
HETATM    5  C   UNL     1       7.143  26.745  54.074  1.00  0.00     0.154 A 
HETATM    6  N   UNL     1       6.876  26.523  52.765  1.00  0.00    -0.168 NA
HETATM    7  N   UNL     1       6.999  25.184  52.625  1.00  0.00    -0.276 N 
HETATM    8  H   UNL     1       6.836  24.779  51.711  1.00  0.00     0.189 HD
HETATM    9  C   UNL     1       7.336  24.544  53.777  1.00  0.00     0.069 A 
HETATM   10  C   UNL     1       7.426  25.526  54.738  1.00  0.00     0.007 A 
HETATM   11  C   UNL     1       7.563  23.130  54.026  1.00  0.00    -0.001 A 
HETATM   12  C   UNL     1       7.808  25.212  56.141  1.00  0.00     0.048 C 
HETATM   13  C   UNL     1       7.452  23.751  56.501  1.00  0.00     0.044 C 
HETATM   14  C   UNL     1       7.680  22.739  55.384  1.00  0.00    -0.045 A 
HETATM   15  C   UNL     1       7.910  21.393  55.697  1.00  0.00     0.008 A 
HETATM   16  C   UNL     1       8.046  20.452  54.677  1.00  0.00     0.001 A 
HETATM   17  C   UNL     1       7.942  20.842  53.342  1.00  0.00     0.001 A 
HETATM   18  C   UNL     1       7.699  22.178  53.013  1.00  0.00     0.014 A 
ENDBRANCH   2   5
BRANCH   1  19
HETATM   19  N   UNL     1       5.670  29.802  55.448  1.00  0.00    -0.183 NA
HETATM   20  C   UNL     1       4.843  29.878  56.442  1.00  0.00     0.153 C 
BRANCH  20  21
HETATM   21  C   UNL     1       4.574  31.178  57.093  1.00  0.00     0.019 A 
HETATM   22  C   UNL     1       3.847  31.246  58.281  1.00  0.00     0.110 A 
HETATM   23  C   UNL     1       3.585  32.482  58.894  1.00  0.00     0.102 A 
HETATM   24  C   UNL     1       4.066  33.654  58.306  1.00  0.00     0.040 A 
HETATM   25  C   UNL     1       4.797  33.591  57.116  1.00  0.00     0.004 A 
HETATM   26  C   UNL     1       5.049  32.359  56.510  1.00  0.00     0.016 A 
BRANCH  22  27
HETATM   27  O   UNL     1       3.369  30.103  58.872  1.00  0.00    -0.357 OA
HETATM   28  H   UNL     1       3.477  30.249  59.833  1.00  0.00     0.218 HD
ENDBRANCH  22  27
BRANCH  23  29
HETATM   29  O   UNL     1       2.856  32.409  60.055  1.00  0.00    -0.353 OA
HETATM   30  C   UNL     1       3.419  33.041  61.200  1.00  0.00     0.210 C 
ENDBRANCH  23  29
ENDBRANCH  20  21
ENDBRANCH   1  19
TORSDOF 5
ENDMDL
