MODEL 1
REMARK VINA RESULT:     -10.6      0.000      0.000
REMARK  4 active torsions:
REMARK  status: ('A' for Active; 'I' for Inactive)
REMARK    1  A    between atoms: C_4  and  C_5 
REMARK    2  A    between atoms: C_9  and  C_10 
REMARK       I    between atoms: C_10  and  N_11 
REMARK    3  A    between atoms: N_11  and  N_12 
REMARK    4  A    between atoms: C_13  and  C_14 
ROOT
HETATM    1  C   UNL     1       9.061  29.199  57.562  1.00  0.00     0.289 C 
HETATM    2  N   UNL     1       8.260  28.090  57.785  1.00  0.00    -0.242 N 
HETATM    3  O   UNL     1       9.866  29.294  56.639  1.00  0.00    -0.264 OA
HETATM    4  H   UNL     1       7.629  28.062  58.575  1.00  0.00     0.192 HD
ENDROOT
BRANCH   1   5
HETATM    5  C   UNL     1       8.892  30.266  58.517  1.00  0.00     0.121 A 
HETATM    6  N   UNL     1       9.600  31.430  58.409  1.00  0.00    -0.272 N 
HETATM    7  N   UNL     1       9.356  32.316  59.384  1.00  0.00    -0.174 NA
HETATM    8  H   UNL     1      10.276  31.664  57.686  1.00  0.00     0.189 HD
HETATM    9  C   UNL     1       8.429  31.729  60.156  1.00  0.00     0.089 A 
HETATM   10  C   UNL     1       8.112  30.437  59.644  1.00  0.00     0.071 A 
BRANCH   9  11
HETATM   11  C   UNL     1       7.886  32.389  61.347  1.00  0.00    -0.006 A 
HETATM   12  C   UNL     1       6.772  33.239  61.263  1.00  0.00     0.014 A 
HETATM   13  C   UNL     1       6.257  33.853  62.409  1.00  0.00     0.001 A 
HETATM   14  C   UNL     1       6.847  33.628  63.650  1.00  0.00     0.000 A 
HETATM   15  C   UNL     1       7.955  32.791  63.749  1.00  0.00     0.001 A 
HETATM   16  C   UNL     1       8.472  32.177  62.604  1.00  0.00     0.014 A 
ENDBRANCH   9  11
ENDBRANCH   1   5
BRANCH   2  17
HETATM   17  N   UNL     1       8.347  27.004  56.959  1.00  0.00    -0.182 NA
HETATM   18  C   UNL     1       7.944  25.881  57.458  1.00  0.00     0.168 C 
BRANCH  18  19
HETATM   19  C   UNL     1       8.006  24.687  56.663  1.00  0.00     0.052 A 
HETATM   20  N   UNL     1       8.165  23.426  57.201  1.00  0.00    -0.358 N 
HETATM   21  H   UNL     1       8.247  23.243  58.194  1.00  0.00     0.166 HD
HETATM   22  C   UNL     1       8.186  22.503  56.194  1.00  0.00     0.016 A 
HETATM   23  C   UNL     1       8.035  23.163  54.993  1.00  0.00    -0.033 A 
HETATM   24  C   UNL     1       8.314  21.033  56.382  1.00  0.00     0.057 C 
HETATM   25  C   UNL     1       8.029  22.452  53.682  1.00  0.00     0.040 C 
HETATM   26  C   UNL     1       7.926  24.543  55.288  1.00  0.00     0.040 A 
HETATM   27  C   UNL     1       7.800  20.939  53.877  1.00  0.00     0.005 C 
HETATM   28  C   UNL     1       8.643  20.366  55.033  1.00  0.00     0.006 C 
ENDBRANCH  18  19
ENDBRANCH   2  17
TORSDOF 4
ENDMDL
MODEL 2
REMARK VINA RESULT:      -9.9      1.367      1.840
REMARK  4 active torsions:
REMARK  status: ('A' for Active; 'I' for Inactive)
REMARK    1  A    between atoms: C_4  and  C_5 
REMARK    2  A    between atoms: C_9  and  C_10 
REMARK       I    between atoms: C_10  and  N_11 
REMARK    3  A    between atoms: N_11  and  N_12 
REMARK    4  A    between atoms: C_13  and  C_14 
ROOT
HETATM    1  C   UNL     1       8.329  29.761  58.217  1.00  0.00     0.289 C 
HETATM    2  N   UNL     1       7.634  28.563  58.193  1.00  0.00    -0.242 N 
HETATM    3  O   UNL     1       9.321  29.998  57.531  1.00  0.00    -0.264 OA
HETATM    4  H   UNL     1       6.836  28.420  58.797  1.00  0.00     0.192 HD
ENDROOT
BRANCH   1   5
HETATM    5  C   UNL     1       7.806  30.744  59.134  1.00  0.00     0.121 A 
HETATM    6  N   UNL     1       6.858  31.646  58.739  1.00  0.00    -0.272 N 
HETATM    7  N   UNL     1       6.489  32.511  59.693  1.00  0.00    -0.174 NA
HETATM    8  H   UNL     1       6.436  31.718  57.817  1.00  0.00     0.189 HD
HETATM    9  C   UNL     1       7.201  32.153  60.773  1.00  0.00     0.089 A 
HETATM   10  C   UNL     1       8.043  31.046  60.461  1.00  0.00     0.071 A 
BRANCH   9  11
HETATM   11  C   UNL     1       7.079  32.866  62.049  1.00  0.00    -0.006 A 
HETATM   12  C   UNL     1       6.191  33.942  62.198  1.00  0.00     0.014 A 
HETATM   13  C   UNL     1       6.076  34.606  63.424  1.00  0.00     0.001 A 
HETATM   14  C   UNL     1       6.846  34.204  64.513  1.00  0.00     0.000 A 
HETATM   15  C   UNL     1       7.735  33.141  64.379  1.00  0.00     0.001 A 
HETATM   16  C   UNL     1       7.852  32.478  63.154  1.00  0.00     0.014 A 
ENDBRANCH   9  11
ENDBRANCH   1   5
BRANCH   2  17
HETATM   17  N   UNL     1       8.049  27.545  57.380  1.00  0.00    -0.182 NA
HETATM   18  C   UNL     1       7.229  26.554  57.252  1.00  0.00     0.168 C 
BRANCH  18  19
HETATM   19  C   UNL     1       7.586  25.438  56.422  1.00  0.00     0.052 A 
HETATM   20  N   UNL     1       7.263  25.356  55.083  1.00  0.00    -0.358 N 
HETATM   21  H   UNL     1       6.754  26.074  54.581  1.00  0.00     0.166 HD
HETATM   22  C   UNL     1       7.740  24.182  54.573  1.00  0.00     0.016 A 
HETATM   23  C   UNL     1       8.382  23.496  55.582  1.00  0.00    -0.033 A 
HETATM   24  C   UNL     1       7.612  23.749  53.156  1.00  0.00     0.057 C 
HETATM   25  C   UNL     1       9.009  22.160  55.370  1.00  0.00     0.040 C 
HETATM   26  C   UNL     1       8.281  24.287  56.751  1.00  0.00     0.040 A 
HETATM   27  C   UNL     1       9.198  21.871  53.867  1.00  0.00     0.005 C 
HETATM   28  C   UNL     1       7.955  22.252  53.039  1.00  0.00     0.006 C 
ENDBRANCH  18  19
ENDBRANCH   2  17
TORSDOF 4
ENDMDL
MODEL 3
REMARK VINA RESULT:      -9.5      2.369     10.727
REMARK  4 active torsions:
REMARK  status: ('A' for Active; 'I' for Inactive)
REMARK    1  A    between atoms: C_4  and  C_5 
REMARK    2  A    between atoms: C_9  and  C_10 
REMARK       I    between atoms: C_10  and  N_11 
REMARK    3  A    between atoms: N_11  and  N_12 
REMARK    4  A    between atoms: C_13  and  C_14 
ROOT
HETATM    1  C   UNL     1       6.345  29.435  57.230  1.00  0.00     0.289 C 
HETATM    2  N   UNL     1       7.344  30.208  57.800  1.00  0.00    -0.242 N 
HETATM    3  O   UNL     1       5.164  29.477  57.568  1.00  0.00    -0.264 OA
HETATM    4  H   UNL     1       8.304  30.115  57.493  1.00  0.00     0.192 HD
ENDROOT
BRANCH   1   5
HETATM    5  C   UNL     1       6.792  28.543  56.189  1.00  0.00     0.121 A 
HETATM    6  N   UNL     1       7.455  29.014  55.091  1.00  0.00    -0.272 N 
HETATM    7  N   UNL     1       7.783  28.070  54.198  1.00  0.00    -0.174 NA
HETATM    8  H   UNL     1       7.700  29.983  54.899  1.00  0.00     0.189 HD
HETATM    9  C   UNL     1       7.344  26.923  54.737  1.00  0.00     0.089 A 
HETATM   10  C   UNL     1       6.713  27.179  55.989  1.00  0.00     0.071 A 
BRANCH   9  11
HETATM   11  C   UNL     1       7.518  25.635  54.058  1.00  0.00    -0.006 A 
HETATM   12  C   UNL     1       7.726  25.567  52.671  1.00  0.00     0.014 A 
HETATM   13  C   UNL     1       7.901  24.333  52.037  1.00  0.00     0.001 A 
HETATM   14  C   UNL     1       7.871  23.153  52.779  1.00  0.00     0.000 A 
HETATM   15  C   UNL     1       7.662  23.205  54.154  1.00  0.00     0.001 A 
HETATM   16  C   UNL     1       7.484  24.438  54.789  1.00  0.00     0.014 A 
ENDBRANCH   9  11
ENDBRANCH   1   5
BRANCH   2  17
HETATM   17  N   UNL     1       7.047  31.075  58.814  1.00  0.00    -0.182 NA
HETATM   18  C   UNL     1       7.715  30.913  59.910  1.00  0.00     0.168 C 
BRANCH  18  19
HETATM   19  C   UNL     1       7.463  31.775  61.029  1.00  0.00     0.052 A 
HETATM   20  N   UNL     1       6.516  32.779  61.015  1.00  0.00    -0.358 N 
HETATM   21  H   UNL     1       5.925  32.984  60.218  1.00  0.00     0.166 HD
HETATM   22  C   UNL     1       6.514  33.418  62.221  1.00  0.00     0.016 A 
HETATM   23  C   UNL     1       7.461  32.827  63.031  1.00  0.00    -0.033 A 
HETATM   24  C   UNL     1       5.611  34.539  62.596  1.00  0.00     0.057 C 
HETATM   25  C   UNL     1       7.732  33.294  64.421  1.00  0.00     0.040 C 
HETATM   26  C   UNL     1       8.063  31.792  62.277  1.00  0.00     0.040 A 
HETATM   27  C   UNL     1       6.587  34.189  64.936  1.00  0.00     0.005 C 
HETATM   28  C   UNL     1       6.128  35.214  63.880  1.00  0.00     0.006 C 
ENDBRANCH  18  19
ENDBRANCH   2  17
TORSDOF 4
ENDMDL
MODEL 4
REMARK VINA RESULT:      -9.2      1.802     10.710
REMARK  4 active torsions:
REMARK  status: ('A' for Active; 'I' for Inactive)
REMARK    1  A    between atoms: C_4  and  C_5 
REMARK    2  A    between atoms: C_9  and  C_10 
REMARK       I    between atoms: C_10  and  N_11 
REMARK    3  A    between atoms: N_11  and  N_12 
REMARK    4  A    between atoms: C_13  and  C_14 
ROOT
HETATM    1  C   UNL     1       6.541  27.240  56.726  1.00  0.00     0.289 C 
HETATM    2  N   UNL     1       7.533  28.071  57.222  1.00  0.00    -0.242 N 
HETATM    3  O   UNL     1       5.351  27.335  57.018  1.00  0.00    -0.264 OA
HETATM    4  H   UNL     1       8.499  27.930  56.961  1.00  0.00     0.192 HD
ENDROOT
BRANCH   1   5
HETATM    5  C   UNL     1       7.007  26.216  55.823  1.00  0.00     0.121 A 
HETATM    6  N   UNL     1       7.362  26.516  54.538  1.00  0.00    -0.272 N 
HETATM    7  N   UNL     1       7.750  25.458  53.812  1.00  0.00    -0.174 NA
HETATM    8  H   UNL     1       7.346  27.434  54.102  1.00  0.00     0.189 HD
HETATM    9  C   UNL     1       7.676  24.418  54.657  1.00  0.00     0.089 A 
HETATM   10  C   UNL     1       7.211  24.855  55.932  1.00  0.00     0.071 A 
BRANCH   9  11
HETATM   11  C   UNL     1       8.028  23.058  54.239  1.00  0.00    -0.006 A 
HETATM   12  C   UNL     1       7.701  22.582  52.960  1.00  0.00     0.014 A 
HETATM   13  C   UNL     1       8.052  21.286  52.570  1.00  0.00     0.001 A 
HETATM   14  C   UNL     1       8.733  20.450  53.453  1.00  0.00     0.000 A 
HETATM   15  C   UNL     1       9.060  20.905  54.727  1.00  0.00     0.001 A 
HETATM   16  C   UNL     1       8.708  22.200  55.118  1.00  0.00     0.014 A 
ENDBRANCH   9  11
ENDBRANCH   1   5
BRANCH   2  17
HETATM   17  N   UNL     1       7.216  29.065  58.106  1.00  0.00    -0.182 NA
HETATM   18  C   UNL     1       8.172  29.453  58.885  1.00  0.00     0.168 C 
BRANCH  18  19
HETATM   19  C   UNL     1       7.927  30.488  59.849  1.00  0.00     0.052 A 
HETATM   20  N   UNL     1       6.851  31.349  59.779  1.00  0.00    -0.358 N 
HETATM   21  H   UNL     1       6.151  31.317  59.048  1.00  0.00     0.166 HD
HETATM   22  C   UNL     1       6.893  32.215  60.835  1.00  0.00     0.016 A 
HETATM   23  C   UNL     1       8.000  31.915  61.602  1.00  0.00    -0.033 A 
HETATM   24  C   UNL     1       5.887  33.273  61.116  1.00  0.00     0.057 C 
HETATM   25  C   UNL     1       8.355  32.682  62.830  1.00  0.00     0.040 C 
HETATM   26  C   UNL     1       8.655  30.828  60.977  1.00  0.00     0.040 A 
HETATM   27  C   UNL     1       7.159  33.521  63.322  1.00  0.00     0.005 C 
HETATM   28  C   UNL     1       6.443  34.250  62.168  1.00  0.00     0.006 C 
ENDBRANCH  18  19
ENDBRANCH   2  17
TORSDOF 4
ENDMDL
MODEL 5
REMARK VINA RESULT:      -9.1      8.201     12.105
REMARK  4 active torsions:
REMARK  status: ('A' for Active; 'I' for Inactive)
REMARK    1  A    between atoms: C_4  and  C_5 
REMARK    2  A    between atoms: C_9  and  C_10 
REMARK       I    between atoms: C_10  and  N_11 
REMARK    3  A    between atoms: N_11  and  N_12 
REMARK    4  A    between atoms: C_13  and  C_14 
ROOT
HETATM    1  C   UNL     1       5.185  26.294  51.361  1.00  0.00     0.289 C 
HETATM    2  N   UNL     1       5.069  26.224  49.981  1.00  0.00    -0.242 N 
HETATM    3  O   UNL     1       4.581  27.100  52.064  1.00  0.00    -0.264 OA
HETATM    4  H   UNL     1       5.608  25.550  49.454  1.00  0.00     0.192 HD
ENDROOT
BRANCH   1   5
HETATM    5  C   UNL     1       6.095  25.335  51.938  1.00  0.00     0.121 A 
HETATM    6  N   UNL     1       7.423  25.337  51.613  1.00  0.00    -0.272 N 
HETATM    7  N   UNL     1       8.137  24.372  52.208  1.00  0.00    -0.174 NA
HETATM    8  H   UNL     1       7.891  25.976  50.975  1.00  0.00     0.189 HD
HETATM    9  C   UNL     1       7.254  23.720  52.980  1.00  0.00     0.089 A 
HETATM   10  C   UNL     1       5.958  24.296  52.836  1.00  0.00     0.071 A 
BRANCH   9  11
HETATM   11  C   UNL     1       7.651  22.579  53.811  1.00  0.00    -0.006 A 
HETATM   12  C   UNL     1       7.578  22.638  55.211  1.00  0.00     0.014 A 
HETATM   13  C   UNL     1       7.949  21.538  55.991  1.00  0.00     0.001 A 
HETATM   14  C   UNL     1       8.397  20.367  55.383  1.00  0.00     0.000 A 
HETATM   15  C   UNL     1       8.478  20.295  53.995  1.00  0.00     0.001 A 
HETATM   16  C   UNL     1       8.109  21.394  53.214  1.00  0.00     0.014 A 
ENDBRANCH   9  11
ENDBRANCH   1   5
BRANCH   2  17
HETATM   17  N   UNL     1       4.253  27.097  49.317  1.00  0.00    -0.182 NA
HETATM   18  C   UNL     1       3.322  26.562  48.595  1.00  0.00     0.168 C 
BRANCH  18  19
HETATM   19  C   UNL     1       2.424  27.405  47.858  1.00  0.00     0.052 A 
HETATM   20  N   UNL     1       2.764  28.663  47.405  1.00  0.00    -0.358 N 
HETATM   21  H   UNL     1       3.671  29.089  47.554  1.00  0.00     0.166 HD
HETATM   22  C   UNL     1       1.702  29.209  46.742  1.00  0.00     0.016 A 
HETATM   23  C   UNL     1       0.664  28.301  46.756  1.00  0.00    -0.033 A 
HETATM   24  C   UNL     1       1.695  30.544  46.087  1.00  0.00     0.057 C 
HETATM   25  C   UNL     1      -0.658  28.585  46.128  1.00  0.00     0.040 C 
HETATM   26  C   UNL     1       1.118  27.163  47.464  1.00  0.00     0.040 A 
HETATM   27  C   UNL     1      -0.564  29.781  45.159  1.00  0.00     0.005 C 
HETATM   28  C   UNL     1       0.248  30.949  45.752  1.00  0.00     0.006 C 
ENDBRANCH  18  19
ENDBRANCH   2  17
TORSDOF 4
ENDMDL
MODEL 6
REMARK VINA RESULT:      -8.9      4.812      8.211
REMARK  4 active torsions:
REMARK  status: ('A' for Active; 'I' for Inactive)
REMARK    1  A    between atoms: C_4  and  C_5 
REMARK    2  A    between atoms: C_9  and  C_10 
REMARK       I    between atoms: C_10  and  N_11 
REMARK    3  A    between atoms: N_11  and  N_12 
REMARK    4  A    between atoms: C_13  and  C_14 
ROOT
HETATM    1  C   UNL     1       6.114  33.221  63.906  1.00  0.00     0.289 C 
HETATM    2  N   UNL     1       7.406  32.905  63.518  1.00  0.00    -0.242 N 
HETATM    3  O   UNL     1       5.139  33.177  63.159  1.00  0.00    -0.264 OA
HETATM    4  H   UNL     1       8.173  32.979  64.174  1.00  0.00     0.192 HD
ENDROOT
BRANCH   1   5
HETATM    5  C   UNL     1       5.980  33.627  65.283  1.00  0.00     0.121 A 
HETATM    6  N   UNL     1       4.753  33.872  65.832  1.00  0.00    -0.272 N 
HETATM    7  N   UNL     1       4.790  34.266  67.112  1.00  0.00    -0.174 NA
HETATM    8  H   UNL     1       3.853  33.793  65.365  1.00  0.00     0.189 HD
HETATM    9  C   UNL     1       6.093  34.258  67.435  1.00  0.00     0.089 A 
HETATM   10  C   UNL     1       6.873  33.863  66.310  1.00  0.00     0.071 A 
BRANCH   9  11
HETATM   11  C   UNL     1       6.558  34.632  68.774  1.00  0.00    -0.006 A 
HETATM   12  C   UNL     1       5.670  34.707  69.858  1.00  0.00     0.014 A 
HETATM   13  C   UNL     1       6.130  35.054  71.132  1.00  0.00     0.001 A 
HETATM   14  C   UNL     1       7.479  35.330  71.339  1.00  0.00     0.000 A 
HETATM   15  C   UNL     1       8.372  35.264  70.273  1.00  0.00     0.001 A 
HETATM   16  C   UNL     1       7.914  34.919  68.998  1.00  0.00     0.014 A 
ENDBRANCH   9  11
ENDBRANCH   1   5
BRANCH   2  17
HETATM   17  N   UNL     1       7.662  32.528  62.229  1.00  0.00    -0.182 NA
HETATM   18  C   UNL     1       8.443  31.507  62.083  1.00  0.00     0.168 C 
BRANCH  18  19
HETATM   19  C   UNL     1       8.772  31.047  60.764  1.00  0.00     0.052 A 
HETATM   20  N   UNL     1       8.012  30.126  60.072  1.00  0.00    -0.358 N 
HETATM   21  H   UNL     1       7.165  29.707  60.437  1.00  0.00     0.166 HD
HETATM   22  C   UNL     1       8.580  29.894  58.852  1.00  0.00     0.016 A 
HETATM   23  C   UNL     1       9.715  30.671  58.744  1.00  0.00    -0.033 A 
HETATM   24  C   UNL     1       8.035  28.982  57.811  1.00  0.00     0.057 C 
HETATM   25  C   UNL     1      10.589  30.650  57.536  1.00  0.00     0.040 C 
HETATM   26  C   UNL     1       9.839  31.396  59.953  1.00  0.00     0.040 A 
HETATM   27  C   UNL     1       9.861  30.004  56.339  1.00  0.00     0.005 C 
HETATM   28  C   UNL     1       9.108  28.720  56.738  1.00  0.00     0.006 C 
ENDBRANCH  18  19
ENDBRANCH   2  17
TORSDOF 4
ENDMDL
MODEL 7
REMARK VINA RESULT:      -8.7      2.897     10.696
REMARK  4 active torsions:
REMARK  status: ('A' for Active; 'I' for Inactive)
REMARK    1  A    between atoms: C_4  and  C_5 
REMARK    2  A    between atoms: C_9  and  C_10 
REMARK       I    between atoms: C_10  and  N_11 
REMARK    3  A    between atoms: N_11  and  N_12 
REMARK    4  A    between atoms: C_13  and  C_14 
ROOT
HETATM    1  C   UNL     1       7.445  27.335  57.327  1.00  0.00     0.289 C 
HETATM    2  N   UNL     1       6.437  27.979  56.628  1.00  0.00    -0.242 N 
HETATM    3  O   UNL     1       8.121  27.863  58.207  1.00  0.00    -0.264 OA
HETATM    4  H   UNL     1       5.928  27.497  55.899  1.00  0.00     0.192 HD
ENDROOT
BRANCH   1   5
HETATM    5  C   UNL     1       7.667  25.964  56.939  1.00  0.00     0.121 A 
HETATM    6  N   UNL     1       8.181  25.054  57.820  1.00  0.00    -0.272 N 
HETATM    7  N   UNL     1       8.355  23.828  57.308  1.00  0.00    -0.174 NA
HETATM    8  H   UNL     1       8.441  25.227  58.788  1.00  0.00     0.189 HD
HETATM    9  C   UNL     1       7.915  23.920  56.043  1.00  0.00     0.089 A 
HETATM   10  C   UNL     1       7.475  25.249  55.773  1.00  0.00     0.071 A 
BRANCH   9  11
HETATM   11  C   UNL     1       7.933  22.770  55.134  1.00  0.00    -0.006 A 
HETATM   12  C   UNL     1       7.949  21.455  55.625  1.00  0.00     0.014 A 
HETATM   13  C   UNL     1       7.955  20.367  54.746  1.00  0.00     0.001 A 
HETATM   14  C   UNL     1       7.948  20.578  53.369  1.00  0.00     0.000 A 
HETATM   15  C   UNL     1       7.938  21.877  52.868  1.00  0.00     0.001 A 
HETATM   16  C   UNL     1       7.932  22.965  53.744  1.00  0.00     0.014 A 
ENDBRANCH   9  11
ENDBRANCH   1   5
BRANCH   2  17
HETATM   17  N   UNL     1       6.150  29.290  56.890  1.00  0.00    -0.182 NA
HETATM   18  C   UNL     1       5.035  29.511  57.508  1.00  0.00     0.168 C 
BRANCH  18  19
HETATM   19  C   UNL     1       4.650  30.858  57.819  1.00  0.00     0.052 A 
HETATM   20  N   UNL     1       4.959  31.478  59.012  1.00  0.00    -0.358 N 
HETATM   21  H   UNL     1       5.481  31.035  59.758  1.00  0.00     0.166 HD
HETATM   22  C   UNL     1       4.459  32.749  59.005  1.00  0.00     0.016 A 
HETATM   23  C   UNL     1       3.824  32.963  57.800  1.00  0.00    -0.033 A 
HETATM   24  C   UNL     1       4.613  33.737  60.107  1.00  0.00     0.057 C 
HETATM   25  C   UNL     1       3.150  34.250  57.466  1.00  0.00     0.040 C 
HETATM   26  C   UNL     1       3.941  31.767  57.052  1.00  0.00     0.040 A 
HETATM   27  C   UNL     1       3.602  35.374  58.420  1.00  0.00     0.005 C 
HETATM   28  C   UNL     1       3.640  34.911  59.890  1.00  0.00     0.006 C 
ENDBRANCH  18  19
ENDBRANCH   2  17
TORSDOF 4
ENDMDL
MODEL 8
REMARK VINA RESULT:      -8.7      2.932      3.377
REMARK  4 active torsions:
REMARK  status: ('A' for Active; 'I' for Inactive)
REMARK    1  A    between atoms: C_4  and  C_5 
REMARK    2  A    between atoms: C_9  and  C_10 
REMARK       I    between atoms: C_10  and  N_11 
REMARK    3  A    between atoms: N_11  and  N_12 
REMARK    4  A    between atoms: C_13  and  C_14 
ROOT
HETATM    1  C   UNL     1       5.236  29.222  56.736  1.00  0.00     0.289 C 
HETATM    2  N   UNL     1       4.954  27.912  57.089  1.00  0.00    -0.242 N 
HETATM    3  O   UNL     1       5.807  29.549  55.698  1.00  0.00    -0.264 OA
HETATM    4  H   UNL     1       4.498  27.703  57.967  1.00  0.00     0.192 HD
ENDROOT
BRANCH   1   5
HETATM    5  C   UNL     1       4.812  30.210  57.697  1.00  0.00     0.121 A 
HETATM    6  N   UNL     1       3.556  30.179  58.235  1.00  0.00    -0.272 N 
HETATM    7  N   UNL     1       3.299  31.176  59.093  1.00  0.00    -0.174 NA
HETATM    8  H   UNL     1       2.828  29.497  58.038  1.00  0.00     0.189 HD
HETATM    9  C   UNL     1       4.439  31.883  59.147  1.00  0.00     0.089 A 
HETATM   10  C   UNL     1       5.414  31.307  58.281  1.00  0.00     0.071 A 
BRANCH   9  11
HETATM   11  C   UNL     1       4.570  33.073  59.992  1.00  0.00    -0.006 A 
HETATM   12  C   UNL     1       5.475  33.109  61.064  1.00  0.00     0.014 A 
HETATM   13  C   UNL     1       5.597  34.255  61.856  1.00  0.00     0.001 A 
HETATM   14  C   UNL     1       4.818  35.378  61.588  1.00  0.00     0.000 A 
HETATM   15  C   UNL     1       3.912  35.356  60.531  1.00  0.00     0.001 A 
HETATM   16  C   UNL     1       3.788  34.211  59.740  1.00  0.00     0.014 A 
ENDBRANCH   9  11
ENDBRANCH   1   5
BRANCH   2  17
HETATM   17  N   UNL     1       5.328  26.884  56.268  1.00  0.00    -0.182 NA
HETATM   18  C   UNL     1       6.280  26.128  56.709  1.00  0.00     0.168 C 
BRANCH  18  19
HETATM   19  C   UNL     1       6.742  25.028  55.910  1.00  0.00     0.052 A 
HETATM   20  N   UNL     1       7.038  23.785  56.430  1.00  0.00    -0.358 N 
HETATM   21  H   UNL     1       6.951  23.550  57.411  1.00  0.00     0.166 HD
HETATM   22  C   UNL     1       7.449  22.959  55.423  1.00  0.00     0.016 A 
HETATM   23  C   UNL     1       7.417  23.664  54.238  1.00  0.00    -0.033 A 
HETATM   24  C   UNL     1       7.829  21.530  55.588  1.00  0.00     0.057 C 
HETATM   25  C   UNL     1       7.820  23.061  52.935  1.00  0.00     0.040 C 
HETATM   26  C   UNL     1       6.974  24.972  54.546  1.00  0.00     0.040 A 
HETATM   27  C   UNL     1       7.866  21.523  53.030  1.00  0.00     0.005 C 
HETATM   28  C   UNL     1       8.553  21.037  54.321  1.00  0.00     0.006 C 
ENDBRANCH  18  19
ENDBRANCH   2  17
TORSDOF 4
ENDMDL
MODEL 9
REMARK VINA RESULT:      -8.7      3.883     10.907
REMARK  4 active torsions:
REMARK  status: ('A' for Active; 'I' for Inactive)
REMARK    1  A    between atoms: C_4  and  C_5 
REMARK    2  A    between atoms: C_9  and  C_10 
REMARK       I    between atoms: C_10  and  N_11 
REMARK    3  A    between atoms: N_11  and  N_12 
REMARK    4  A    between atoms: C_13  and  C_14 
ROOT
HETATM    1  C   UNL     1       5.917  27.281  54.666  1.00  0.00     0.289 C 
HETATM    2  N   UNL     1       4.904  27.382  55.606  1.00  0.00    -0.242 N 
HETATM    3  O   UNL     1       6.496  28.243  54.169  1.00  0.00    -0.264 OA
HETATM    4  H   UNL     1       4.451  26.553  55.965  1.00  0.00     0.192 HD
ENDROOT
BRANCH   1   5
HETATM    5  C   UNL     1       6.255  25.930  54.288  1.00  0.00     0.121 A 
HETATM    6  N   UNL     1       5.807  25.392  53.114  1.00  0.00    -0.272 N 
HETATM    7  N   UNL     1       6.180  24.121  52.912  1.00  0.00    -0.174 NA
HETATM    8  H   UNL     1       5.229  25.854  52.416  1.00  0.00     0.189 HD
HETATM    9  C   UNL     1       6.928  23.811  53.982  1.00  0.00     0.089 A 
HETATM   10  C   UNL     1       6.998  24.923  54.871  1.00  0.00     0.071 A 
BRANCH   9  11
HETATM   11  C   UNL     1       7.537  22.487  54.140  1.00  0.00    -0.006 A 
HETATM   12  C   UNL     1       7.975  21.750  53.028  1.00  0.00     0.014 A 
HETATM   13  C   UNL     1       8.564  20.493  53.193  1.00  0.00     0.001 A 
HETATM   14  C   UNL     1       8.723  19.956  54.469  1.00  0.00     0.000 A 
HETATM   15  C   UNL     1       8.289  20.672  55.581  1.00  0.00     0.001 A 
HETATM   16  C   UNL     1       7.698  21.928  55.417  1.00  0.00     0.014 A 
ENDBRANCH   9  11
ENDBRANCH   1   5
BRANCH   2  17
HETATM   17  N   UNL     1       4.480  28.612  56.026  1.00  0.00    -0.182 NA
HETATM   18  C   UNL     1       5.054  29.075  57.089  1.00  0.00     0.168 C 
BRANCH  18  19
HETATM   19  C   UNL     1       4.666  30.357  57.605  1.00  0.00     0.052 A 
HETATM   20  N   UNL     1       4.040  30.526  58.823  1.00  0.00    -0.358 N 
HETATM   21  H   UNL     1       3.809  29.763  59.448  1.00  0.00     0.166 HD
HETATM   22  C   UNL     1       3.802  31.855  59.030  1.00  0.00     0.016 A 
HETATM   23  C   UNL     1       4.278  32.559  57.944  1.00  0.00    -0.033 A 
HETATM   24  C   UNL     1       3.167  32.432  60.245  1.00  0.00     0.057 C 
HETATM   25  C   UNL     1       4.166  34.042  57.838  1.00  0.00     0.040 C 
HETATM   26  C   UNL     1       4.820  31.613  57.042  1.00  0.00     0.040 A 
HETATM   27  C   UNL     1       3.849  34.671  59.210  1.00  0.00     0.005 C 
HETATM   28  C   UNL     1       2.759  33.892  59.972  1.00  0.00     0.006 C 
ENDBRANCH  18  19
ENDBRANCH   2  17
TORSDOF 4
ENDMDL
MODEL 10
REMARK VINA RESULT:      -8.5      7.585     11.713
REMARK  4 active torsions:
REMARK  status: ('A' for Active; 'I' for Inactive)
REMARK    1  A    between atoms: C_4  and  C_5 
REMARK    2  A    between atoms: C_9  and  C_10 
REMARK       I    between atoms: C_10  and  N_11 
REMARK    3  A    between atoms: N_11  and  N_12 
REMARK    4  A    between atoms: C_13  and  C_14 
ROOT
HETATM    1  C   UNL     1       5.684  26.857  52.287  1.00  0.00     0.289 C 
HETATM    2  N   UNL     1       4.743  26.585  51.306  1.00  0.00    -0.242 N 
HETATM    3  O   UNL     1       6.140  27.975  52.516  1.00  0.00    -0.264 OA
HETATM    4  H   UNL     1       4.421  25.640  51.151  1.00  0.00     0.192 HD
ENDROOT
BRANCH   1   5
HETATM    5  C   UNL     1       6.116  25.707  53.043  1.00  0.00     0.121 A 
HETATM    6  N   UNL     1       5.913  25.631  54.392  1.00  0.00    -0.272 N 
HETATM    7  N   UNL     1       6.392  24.515  54.960  1.00  0.00    -0.174 NA
HETATM    8  H   UNL     1       5.457  26.326  54.978  1.00  0.00     0.189 HD
HETATM    9  C   UNL     1       6.911  23.810  53.943  1.00  0.00     0.089 A 
HETATM   10  C   UNL     1       6.758  24.527  52.721  1.00  0.00     0.071 A 
BRANCH   9  11
HETATM   11  C   UNL     1       7.540  22.502  54.152  1.00  0.00    -0.006 A 
HETATM   12  C   UNL     1       7.684  21.962  55.439  1.00  0.00     0.014 A 
HETATM   13  C   UNL     1       8.276  20.709  55.624  1.00  0.00     0.001 A 
HETATM   14  C   UNL     1       8.731  19.981  54.527  1.00  0.00     0.000 A 
HETATM   15  C   UNL     1       8.600  20.505  53.244  1.00  0.00     0.001 A 
HETATM   16  C   UNL     1       8.010  21.759  53.058  1.00  0.00     0.014 A 
ENDBRANCH   9  11
ENDBRANCH   1   5
BRANCH   2  17
HETATM   17  N   UNL     1       4.275  27.592  50.508  1.00  0.00    -0.182 NA
HETATM   18  C   UNL     1       4.548  27.487  49.248  1.00  0.00     0.168 C 
BRANCH  18  19
HETATM   19  C   UNL     1       4.101  28.503  48.338  1.00  0.00     0.052 A 
HETATM   20  N   UNL     1       2.772  28.829  48.159  1.00  0.00    -0.358 N 
HETATM   21  H   UNL     1       2.011  28.382  48.656  1.00  0.00     0.166 HD
HETATM   22  C   UNL     1       2.670  29.827  47.233  1.00  0.00     0.016 A 
HETATM   23  C   UNL     1       3.939  30.160  46.807  1.00  0.00    -0.033 A 
HETATM   24  C   UNL     1       1.399  30.464  46.796  1.00  0.00     0.057 C 
HETATM   25  C   UNL     1       4.191  31.211  45.780  1.00  0.00     0.040 C 
HETATM   26  C   UNL     1       4.843  29.320  47.502  1.00  0.00     0.040 A 
HETATM   27  C   UNL     1       2.949  32.105  45.590  1.00  0.00     0.005 C 
HETATM   28  C   UNL     1       1.645  31.286  45.517  1.00  0.00     0.006 C 
ENDBRANCH  18  19
ENDBRANCH   2  17
TORSDOF 4
ENDMDL
