MODEL 1
REMARK VINA RESULT:      -9.8      0.000      0.000
REMARK  6 active torsions:
REMARK  status: ('A' for Active; 'I' for Inactive)
REMARK    1  A    between atoms: C_3  and  C_4 
REMARK    2  A    between atoms: C_4  and  C_5 
REMARK       I    between atoms: C_5  and  N_6 
REMARK    3  A    between atoms: N_6  and  N_7 
REMARK       I    between atoms: N_7  and  C_8 
REMARK    4  A    between atoms: C_8  and  C_9 
REMARK    5  A    between atoms: C_13  and  C_14 
REMARK    6  A    between atoms: C_17  and  O_18 
ROOT
HETATM    1  N   UNL     1       8.141  28.755  57.147  1.00  0.00    -0.262 N 
HETATM    2  C   UNL     1       9.256  29.520  57.421  1.00  0.00     0.288 C 
HETATM    3  O   UNL     1      10.331  29.343  56.852  1.00  0.00    -0.264 OA
HETATM    4  H   UNL     1       7.209  29.058  57.421  1.00  0.00     0.190 HD
ENDROOT
BRANCH   2   5
HETATM    5  C   UNL     1       9.061  30.529  58.428  1.00  0.00     0.121 A 
HETATM    6  N   UNL     1       9.861  31.631  58.525  1.00  0.00    -0.272 N 
HETATM    7  H   UNL     1      10.642  31.875  57.923  1.00  0.00     0.189 HD
HETATM    8  N   UNL     1       9.557  32.442  59.549  1.00  0.00    -0.174 NA
HETATM    9  C   UNL     1       8.518  31.850  60.163  1.00  0.00     0.089 A 
HETATM   10  C   UNL     1       8.167  30.654  59.473  1.00  0.00     0.071 A 
BRANCH   9  11
HETATM   11  C   UNL     1       7.913  32.405  61.380  1.00  0.00    -0.005 A 
HETATM   12  C   UNL     1       6.744  33.174  61.309  1.00  0.00     0.016 A 
HETATM   13  C   UNL     1       6.187  33.739  62.462  1.00  0.00     0.037 A 
HETATM   14  C   UNL     1       6.783  33.548  63.708  1.00  0.00     0.068 A 
HETATM   15  C   UNL     1       7.936  32.771  63.795  1.00  0.00     0.037 A 
HETATM   16  C   UNL     1       8.496  32.205  62.641  1.00  0.00     0.016 A 
BRANCH  14  17
HETATM   17  O   UNL     1       6.148  34.164  64.751  1.00  0.00    -0.356 OA
HETATM   18  C   UNL     1       4.905  33.610  65.164  1.00  0.00     0.210 C 
ENDBRANCH  14  17
ENDBRANCH   9  11
ENDBRANCH   2   5
BRANCH   1  19
HETATM   19  N   UNL     1       8.189  27.817  56.109  1.00  0.00    -0.267 N 
HETATM   20  C   UNL     1       7.063  27.044  55.900  1.00  0.00     0.240 C 
HETATM   21  O   UNL     1       6.070  27.137  56.622  1.00  0.00    -0.272 OA
HETATM   22  H   UNL     1       8.937  27.919  55.426  1.00  0.00     0.190 HD
BRANCH  20  23
HETATM   23  C   UNL     1       7.177  26.051  54.759  1.00  0.00     0.143 C 
BRANCH  23  24
HETATM   24  C   UNL     1       7.731  24.686  55.135  1.00  0.00    -0.043 A 
HETATM   25  C   UNL     1       8.063  23.741  54.136  1.00  0.00    -0.055 A 
HETATM   26  C   UNL     1       7.933  24.044  52.667  1.00  0.00     0.049 C 
HETATM   27  C   UNL     1       8.571  22.484  54.511  1.00  0.00     0.007 A 
HETATM   28  C   UNL     1       8.714  22.139  55.852  1.00  0.00     0.001 A 
HETATM   29  C   UNL     1       8.353  23.046  56.838  1.00  0.00     0.001 A 
HETATM   30  C   UNL     1       7.860  24.302  56.484  1.00  0.00     0.008 A 
ENDBRANCH  23  24
ENDBRANCH  20  23
ENDBRANCH   1  19
TORSDOF 6
ENDMDL
MODEL 2
REMARK VINA RESULT:      -9.8      2.313     10.642
REMARK  6 active torsions:
REMARK  status: ('A' for Active; 'I' for Inactive)
REMARK    1  A    between atoms: C_3  and  C_4 
REMARK    2  A    between atoms: C_4  and  C_5 
REMARK       I    between atoms: C_5  and  N_6 
REMARK    3  A    between atoms: N_6  and  N_7 
REMARK       I    between atoms: N_7  and  C_8 
REMARK    4  A    between atoms: C_8  and  C_9 
REMARK    5  A    between atoms: C_13  and  C_14 
REMARK    6  A    between atoms: C_17  and  O_18 
ROOT
HETATM    1  N   UNL     1       6.833  29.342  58.193  1.00  0.00    -0.262 N 
HETATM    2  C   UNL     1       5.741  28.975  57.435  1.00  0.00     0.288 C 
HETATM    3  O   UNL     1       4.789  29.729  57.246  1.00  0.00    -0.264 OA
HETATM    4  H   UNL     1       7.712  28.831  58.140  1.00  0.00     0.190 HD
ENDROOT
BRANCH   2   5
HETATM    5  C   UNL     1       5.802  27.643  56.896  1.00  0.00     0.121 A 
HETATM    6  N   UNL     1       4.770  26.757  57.013  1.00  0.00    -0.272 N 
HETATM    7  H   UNL     1       3.870  26.920  57.457  1.00  0.00     0.189 HD
HETATM    8  N   UNL     1       5.020  25.549  56.487  1.00  0.00    -0.174 NA
HETATM    9  C   UNL     1       6.273  25.633  56.008  1.00  0.00     0.089 A 
HETATM   10  C   UNL     1       6.788  26.942  56.231  1.00  0.00     0.071 A 
BRANCH   9  11
HETATM   11  C   UNL     1       6.949  24.486  55.389  1.00  0.00    -0.005 A 
HETATM   12  C   UNL     1       7.878  23.728  56.113  1.00  0.00     0.016 A 
HETATM   13  C   UNL     1       8.554  22.659  55.514  1.00  0.00     0.037 A 
HETATM   14  C   UNL     1       8.318  22.325  54.181  1.00  0.00     0.068 A 
HETATM   15  C   UNL     1       7.384  23.059  53.454  1.00  0.00     0.037 A 
HETATM   16  C   UNL     1       6.706  24.131  54.053  1.00  0.00     0.016 A 
BRANCH  14  17
HETATM   17  O   UNL     1       9.052  21.271  53.712  1.00  0.00    -0.356 OA
HETATM   18  C   UNL     1       8.399  20.379  52.818  1.00  0.00     0.210 C 
ENDBRANCH  14  17
ENDBRANCH   9  11
ENDBRANCH   2   5
BRANCH   1  19
HETATM   19  N   UNL     1       6.927  30.652  58.676  1.00  0.00    -0.267 N 
HETATM   20  C   UNL     1       7.948  30.930  59.564  1.00  0.00     0.240 C 
HETATM   21  O   UNL     1       8.721  30.056  59.957  1.00  0.00    -0.272 OA
HETATM   22  H   UNL     1       6.405  31.370  58.175  1.00  0.00     0.190 HD
BRANCH  20  23
HETATM   23  C   UNL     1       7.997  32.368  60.047  1.00  0.00     0.143 C 
BRANCH  23  24
HETATM   24  C   UNL     1       7.489  32.599  61.460  1.00  0.00    -0.043 A 
HETATM   25  C   UNL     1       6.170  33.056  61.689  1.00  0.00    -0.055 A 
HETATM   26  C   UNL     1       5.194  33.290  60.566  1.00  0.00     0.049 C 
HETATM   27  C   UNL     1       5.726  33.266  63.006  1.00  0.00     0.007 A 
HETATM   28  C   UNL     1       6.578  33.070  64.090  1.00  0.00     0.001 A 
HETATM   29  C   UNL     1       7.886  32.662  63.872  1.00  0.00     0.001 A 
HETATM   30  C   UNL     1       8.339  32.436  62.572  1.00  0.00     0.008 A 
ENDBRANCH  23  24
ENDBRANCH  20  23
ENDBRANCH   1  19
TORSDOF 6
ENDMDL
MODEL 3
REMARK VINA RESULT:      -9.4      8.025     12.174
REMARK  6 active torsions:
REMARK  status: ('A' for Active; 'I' for Inactive)
REMARK    1  A    between atoms: C_3  and  C_4 
REMARK    2  A    between atoms: C_4  and  C_5 
REMARK       I    between atoms: C_5  and  N_6 
REMARK    3  A    between atoms: N_6  and  N_7 
REMARK       I    between atoms: N_7  and  C_8 
REMARK    4  A    between atoms: C_8  and  C_9 
REMARK    5  A    between atoms: C_13  and  C_14 
REMARK    6  A    between atoms: C_17  and  O_18 
ROOT
HETATM    1  N   UNL     1       5.416  26.170  50.713  1.00  0.00    -0.262 N 
HETATM    2  C   UNL     1       5.116  27.510  50.849  1.00  0.00     0.288 C 
HETATM    3  O   UNL     1       5.825  28.280  51.494  1.00  0.00    -0.264 OA
HETATM    4  H   UNL     1       4.984  25.600  49.989  1.00  0.00     0.190 HD
ENDROOT
BRANCH   2   5
HETATM    5  C   UNL     1       3.909  27.926  50.188  1.00  0.00     0.121 A 
HETATM    6  N   UNL     1       2.910  28.592  50.838  1.00  0.00    -0.272 N 
HETATM    7  H   UNL     1       2.898  28.877  51.814  1.00  0.00     0.189 HD
HETATM    8  N   UNL     1       1.842  28.863  50.073  1.00  0.00    -0.174 NA
HETATM    9  C   UNL     1       2.140  28.350  48.868  1.00  0.00     0.089 A 
HETATM   10  C   UNL     1       3.441  27.769  48.899  1.00  0.00     0.071 A 
BRANCH   9  11
HETATM   11  C   UNL     1       1.194  28.395  47.746  1.00  0.00    -0.005 A 
HETATM   12  C   UNL     1       0.863  27.228  47.044  1.00  0.00     0.016 A 
HETATM   13  C   UNL     1      -0.007  27.274  45.949  1.00  0.00     0.037 A 
HETATM   14  C   UNL     1      -0.564  28.483  45.532  1.00  0.00     0.068 A 
HETATM   15  C   UNL     1      -0.257  29.647  46.231  1.00  0.00     0.037 A 
HETATM   16  C   UNL     1       0.615  29.603  47.329  1.00  0.00     0.016 A 
BRANCH  14  17
HETATM   17  O   UNL     1      -1.385  28.392  44.442  1.00  0.00    -0.356 OA
HETATM   18  C   UNL     1      -1.597  29.585  43.697  1.00  0.00     0.210 C 
ENDBRANCH  14  17
ENDBRANCH   9  11
ENDBRANCH   2   5
BRANCH   1  19
HETATM   19  N   UNL     1       6.623  25.680  51.225  1.00  0.00    -0.267 N 
HETATM   20  C   UNL     1       6.559  24.899  52.363  1.00  0.00     0.240 C 
HETATM   21  O   UNL     1       5.493  24.677  52.938  1.00  0.00    -0.272 OA
HETATM   22  H   UNL     1       7.436  25.718  50.613  1.00  0.00     0.190 HD
BRANCH  20  23
HETATM   23  C   UNL     1       7.900  24.396  52.865  1.00  0.00     0.143 C 
BRANCH  23  24
HETATM   24  C   UNL     1       7.868  23.055  53.579  1.00  0.00    -0.043 A 
HETATM   25  C   UNL     1       7.817  22.988  54.991  1.00  0.00    -0.055 A 
HETATM   26  C   UNL     1       7.746  24.222  55.852  1.00  0.00     0.049 C 
HETATM   27  C   UNL     1       7.793  21.734  55.627  1.00  0.00     0.007 A 
HETATM   28  C   UNL     1       7.858  20.555  54.889  1.00  0.00     0.001 A 
HETATM   29  C   UNL     1       7.949  20.612  53.506  1.00  0.00     0.001 A 
HETATM   30  C   UNL     1       7.962  21.848  52.858  1.00  0.00     0.008 A 
ENDBRANCH  23  24
ENDBRANCH  20  23
ENDBRANCH   1  19
TORSDOF 6
ENDMDL
MODEL 4
REMARK VINA RESULT:      -9.4      1.146      2.129
REMARK  6 active torsions:
REMARK  status: ('A' for Active; 'I' for Inactive)
REMARK    1  A    between atoms: C_3  and  C_4 
REMARK    2  A    between atoms: C_4  and  C_5 
REMARK       I    between atoms: C_5  and  N_6 
REMARK    3  A    between atoms: N_6  and  N_7 
REMARK       I    between atoms: N_7  and  C_8 
REMARK    4  A    between atoms: C_8  and  C_9 
REMARK    5  A    between atoms: C_13  and  C_14 
REMARK    6  A    between atoms: C_17  and  O_18 
ROOT
HETATM    1  N   UNL     1       8.509  28.269  57.651  1.00  0.00    -0.262 N 
HETATM    2  C   UNL     1       9.228  29.422  57.417  1.00  0.00     0.288 C 
HETATM    3  O   UNL     1       9.984  29.541  56.455  1.00  0.00    -0.264 OA
HETATM    4  H   UNL     1       7.711  28.259  58.283  1.00  0.00     0.190 HD
ENDROOT
BRANCH   2   5
HETATM    5  C   UNL     1       9.030  30.463  58.389  1.00  0.00     0.121 A 
HETATM    6  N   UNL     1       9.796  31.593  58.419  1.00  0.00    -0.272 N 
HETATM    7  H   UNL     1      10.550  31.838  57.784  1.00  0.00     0.189 HD
HETATM    8  N   UNL     1       9.495  32.434  59.420  1.00  0.00    -0.174 NA
HETATM    9  C   UNL     1       8.495  31.834  60.087  1.00  0.00     0.089 A 
HETATM   10  C   UNL     1       8.164  30.601  59.455  1.00  0.00     0.071 A 
BRANCH   9  11
HETATM   11  C   UNL     1       7.908  32.418  61.300  1.00  0.00    -0.005 A 
HETATM   12  C   UNL     1       8.490  32.193  62.554  1.00  0.00     0.016 A 
HETATM   13  C   UNL     1       7.910  32.714  63.717  1.00  0.00     0.037 A 
HETATM   14  C   UNL     1       6.739  33.468  63.652  1.00  0.00     0.068 A 
HETATM   15  C   UNL     1       6.159  33.713  62.410  1.00  0.00     0.037 A 
HETATM   16  C   UNL     1       6.739  33.192  61.244  1.00  0.00     0.016 A 
BRANCH  14  17
HETATM   17  O   UNL     1       6.268  33.906  64.859  1.00  0.00    -0.356 OA
HETATM   18  C   UNL     1       5.140  34.771  64.833  1.00  0.00     0.210 C 
ENDBRANCH  14  17
ENDBRANCH   9  11
ENDBRANCH   2   5
BRANCH   1  19
HETATM   19  N   UNL     1       8.545  27.233  56.711  1.00  0.00    -0.267 N 
HETATM   20  C   UNL     1       8.077  25.996  57.110  1.00  0.00     0.240 C 
HETATM   21  O   UNL     1       7.686  25.791  58.260  1.00  0.00    -0.272 OA
HETATM   22  H   UNL     1       8.680  27.496  55.736  1.00  0.00     0.190 HD
BRANCH  20  23
HETATM   23  C   UNL     1       8.139  24.918  56.044  1.00  0.00     0.143 C 
BRANCH  23  24
HETATM   24  C   UNL     1       7.053  24.987  54.982  1.00  0.00    -0.043 A 
HETATM   25  C   UNL     1       7.136  24.196  53.812  1.00  0.00    -0.055 A 
HETATM   26  C   UNL     1       8.262  23.224  53.576  1.00  0.00     0.049 C 
HETATM   27  C   UNL     1       6.120  24.282  52.843  1.00  0.00     0.007 A 
HETATM   28  C   UNL     1       5.053  25.162  52.998  1.00  0.00     0.001 A 
HETATM   29  C   UNL     1       4.986  25.971  54.124  1.00  0.00     0.001 A 
HETATM   30  C   UNL     1       5.978  25.889  55.102  1.00  0.00     0.008 A 
ENDBRANCH  23  24
ENDBRANCH  20  23
ENDBRANCH   1  19
TORSDOF 6
ENDMDL
MODEL 5
REMARK VINA RESULT:      -9.4      2.470     10.690
REMARK  6 active torsions:
REMARK  status: ('A' for Active; 'I' for Inactive)
REMARK    1  A    between atoms: C_3  and  C_4 
REMARK    2  A    between atoms: C_4  and  C_5 
REMARK       I    between atoms: C_5  and  N_6 
REMARK    3  A    between atoms: N_6  and  N_7 
REMARK       I    between atoms: N_7  and  C_8 
REMARK    4  A    between atoms: C_8  and  C_9 
REMARK    5  A    between atoms: C_13  and  C_14 
REMARK    6  A    between atoms: C_17  and  O_18 
ROOT
HETATM    1  N   UNL     1       6.350  29.888  58.054  1.00  0.00    -0.262 N 
HETATM    2  C   UNL     1       5.738  29.662  56.838  1.00  0.00     0.288 C 
HETATM    3  O   UNL     1       4.710  30.245  56.502  1.00  0.00    -0.264 OA
HETATM    4  H   UNL     1       7.314  29.606  58.224  1.00  0.00     0.190 HD
ENDROOT
BRANCH   2   5
HETATM    5  C   UNL     1       6.392  28.687  56.007  1.00  0.00     0.121 A 
HETATM    6  N   UNL     1       7.362  29.025  55.107  1.00  0.00    -0.272 N 
HETATM    7  H   UNL     1       7.737  29.953  54.930  1.00  0.00     0.189 HD
HETATM    8  N   UNL     1       7.830  27.993  54.390  1.00  0.00    -0.174 NA
HETATM    9  C   UNL     1       7.136  26.927  54.825  1.00  0.00     0.089 A 
HETATM   10  C   UNL     1       6.236  27.324  55.855  1.00  0.00     0.071 A 
BRANCH   9  11
HETATM   11  C   UNL     1       7.318  25.590  54.245  1.00  0.00    -0.005 A 
HETATM   12  C   UNL     1       7.101  24.442  55.018  1.00  0.00     0.016 A 
HETATM   13  C   UNL     1       7.313  23.166  54.482  1.00  0.00     0.037 A 
HETATM   14  C   UNL     1       7.745  23.011  53.165  1.00  0.00     0.068 A 
HETATM   15  C   UNL     1       7.948  24.143  52.380  1.00  0.00     0.037 A 
HETATM   16  C   UNL     1       7.736  25.422  52.917  1.00  0.00     0.016 A 
BRANCH  14  17
HETATM   17  O   UNL     1       7.927  21.715  52.768  1.00  0.00    -0.356 OA
HETATM   18  C   UNL     1       8.087  20.745  53.796  1.00  0.00     0.210 C 
ENDBRANCH  14  17
ENDBRANCH   9  11
ENDBRANCH   2   5
BRANCH   1  19
HETATM   19  N   UNL     1       5.859  30.892  58.895  1.00  0.00    -0.267 N 
HETATM   20  C   UNL     1       6.700  31.952  59.177  1.00  0.00     0.240 C 
HETATM   21  O   UNL     1       7.853  31.996  58.747  1.00  0.00    -0.272 OA
HETATM   22  H   UNL     1       4.853  30.914  59.054  1.00  0.00     0.190 HD
BRANCH  20  23
HETATM   23  C   UNL     1       6.107  33.008  60.091  1.00  0.00     0.143 C 
BRANCH  23  24
HETATM   24  C   UNL     1       6.647  33.020  61.511  1.00  0.00    -0.043 A 
HETATM   25  C   UNL     1       6.181  33.967  62.454  1.00  0.00    -0.055 A 
HETATM   26  C   UNL     1       5.109  34.970  62.122  1.00  0.00     0.049 C 
HETATM   27  C   UNL     1       6.699  33.958  63.761  1.00  0.00     0.007 A 
HETATM   28  C   UNL     1       7.695  33.058  64.132  1.00  0.00     0.001 A 
HETATM   29  C   UNL     1       8.186  32.153  63.202  1.00  0.00     0.001 A 
HETATM   30  C   UNL     1       7.673  32.139  61.904  1.00  0.00     0.008 A 
ENDBRANCH  23  24
ENDBRANCH  20  23
ENDBRANCH   1  19
TORSDOF 6
ENDMDL
MODEL 6
REMARK VINA RESULT:      -9.2      2.134     10.636
REMARK  6 active torsions:
REMARK  status: ('A' for Active; 'I' for Inactive)
REMARK    1  A    between atoms: C_3  and  C_4 
REMARK    2  A    between atoms: C_4  and  C_5 
REMARK       I    between atoms: C_5  and  N_6 
REMARK    3  A    between atoms: N_6  and  N_7 
REMARK       I    between atoms: N_7  and  C_8 
REMARK    4  A    between atoms: C_8  and  C_9 
REMARK    5  A    between atoms: C_13  and  C_14 
REMARK    6  A    between atoms: C_17  and  O_18 
ROOT
HETATM    1  N   UNL     1       7.379  29.600  58.844  1.00  0.00    -0.262 N 
HETATM    2  C   UNL     1       8.396  29.175  58.014  1.00  0.00     0.288 C 
HETATM    3  O   UNL     1       9.526  29.658  58.059  1.00  0.00    -0.264 OA
HETATM    4  H   UNL     1       6.538  29.043  58.983  1.00  0.00     0.190 HD
ENDROOT
BRANCH   2   5
HETATM    5  C   UNL     1       8.025  28.136  57.092  1.00  0.00     0.121 A 
HETATM    6  N   UNL     1       7.109  28.331  56.098  1.00  0.00    -0.272 N 
HETATM    7  H   UNL     1       6.611  29.191  55.884  1.00  0.00     0.189 HD
HETATM    8  N   UNL     1       6.858  27.239  55.361  1.00  0.00    -0.174 NA
HETATM    9  C   UNL     1       7.631  26.278  55.892  1.00  0.00     0.089 A 
HETATM   10  C   UNL     1       8.394  26.811  56.970  1.00  0.00     0.071 A 
BRANCH   9  11
HETATM   11  C   UNL     1       7.610  24.896  55.393  1.00  0.00    -0.005 A 
HETATM   12  C   UNL     1       7.743  23.816  56.276  1.00  0.00     0.016 A 
HETATM   13  C   UNL     1       7.764  22.500  55.800  1.00  0.00     0.037 A 
HETATM   14  C   UNL     1       7.653  22.235  54.435  1.00  0.00     0.068 A 
HETATM   15  C   UNL     1       7.504  23.298  53.548  1.00  0.00     0.037 A 
HETATM   16  C   UNL     1       7.483  24.617  54.024  1.00  0.00     0.016 A 
BRANCH  14  17
HETATM   17  O   UNL     1       7.702  20.910  54.101  1.00  0.00    -0.356 OA
HETATM   18  C   UNL     1       8.408  20.573  52.913  1.00  0.00     0.210 C 
ENDBRANCH  14  17
ENDBRANCH   9  11
ENDBRANCH   2   5
BRANCH   1  19
HETATM   19  N   UNL     1       7.657  30.531  59.851  1.00  0.00    -0.267 N 
HETATM   20  C   UNL     1       7.325  31.850  59.607  1.00  0.00     0.240 C 
HETATM   21  O   UNL     1       6.846  32.209  58.531  1.00  0.00    -0.272 OA
HETATM   22  H   UNL     1       7.857  30.164  60.780  1.00  0.00     0.190 HD
BRANCH  20  23
HETATM   23  C   UNL     1       7.648  32.807  60.739  1.00  0.00     0.143 C 
BRANCH  23  24
HETATM   24  C   UNL     1       6.496  33.117  61.681  1.00  0.00    -0.043 A 
HETATM   25  C   UNL     1       6.667  33.038  63.083  1.00  0.00    -0.055 A 
HETATM   26  C   UNL     1       7.991  32.693  63.712  1.00  0.00     0.049 C 
HETATM   27  C   UNL     1       5.585  33.327  63.932  1.00  0.00     0.007 A 
HETATM   28  C   UNL     1       4.333  33.650  63.414  1.00  0.00     0.001 A 
HETATM   29  C   UNL     1       4.146  33.690  62.040  1.00  0.00     0.001 A 
HETATM   30  C   UNL     1       5.213  33.419  61.182  1.00  0.00     0.008 A 
ENDBRANCH  23  24
ENDBRANCH  20  23
ENDBRANCH   1  19
TORSDOF 6
ENDMDL
MODEL 7
REMARK VINA RESULT:      -9.0      2.012     10.719
REMARK  6 active torsions:
REMARK  status: ('A' for Active; 'I' for Inactive)
REMARK    1  A    between atoms: C_3  and  C_4 
REMARK    2  A    between atoms: C_4  and  C_5 
REMARK       I    between atoms: C_5  and  N_6 
REMARK    3  A    between atoms: N_6  and  N_7 
REMARK       I    between atoms: N_7  and  C_8 
REMARK    4  A    between atoms: C_8  and  C_9 
REMARK    5  A    between atoms: C_13  and  C_14 
REMARK    6  A    between atoms: C_17  and  O_18 
ROOT
HETATM    1  N   UNL     1       7.593  30.786  60.466  1.00  0.00    -0.262 N 
HETATM    2  C   UNL     1       7.979  30.826  59.143  1.00  0.00     0.288 C 
HETATM    3  O   UNL     1       8.645  31.751  58.681  1.00  0.00    -0.264 OA
HETATM    4  H   UNL     1       7.271  29.922  60.900  1.00  0.00     0.190 HD
ENDROOT
BRANCH   2   5
HETATM    5  C   UNL     1       7.534  29.711  58.351  1.00  0.00     0.121 A 
HETATM    6  N   UNL     1       6.237  29.570  57.949  1.00  0.00    -0.272 N 
HETATM    7  H   UNL     1       5.466  30.207  58.132  1.00  0.00     0.189 HD
HETATM    8  N   UNL     1       5.996  28.448  57.254  1.00  0.00    -0.174 NA
HETATM    9  C   UNL     1       7.179  27.814  57.200  1.00  0.00     0.089 A 
HETATM   10  C   UNL     1       8.174  28.589  57.864  1.00  0.00     0.071 A 
BRANCH   9  11
HETATM   11  C   UNL     1       7.332  26.501  56.559  1.00  0.00    -0.005 A 
HETATM   12  C   UNL     1       6.682  26.218  55.351  1.00  0.00     0.016 A 
HETATM   13  C   UNL     1       6.792  24.954  54.757  1.00  0.00     0.037 A 
HETATM   14  C   UNL     1       7.551  23.950  55.357  1.00  0.00     0.068 A 
HETATM   15  C   UNL     1       8.216  24.224  56.550  1.00  0.00     0.037 A 
HETATM   16  C   UNL     1       8.106  25.489  57.146  1.00  0.00     0.016 A 
BRANCH  14  17
HETATM   17  O   UNL     1       7.565  22.760  54.684  1.00  0.00    -0.356 OA
HETATM   18  C   UNL     1       7.636  22.825  53.266  1.00  0.00     0.210 C 
ENDBRANCH  14  17
ENDBRANCH   9  11
ENDBRANCH   2   5
BRANCH   1  19
HETATM   19  N   UNL     1       8.061  31.764  61.350  1.00  0.00    -0.267 N 
HETATM   20  C   UNL     1       7.407  31.893  62.560  1.00  0.00     0.240 C 
HETATM   21  O   UNL     1       6.421  31.210  62.840  1.00  0.00    -0.272 OA
HETATM   22  H   UNL     1       8.984  32.153  61.165  1.00  0.00     0.190 HD
BRANCH  20  23
HETATM   23  C   UNL     1       7.965  32.968  63.474  1.00  0.00     0.143 C 
BRANCH  23  24
HETATM   24  C   UNL     1       6.937  33.710  64.313  1.00  0.00    -0.043 A 
HETATM   25  C   UNL     1       6.034  34.618  63.713  1.00  0.00    -0.055 A 
HETATM   26  C   UNL     1       6.009  34.864  62.228  1.00  0.00     0.049 C 
HETATM   27  C   UNL     1       5.096  35.294  64.513  1.00  0.00     0.007 A 
HETATM   28  C   UNL     1       5.067  35.114  65.893  1.00  0.00     0.001 A 
HETATM   29  C   UNL     1       5.977  34.256  66.494  1.00  0.00     0.001 A 
HETATM   30  C   UNL     1       6.906  33.567  65.714  1.00  0.00     0.008 A 
ENDBRANCH  23  24
ENDBRANCH  20  23
ENDBRANCH   1  19
TORSDOF 6
ENDMDL
MODEL 8
REMARK VINA RESULT:      -8.6      2.006     10.602
REMARK  6 active torsions:
REMARK  status: ('A' for Active; 'I' for Inactive)
REMARK    1  A    between atoms: C_3  and  C_4 
REMARK    2  A    between atoms: C_4  and  C_5 
REMARK       I    between atoms: C_5  and  N_6 
REMARK    3  A    between atoms: N_6  and  N_7 
REMARK       I    between atoms: N_7  and  C_8 
REMARK    4  A    between atoms: C_8  and  C_9 
REMARK    5  A    between atoms: C_13  and  C_14 
REMARK    6  A    between atoms: C_17  and  O_18 
ROOT
HETATM    1  N   UNL     1       8.049  31.385  60.843  1.00  0.00    -0.262 N 
HETATM    2  C   UNL     1       8.794  31.595  59.701  1.00  0.00     0.288 C 
HETATM    3  O   UNL     1       9.355  32.664  59.470  1.00  0.00    -0.264 OA
HETATM    4  H   UNL     1       7.803  30.447  61.152  1.00  0.00     0.190 HD
ENDROOT
BRANCH   2   5
HETATM    5  C   UNL     1       8.851  30.472  58.805  1.00  0.00     0.121 A 
HETATM    6  N   UNL     1       9.881  30.286  57.928  1.00  0.00    -0.272 N 
HETATM    7  H   UNL     1      10.701  30.875  57.814  1.00  0.00     0.189 HD
HETATM    8  N   UNL     1       9.745  29.207  57.143  1.00  0.00    -0.174 NA
HETATM    9  C   UNL     1       8.574  28.660  57.506  1.00  0.00     0.089 A 
HETATM   10  C   UNL     1       7.993  29.418  58.562  1.00  0.00     0.071 A 
BRANCH   9  11
HETATM   11  C   UNL     1       8.029  27.470  56.838  1.00  0.00    -0.005 A 
HETATM   12  C   UNL     1       7.887  26.263  57.534  1.00  0.00     0.016 A 
HETATM   13  C   UNL     1       7.407  25.117  56.889  1.00  0.00     0.037 A 
HETATM   14  C   UNL     1       7.059  25.152  55.539  1.00  0.00     0.068 A 
HETATM   15  C   UNL     1       7.179  26.351  54.840  1.00  0.00     0.037 A 
HETATM   16  C   UNL     1       7.660  27.499  55.484  1.00  0.00     0.016 A 
BRANCH  14  17
HETATM   17  O   UNL     1       6.618  23.963  55.027  1.00  0.00    -0.356 OA
HETATM   18  C   UNL     1       7.188  23.544  53.794  1.00  0.00     0.210 C 
ENDBRANCH  14  17
ENDBRANCH   9  11
ENDBRANCH   2   5
BRANCH   1  19
HETATM   19  N   UNL     1       8.014  32.373  61.833  1.00  0.00    -0.267 N 
HETATM   20  C   UNL     1       6.979  32.321  62.747  1.00  0.00     0.240 C 
HETATM   21  O   UNL     1       6.092  31.471  62.673  1.00  0.00    -0.272 OA
HETATM   22  H   UNL     1       8.863  32.918  61.975  1.00  0.00     0.190 HD
BRANCH  20  23
HETATM   23  C   UNL     1       7.001  33.417  63.796  1.00  0.00     0.143 C 
BRANCH  23  24
HETATM   24  C   UNL     1       5.920  34.477  63.656  1.00  0.00    -0.043 A 
HETATM   25  C   UNL     1       4.920  34.624  64.646  1.00  0.00    -0.055 A 
HETATM   26  C   UNL     1       4.895  33.784  65.895  1.00  0.00     0.049 C 
HETATM   27  C   UNL     1       3.929  35.609  64.490  1.00  0.00     0.007 A 
HETATM   28  C   UNL     1       3.893  36.418  63.357  1.00  0.00     0.001 A 
HETATM   29  C   UNL     1       4.847  36.253  62.363  1.00  0.00     0.001 A 
HETATM   30  C   UNL     1       5.845  35.288  62.507  1.00  0.00     0.008 A 
ENDBRANCH  23  24
ENDBRANCH  20  23
ENDBRANCH   1  19
TORSDOF 6
ENDMDL
MODEL 9
REMARK VINA RESULT:      -8.6      2.402     10.860
REMARK  6 active torsions:
REMARK  status: ('A' for Active; 'I' for Inactive)
REMARK    1  A    between atoms: C_3  and  C_4 
REMARK    2  A    between atoms: C_4  and  C_5 
REMARK       I    between atoms: C_5  and  N_6 
REMARK    3  A    between atoms: N_6  and  N_7 
REMARK       I    between atoms: N_7  and  C_8 
REMARK    4  A    between atoms: C_8  and  C_9 
REMARK    5  A    between atoms: C_13  and  C_14 
REMARK    6  A    between atoms: C_17  and  O_18 
ROOT
HETATM    1  N   UNL     1       6.850  31.507  60.208  1.00  0.00    -0.262 N 
HETATM    2  C   UNL     1       6.696  31.428  58.839  1.00  0.00     0.288 C 
HETATM    3  O   UNL     1       6.389  32.402  58.155  1.00  0.00    -0.264 OA
HETATM    4  H   UNL     1       7.341  30.783  60.730  1.00  0.00     0.190 HD
ENDROOT
BRANCH   2   5
HETATM    5  C   UNL     1       6.913  30.119  58.283  1.00  0.00     0.121 A 
HETATM    6  N   UNL     1       7.801  29.233  58.822  1.00  0.00    -0.272 N 
HETATM    7  H   UNL     1       8.377  29.369  59.648  1.00  0.00     0.189 HD
HETATM    8  N   UNL     1       7.902  28.078  58.148  1.00  0.00    -0.174 NA
HETATM    9  C   UNL     1       7.054  28.206  57.113  1.00  0.00     0.089 A 
HETATM   10  C   UNL     1       6.401  29.470  57.178  1.00  0.00     0.071 A 
BRANCH   9  11
HETATM   11  C   UNL     1       6.907  27.161  56.092  1.00  0.00    -0.005 A 
HETATM   12  C   UNL     1       6.331  25.925  56.415  1.00  0.00     0.016 A 
HETATM   13  C   UNL     1       6.226  24.911  55.455  1.00  0.00     0.037 A 
HETATM   14  C   UNL     1       6.692  25.110  54.156  1.00  0.00     0.068 A 
HETATM   15  C   UNL     1       7.251  26.340  53.817  1.00  0.00     0.037 A 
HETATM   16  C   UNL     1       7.358  27.356  54.778  1.00  0.00     0.016 A 
BRANCH  14  17
HETATM   17  O   UNL     1       6.543  24.038  53.320  1.00  0.00    -0.356 OA
HETATM   18  C   UNL     1       7.642  23.140  53.224  1.00  0.00     0.210 C 
ENDBRANCH  14  17
ENDBRANCH   9  11
ENDBRANCH   2   5
BRANCH   1  19
HETATM   19  N   UNL     1       6.767  32.753  60.839  1.00  0.00    -0.267 N 
HETATM   20  C   UNL     1       5.729  32.946  61.730  1.00  0.00     0.240 C 
HETATM   21  O   UNL     1       4.879  32.078  61.933  1.00  0.00    -0.272 OA
HETATM   22  H   UNL     1       7.591  33.350  60.797  1.00  0.00     0.190 HD
BRANCH  20  23
HETATM   23  C   UNL     1       5.698  34.315  62.383  1.00  0.00     0.143 C 
BRANCH  23  24
HETATM   24  C   UNL     1       5.219  34.340  63.825  1.00  0.00    -0.043 A 
HETATM   25  C   UNL     1       6.079  33.955  64.879  1.00  0.00    -0.055 A 
HETATM   26  C   UNL     1       7.509  33.548  64.642  1.00  0.00     0.049 C 
HETATM   27  C   UNL     1       5.610  33.984  66.204  1.00  0.00     0.007 A 
HETATM   28  C   UNL     1       4.297  34.348  66.493  1.00  0.00     0.001 A 
HETATM   29  C   UNL     1       3.435  34.688  65.460  1.00  0.00     0.001 A 
HETATM   30  C   UNL     1       3.888  34.678  64.141  1.00  0.00     0.008 A 
ENDBRANCH  23  24
ENDBRANCH  20  23
ENDBRANCH   1  19
TORSDOF 6
ENDMDL
MODEL 10
REMARK VINA RESULT:      -8.4      7.809     11.209
REMARK  6 active torsions:
REMARK  status: ('A' for Active; 'I' for Inactive)
REMARK    1  A    between atoms: C_3  and  C_4 
REMARK    2  A    between atoms: C_4  and  C_5 
REMARK       I    between atoms: C_5  and  N_6 
REMARK    3  A    between atoms: N_6  and  N_7 
REMARK       I    between atoms: N_7  and  C_8 
REMARK    4  A    between atoms: C_8  and  C_9 
REMARK    5  A    between atoms: C_13  and  C_14 
REMARK    6  A    between atoms: C_17  and  O_18 
ROOT
HETATM    1  N   UNL     1       6.308  26.604  52.964  1.00  0.00    -0.262 N 
HETATM    2  C   UNL     1       6.121  26.247  51.644  1.00  0.00     0.288 C 
HETATM    3  O   UNL     1       6.759  25.341  51.112  1.00  0.00    -0.264 OA
HETATM    4  H   UNL     1       5.622  27.164  53.465  1.00  0.00     0.190 HD
ENDROOT
BRANCH   2   5
HETATM    5  C   UNL     1       5.132  27.023  50.946  1.00  0.00     0.121 A 
HETATM    6  N   UNL     1       4.569  28.146  51.481  1.00  0.00    -0.272 N 
HETATM    7  H   UNL     1       4.777  28.564  52.384  1.00  0.00     0.189 HD
HETATM    8  N   UNL     1       3.636  28.716  50.705  1.00  0.00    -0.174 NA
HETATM    9  C   UNL     1       3.570  27.935  49.613  1.00  0.00     0.089 A 
HETATM   10  C   UNL     1       4.510  26.871  49.722  1.00  0.00     0.071 A 
BRANCH   9  11
HETATM   11  C   UNL     1       2.616  28.194  48.527  1.00  0.00    -0.005 A 
HETATM   12  C   UNL     1       2.659  29.397  47.810  1.00  0.00     0.016 A 
HETATM   13  C   UNL     1       1.726  29.665  46.802  1.00  0.00     0.037 A 
HETATM   14  C   UNL     1       0.732  28.738  46.488  1.00  0.00     0.068 A 
HETATM   15  C   UNL     1       0.687  27.531  47.181  1.00  0.00     0.037 A 
HETATM   16  C   UNL     1       1.621  27.262  48.192  1.00  0.00     0.016 A 
BRANCH  14  17
HETATM   17  O   UNL     1      -0.124  29.127  45.495  1.00  0.00    -0.356 OA
HETATM   18  C   UNL     1      -1.474  29.370  45.869  1.00  0.00     0.210 C 
ENDBRANCH  14  17
ENDBRANCH   9  11
ENDBRANCH   2   5
BRANCH   1  19
HETATM   19  N   UNL     1       7.169  25.846  53.766  1.00  0.00    -0.267 N 
HETATM   20  C   UNL     1       6.596  24.900  54.594  1.00  0.00     0.240 C 
HETATM   21  O   UNL     1       5.375  24.754  54.665  1.00  0.00    -0.272 OA
HETATM   22  H   UNL     1       8.159  25.859  53.526  1.00  0.00     0.190 HD
BRANCH  20  23
HETATM   23  C   UNL     1       7.582  24.110  55.434  1.00  0.00     0.143 C 
BRANCH  23  24
HETATM   24  C   UNL     1       7.897  22.711  54.929  1.00  0.00    -0.043 A 
HETATM   25  C   UNL     1       8.289  21.690  55.827  1.00  0.00    -0.055 A 
HETATM   26  C   UNL     1       8.372  21.914  57.313  1.00  0.00     0.049 C 
HETATM   27  C   UNL     1       8.578  20.406  55.333  1.00  0.00     0.007 A 
HETATM   28  C   UNL     1       8.523  20.132  53.969  1.00  0.00     0.001 A 
HETATM   29  C   UNL     1       8.179  21.139  53.078  1.00  0.00     0.001 A 
HETATM   30  C   UNL     1       7.876  22.416  53.552  1.00  0.00     0.008 A 
ENDBRANCH  23  24
ENDBRANCH  20  23
ENDBRANCH   1  19
TORSDOF 6
ENDMDL
