MODEL 1
REMARK VINA RESULT:      -8.6      0.000      0.000
REMARK  10 active torsions:
REMARK  status: ('A' for Active; 'I' for Inactive)
REMARK    1  A    between atoms: C_2  and  C_3 
REMARK    2  A    between atoms: C_3  and  C_4 
REMARK    3  A    between atoms: N_7  and  C_9 
REMARK    4  A    between atoms: C_9  and  C_10 
REMARK    5  A    between atoms: C_12  and  O_13 
REMARK    6  A    between atoms: O_13  and  C_14 
REMARK    7  A    between atoms: C_16  and  O_17 
REMARK    8  A    between atoms: N_25  and  C_26 
REMARK    9  A    between atoms: C_26  and  C_27 
REMARK   10  A    between atoms: C_27  and  C_28 
ROOT
HETATM    1  C   UNL     1       5.767  24.987  54.064  1.00  0.00     0.026 C 
HETATM    2  C   UNL     1       6.142  24.351  52.714  1.00  0.00     0.035 C 
HETATM    3  C   UNL     1       6.243  25.336  51.550  1.00  0.00     0.235 C 
HETATM    4  N   UNL     1       4.993  26.173  51.436  1.00  0.00    -0.067 N 
HETATM    5  H   UNL     1       4.238  25.535  51.158  1.00  0.00     0.280 HD
HETATM    6  C   UNL     1       4.586  26.840  52.727  1.00  0.00     0.235 C 
HETATM    7  C   UNL     1       4.492  25.829  53.854  1.00  0.00     0.035 C 
ENDROOT
BRANCH   1   8
HETATM    8  C   UNL     1       6.954  25.707  54.780  1.00  0.00     0.119 C 
HETATM    9  N   UNL     1       7.628  26.674  53.929  1.00  0.00    -0.324 N 
HETATM   10  C   UNL     1       7.813  27.875  54.585  1.00  0.00     0.326 C 
HETATM   11  H   UNL     1       8.412  26.430  53.333  1.00  0.00     0.165 HD
HETATM   12  O   UNL     1       8.574  28.730  54.171  1.00  0.00    -0.247 OA
HETATM   13  N   UNL     1       7.043  27.893  55.701  1.00  0.00    -0.268 N 
HETATM   14  C   UNL     1       6.478  26.664  55.902  1.00  0.00     0.256 C 
HETATM   15  O   UNL     1       5.740  26.343  56.822  1.00  0.00    -0.270 OA
BRANCH   8  16
HETATM   16  C   UNL     1       8.035  24.761  55.365  1.00  0.00     0.037 C 
HETATM   17  C   UNL     1       7.530  23.433  55.913  1.00  0.00     0.008 C 
ENDBRANCH   8  16
BRANCH  13  18
HETATM   18  C   UNL     1       7.050  28.971  56.678  1.00  0.00     0.142 C 
BRANCH  18  19
HETATM   19  C   UNL     1       7.986  28.705  57.862  1.00  0.00     0.068 C 
BRANCH  19  20
HETATM   20  C   UNL     1       8.716  29.946  58.266  1.00  0.00     0.010 A 
HETATM   21  S   UNL     1       8.100  30.970  59.498  1.00  0.00    -0.085 SA
HETATM   22  C   UNL     1       9.452  32.001  59.297  1.00  0.00     0.166 A 
HETATM   23  N   UNL     1      10.323  31.635  58.383  1.00  0.00    -0.258 NA
HETATM   24  C   UNL     1       9.910  30.459  57.780  1.00  0.00     0.044 A 
HETATM   25  C   UNL     1      10.767  29.881  56.709  1.00  0.00     0.071 C 
ENDBRANCH  19  20
ENDBRANCH  18  19
ENDBRANCH  13  18
ENDBRANCH   1   8
BRANCH   4  26
HETATM   26  C   UNL     1       5.073  27.230  50.340  1.00  0.00     0.273 C 
BRANCH  26  27
HETATM   27  C   UNL     1       4.027  27.120  49.265  1.00  0.00    -0.030 A 
HETATM   28  C   UNL     1       3.016  28.099  49.171  1.00  0.00     0.048 A 
HETATM   29  C   UNL     1       2.050  28.030  48.169  1.00  0.00     0.102 A 
HETATM   30  C   UNL     1       2.105  26.970  47.259  1.00  0.00     0.099 A 
HETATM   31  C   UNL     1       3.090  25.993  47.337  1.00  0.00     0.040 A 
HETATM   32  C   UNL     1       4.055  26.065  48.340  1.00  0.00     0.012 A 
BRANCH  29  33
HETATM   33  O   UNL     1       1.026  28.916  47.968  1.00  0.00    -0.349 OA
BRANCH  33  34
HETATM   34  C   UNL     1       1.373  30.240  47.560  1.00  0.00     0.171 C 
HETATM   35  C   UNL     1       0.921  30.429  46.125  1.00  0.00     0.034 C 
ENDBRANCH  33  34
ENDBRANCH  29  33
BRANCH  30  36
HETATM   36  O   UNL     1       1.178  26.865  46.261  1.00  0.00    -0.358 OA
HETATM   37  H   UNL     1       1.672  26.598  45.462  1.00  0.00     0.218 HD
ENDBRANCH  30  36
ENDBRANCH  26  27
ENDBRANCH   4  26
TORSDOF 10
ENDMDL
MODEL 2
REMARK VINA RESULT:      -8.5      5.017      9.246
REMARK  10 active torsions:
REMARK  status: ('A' for Active; 'I' for Inactive)
REMARK    1  A    between atoms: C_2  and  C_3 
REMARK    2  A    between atoms: C_3  and  C_4 
REMARK    3  A    between atoms: N_7  and  C_9 
REMARK    4  A    between atoms: C_9  and  C_10 
REMARK    5  A    between atoms: C_12  and  O_13 
REMARK    6  A    between atoms: O_13  and  C_14 
REMARK    7  A    between atoms: C_16  and  O_17 
REMARK    8  A    between atoms: N_25  and  C_26 
REMARK    9  A    between atoms: C_26  and  C_27 
REMARK   10  A    between atoms: C_27  and  C_28 
ROOT
HETATM    1  C   UNL     1       4.763  27.704  55.209  1.00  0.00     0.026 C 
HETATM    2  C   UNL     1       4.571  28.949  54.326  1.00  0.00     0.035 C 
HETATM    3  C   UNL     1       5.124  30.244  54.919  1.00  0.00     0.235 C 
HETATM    4  N   UNL     1       4.597  30.473  56.314  1.00  0.00    -0.067 N 
HETATM    5  H   UNL     1       3.589  30.651  56.220  1.00  0.00     0.280 HD
HETATM    6  C   UNL     1       4.776  29.290  57.234  1.00  0.00     0.235 C 
HETATM    7  C   UNL     1       4.209  28.028  56.611  1.00  0.00     0.035 C 
ENDROOT
BRANCH   1   8
HETATM    8  C   UNL     1       6.205  27.107  55.162  1.00  0.00     0.119 C 
HETATM    9  N   UNL     1       6.963  27.358  56.377  1.00  0.00    -0.324 N 
HETATM   10  C   UNL     1       7.579  26.207  56.829  1.00  0.00     0.326 C 
HETATM   11  H   UNL     1       7.538  28.184  56.505  1.00  0.00     0.165 HD
HETATM   12  O   UNL     1       8.463  26.230  57.665  1.00  0.00    -0.247 OA
HETATM   13  N   UNL     1       7.045  25.138  56.190  1.00  0.00    -0.268 N 
HETATM   14  C   UNL     1       6.207  25.558  55.193  1.00  0.00     0.256 C 
HETATM   15  O   UNL     1       5.577  24.846  54.424  1.00  0.00    -0.270 OA
BRANCH   8  16
HETATM   16  C   UNL     1       7.069  27.576  53.962  1.00  0.00     0.037 C 
HETATM   17  C   UNL     1       8.279  28.433  54.309  1.00  0.00     0.008 C 
ENDBRANCH   8  16
BRANCH  13  18
HETATM   18  C   UNL     1       7.512  23.770  56.358  1.00  0.00     0.142 C 
BRANCH  18  19
HETATM   19  C   UNL     1       8.750  23.448  55.514  1.00  0.00     0.068 C 
BRANCH  19  20
HETATM   20  C   UNL     1       8.537  22.222  54.685  1.00  0.00     0.010 A 
HETATM   21  S   UNL     1       7.955  22.336  53.074  1.00  0.00    -0.085 SA
HETATM   22  C   UNL     1       8.032  20.632  52.941  1.00  0.00     0.166 A 
HETATM   23  N   UNL     1       8.460  19.990  54.005  1.00  0.00    -0.258 NA
HETATM   24  C   UNL     1       8.749  20.891  55.016  1.00  0.00     0.044 A 
HETATM   25  C   UNL     1       9.247  20.356  56.313  1.00  0.00     0.071 C 
ENDBRANCH  19  20
ENDBRANCH  18  19
ENDBRANCH  13  18
ENDBRANCH   1   8
BRANCH   4  26
HETATM   26  C   UNL     1       5.181  31.710  56.985  1.00  0.00     0.273 C 
BRANCH  26  27
HETATM   27  C   UNL     1       6.200  31.438  58.057  1.00  0.00    -0.030 A 
HETATM   28  C   UNL     1       7.312  30.617  57.772  1.00  0.00     0.048 A 
HETATM   29  C   UNL     1       8.281  30.370  58.743  1.00  0.00     0.102 A 
HETATM   30  C   UNL     1       8.128  30.953  60.003  1.00  0.00     0.099 A 
HETATM   31  C   UNL     1       7.039  31.762  60.306  1.00  0.00     0.040 A 
HETATM   32  C   UNL     1       6.071  32.007  59.333  1.00  0.00     0.012 A 
BRANCH  29  33
HETATM   33  O   UNL     1       9.403  29.600  58.589  1.00  0.00    -0.349 OA
BRANCH  33  34
HETATM   34  C   UNL     1       9.892  29.409  57.261  1.00  0.00     0.171 C 
HETATM   35  C   UNL     1      11.323  29.907  57.205  1.00  0.00     0.034 C 
ENDBRANCH  33  34
ENDBRANCH  29  33
BRANCH  30  36
HETATM   36  O   UNL     1       9.055  30.737  60.983  1.00  0.00    -0.358 OA
HETATM   37  H   UNL     1       8.814  31.334  61.719  1.00  0.00     0.218 HD
ENDBRANCH  30  36
ENDBRANCH  26  27
ENDBRANCH   4  26
TORSDOF 10
ENDMDL
MODEL 3
REMARK VINA RESULT:      -8.4      5.205      9.873
REMARK  10 active torsions:
REMARK  status: ('A' for Active; 'I' for Inactive)
REMARK    1  A    between atoms: C_2  and  C_3 
REMARK    2  A    between atoms: C_3  and  C_4 
REMARK    3  A    between atoms: N_7  and  C_9 
REMARK    4  A    between atoms: C_9  and  C_10 
REMARK    5  A    between atoms: C_12  and  O_13 
REMARK    6  A    between atoms: O_13  and  C_14 
REMARK    7  A    between atoms: C_16  and  O_17 
REMARK    8  A    between atoms: N_25  and  C_26 
REMARK    9  A    between atoms: C_26  and  C_27 
REMARK   10  A    between atoms: C_27  and  C_28 
ROOT
HETATM    1  C   UNL     1       4.984  28.109  55.380  1.00  0.00     0.026 C 
HETATM    2  C   UNL     1       4.991  29.399  54.540  1.00  0.00     0.035 C 
HETATM    3  C   UNL     1       5.563  30.622  55.255  1.00  0.00     0.235 C 
HETATM    4  N   UNL     1       4.890  30.838  56.588  1.00  0.00    -0.067 N 
HETATM    5  H   UNL     1       3.917  31.098  56.386  1.00  0.00     0.280 HD
HETATM    6  C   UNL     1       4.870  29.610  57.466  1.00  0.00     0.235 C 
HETATM    7  C   UNL     1       4.291  28.421  56.721  1.00  0.00     0.035 C 
ENDROOT
BRANCH   1   8
HETATM    8  C   UNL     1       6.373  27.402  55.473  1.00  0.00     0.119 C 
HETATM    9  N   UNL     1       6.915  27.393  56.822  1.00  0.00    -0.324 N 
HETATM   10  C   UNL     1       7.370  26.136  57.169  1.00  0.00     0.326 C 
HETATM   11  H   UNL     1       7.506  28.135  57.182  1.00  0.00     0.165 HD
HETATM   12  O   UNL     1       8.091  25.951  58.132  1.00  0.00    -0.247 OA
HETATM   13  N   UNL     1       6.897  25.231  56.279  1.00  0.00    -0.268 N 
HETATM   14  C   UNL     1       6.277  25.873  55.242  1.00  0.00     0.256 C 
HETATM   15  O   UNL     1       5.753  25.348  54.270  1.00  0.00    -0.270 OA
BRANCH   8  16
HETATM   16  C   UNL     1       7.463  27.975  54.531  1.00  0.00     0.037 C 
HETATM   17  C   UNL     1       8.562  28.787  55.202  1.00  0.00     0.008 C 
ENDBRANCH   8  16
BRANCH  13  18
HETATM   18  C   UNL     1       7.244  23.818  56.289  1.00  0.00     0.142 C 
BRANCH  18  19
HETATM   19  C   UNL     1       8.546  23.512  55.538  1.00  0.00     0.068 C 
BRANCH  19  20
HETATM   20  C   UNL     1       8.411  22.283  54.698  1.00  0.00     0.010 A 
HETATM   21  S   UNL     1       7.901  22.384  53.062  1.00  0.00    -0.085 SA
HETATM   22  C   UNL     1       8.039  20.684  52.929  1.00  0.00     0.166 A 
HETATM   23  N   UNL     1       8.436  20.052  54.011  1.00  0.00    -0.258 NA
HETATM   24  C   UNL     1       8.649  20.958  55.036  1.00  0.00     0.044 A 
HETATM   25  C   UNL     1       9.103  20.435  56.353  1.00  0.00     0.071 C 
ENDBRANCH  19  20
ENDBRANCH  18  19
ENDBRANCH  13  18
ENDBRANCH   1   8
BRANCH   4  26
HETATM   26  C   UNL     1       5.479  31.999  57.381  1.00  0.00     0.273 C 
BRANCH  26  27
HETATM   27  C   UNL     1       6.413  31.608  58.494  1.00  0.00    -0.030 A 
HETATM   28  C   UNL     1       6.100  31.959  59.824  1.00  0.00     0.048 A 
HETATM   29  C   UNL     1       6.938  31.588  60.874  1.00  0.00     0.102 A 
HETATM   30  C   UNL     1       8.094  30.860  60.580  1.00  0.00     0.099 A 
HETATM   31  C   UNL     1       8.423  30.507  59.276  1.00  0.00     0.040 A 
HETATM   32  C   UNL     1       7.583  30.880  58.229  1.00  0.00     0.012 A 
BRANCH  29  33
HETATM   33  O   UNL     1       6.743  31.861  62.201  1.00  0.00    -0.349 OA
BRANCH  33  34
HETATM   34  C   UNL     1       7.104  33.163  62.664  1.00  0.00     0.171 C 
HETATM   35  C   UNL     1       7.860  33.010  63.970  1.00  0.00     0.034 C 
ENDBRANCH  33  34
ENDBRANCH  29  33
BRANCH  30  36
HETATM   36  O   UNL     1       8.943  30.475  61.579  1.00  0.00    -0.358 OA
HETATM   37  H   UNL     1       8.914  31.189  62.246  1.00  0.00     0.218 HD
ENDBRANCH  30  36
ENDBRANCH  26  27
ENDBRANCH   4  26
TORSDOF 10
ENDMDL
MODEL 4
REMARK VINA RESULT:      -8.3      5.150      7.952
REMARK  10 active torsions:
REMARK  status: ('A' for Active; 'I' for Inactive)
REMARK    1  A    between atoms: C_2  and  C_3 
REMARK    2  A    between atoms: C_3  and  C_4 
REMARK    3  A    between atoms: N_7  and  C_9 
REMARK    4  A    between atoms: C_9  and  C_10 
REMARK    5  A    between atoms: C_12  and  O_13 
REMARK    6  A    between atoms: O_13  and  C_14 
REMARK    7  A    between atoms: C_16  and  O_17 
REMARK    8  A    between atoms: N_25  and  C_26 
REMARK    9  A    between atoms: C_26  and  C_27 
REMARK   10  A    between atoms: C_27  and  C_28 
ROOT
HETATM    1  C   UNL     1       7.039  29.332  57.855  1.00  0.00     0.026 C 
HETATM    2  C   UNL     1       8.322  29.415  57.009  1.00  0.00     0.035 C 
HETATM    3  C   UNL     1       8.149  29.004  55.547  1.00  0.00     0.235 C 
HETATM    4  N   UNL     1       7.504  27.644  55.436  1.00  0.00    -0.067 N 
HETATM    5  H   UNL     1       8.182  26.968  55.808  1.00  0.00     0.280 HD
HETATM    6  C   UNL     1       6.228  27.509  56.232  1.00  0.00     0.235 C 
HETATM    7  C   UNL     1       6.444  27.921  57.676  1.00  0.00     0.035 C 
ENDROOT
BRANCH   1   8
HETATM    8  C   UNL     1       6.055  30.524  57.638  1.00  0.00     0.119 C 
HETATM    9  N   UNL     1       4.706  30.237  58.097  1.00  0.00    -0.324 N 
HETATM   10  C   UNL     1       4.209  31.270  58.868  1.00  0.00     0.326 C 
HETATM   11  H   UNL     1       3.998  29.821  57.499  1.00  0.00     0.165 HD
HETATM   12  O   UNL     1       3.026  31.367  59.137  1.00  0.00    -0.247 OA
HETATM   13  N   UNL     1       5.229  32.090  59.220  1.00  0.00    -0.268 N 
HETATM   14  C   UNL     1       6.371  31.729  58.559  1.00  0.00     0.256 C 
HETATM   15  O   UNL     1       7.463  32.271  58.645  1.00  0.00    -0.270 OA
BRANCH   8  16
HETATM   16  C   UNL     1       5.957  31.035  56.177  1.00  0.00     0.037 C 
HETATM   17  C   UNL     1       4.693  30.649  55.421  1.00  0.00     0.008 C 
ENDBRANCH   8  16
BRANCH  13  18
HETATM   18  C   UNL     1       5.059  33.329  59.965  1.00  0.00     0.142 C 
BRANCH  18  19
HETATM   19  C   UNL     1       5.452  33.203  61.441  1.00  0.00     0.068 C 
BRANCH  19  20
HETATM   20  C   UNL     1       4.311  33.562  62.338  1.00  0.00     0.010 A 
HETATM   21  S   UNL     1       2.778  33.985  61.691  1.00  0.00    -0.085 SA
HETATM   22  C   UNL     1       2.182  34.199  63.280  1.00  0.00     0.166 A 
HETATM   23  N   UNL     1       3.039  33.977  64.251  1.00  0.00    -0.258 NA
HETATM   24  C   UNL     1       4.267  33.616  63.724  1.00  0.00     0.044 A 
HETATM   25  C   UNL     1       5.379  33.324  64.670  1.00  0.00     0.071 C 
ENDBRANCH  19  20
ENDBRANCH  18  19
ENDBRANCH  13  18
ENDBRANCH   1   8
BRANCH   4  26
HETATM   26  C   UNL     1       7.234  27.220  53.998  1.00  0.00     0.273 C 
BRANCH  26  27
HETATM   27  C   UNL     1       7.428  25.756  53.713  1.00  0.00    -0.030 A 
HETATM   28  C   UNL     1       7.284  24.816  54.756  1.00  0.00     0.048 A 
HETATM   29  C   UNL     1       7.437  23.453  54.511  1.00  0.00     0.102 A 
HETATM   30  C   UNL     1       7.734  23.037  53.211  1.00  0.00     0.099 A 
HETATM   31  C   UNL     1       7.884  23.946  52.171  1.00  0.00     0.040 A 
HETATM   32  C   UNL     1       7.731  25.308  52.418  1.00  0.00     0.012 A 
BRANCH  29  33
HETATM   33  O   UNL     1       7.317  22.447  55.432  1.00  0.00    -0.349 OA
BRANCH  33  34
HETATM   34  C   UNL     1       8.461  22.148  56.232  1.00  0.00     0.171 C 
HETATM   35  C   UNL     1       8.498  20.650  56.468  1.00  0.00     0.034 C 
ENDBRANCH  33  34
ENDBRANCH  29  33
BRANCH  30  36
HETATM   36  O   UNL     1       7.891  21.709  52.928  1.00  0.00    -0.358 OA
HETATM   37  H   UNL     1       8.770  21.462  53.276  1.00  0.00     0.218 HD
ENDBRANCH  30  36
ENDBRANCH  26  27
ENDBRANCH   4  26
TORSDOF 10
ENDMDL
MODEL 5
REMARK VINA RESULT:      -8.1      4.877      9.697
REMARK  10 active torsions:
REMARK  status: ('A' for Active; 'I' for Inactive)
REMARK    1  A    between atoms: C_2  and  C_3 
REMARK    2  A    between atoms: C_3  and  C_4 
REMARK    3  A    between atoms: N_7  and  C_9 
REMARK    4  A    between atoms: C_9  and  C_10 
REMARK    5  A    between atoms: C_12  and  O_13 
REMARK    6  A    between atoms: O_13  and  C_14 
REMARK    7  A    between atoms: C_16  and  O_17 
REMARK    8  A    between atoms: N_25  and  C_26 
REMARK    9  A    between atoms: C_26  and  C_27 
REMARK   10  A    between atoms: C_27  and  C_28 
ROOT
HETATM    1  C   UNL     1       4.043  29.782  55.914  1.00  0.00     0.026 C 
HETATM    2  C   UNL     1       4.542  31.063  55.223  1.00  0.00     0.035 C 
HETATM    3  C   UNL     1       5.220  32.068  56.154  1.00  0.00     0.235 C 
HETATM    4  N   UNL     1       4.344  32.388  57.339  1.00  0.00    -0.067 N 
HETATM    5  H   UNL     1       3.530  32.897  56.972  1.00  0.00     0.280 HD
HETATM    6  C   UNL     1       3.839  31.168  58.071  1.00  0.00     0.235 C 
HETATM    7  C   UNL     1       3.169  30.201  57.113  1.00  0.00     0.035 C 
ENDROOT
BRANCH   1   8
HETATM    8  C   UNL     1       5.167  28.741  56.215  1.00  0.00     0.119 C 
HETATM    9  N   UNL     1       4.731  27.673  57.099  1.00  0.00    -0.324 N 
HETATM   10  C   UNL     1       5.098  26.436  56.608  1.00  0.00     0.326 C 
HETATM   11  H   UNL     1       4.806  27.730  58.110  1.00  0.00     0.165 HD
HETATM   12  O   UNL     1       5.072  25.431  57.295  1.00  0.00    -0.247 OA
HETATM   13  N   UNL     1       5.475  26.567  55.313  1.00  0.00    -0.268 N 
HETATM   14  C   UNL     1       5.536  27.891  54.974  1.00  0.00     0.256 C 
HETATM   15  O   UNL     1       5.854  28.349  53.886  1.00  0.00    -0.270 OA
BRANCH   8  16
HETATM   16  C   UNL     1       6.471  29.339  56.807  1.00  0.00     0.037 C 
HETATM   17  C   UNL     1       7.140  28.520  57.902  1.00  0.00     0.008 C 
ENDBRANCH   8  16
BRANCH  13  18
HETATM   18  C   UNL     1       6.004  25.479  54.504  1.00  0.00     0.142 C 
BRANCH  18  19
HETATM   19  C   UNL     1       7.511  25.267  54.690  1.00  0.00     0.068 C 
BRANCH  19  20
HETATM   20  C   UNL     1       7.809  23.881  55.165  1.00  0.00     0.010 A 
HETATM   21  S   UNL     1       8.111  23.564  56.825  1.00  0.00    -0.085 SA
HETATM   22  C   UNL     1       8.317  21.906  56.456  1.00  0.00     0.166 A 
HETATM   23  N   UNL     1       8.176  21.576  55.192  1.00  0.00    -0.258 NA
HETATM   24  C   UNL     1       7.889  22.702  54.439  1.00  0.00     0.044 A 
HETATM   25  C   UNL     1       7.696  22.536  52.972  1.00  0.00     0.071 C 
ENDBRANCH  19  20
ENDBRANCH  18  19
ENDBRANCH  13  18
ENDBRANCH   1   8
BRANCH   4  26
HETATM   26  C   UNL     1       5.006  33.325  58.343  1.00  0.00     0.273 C 
BRANCH  26  27
HETATM   27  C   UNL     1       5.858  32.651  59.383  1.00  0.00    -0.030 A 
HETATM   28  C   UNL     1       7.088  32.070  59.010  1.00  0.00     0.048 A 
HETATM   29  C   UNL     1       7.904  31.460  59.961  1.00  0.00     0.102 A 
HETATM   30  C   UNL     1       7.479  31.439  61.292  1.00  0.00     0.099 A 
HETATM   31  C   UNL     1       6.269  32.002  61.680  1.00  0.00     0.040 A 
HETATM   32  C   UNL     1       5.455  32.610  60.727  1.00  0.00     0.012 A 
BRANCH  29  33
HETATM   33  O   UNL     1       9.117  30.869  59.728  1.00  0.00    -0.349 OA
BRANCH  33  34
HETATM   34  C   UNL     1      10.021  31.546  58.853  1.00  0.00     0.171 C 
HETATM   35  C   UNL     1      10.446  30.577  57.766  1.00  0.00     0.034 C 
ENDBRANCH  33  34
ENDBRANCH  29  33
BRANCH  30  36
HETATM   36  O   UNL     1       8.249  30.852  62.256  1.00  0.00    -0.358 OA
HETATM   37  H   UNL     1       9.119  31.296  62.213  1.00  0.00     0.218 HD
ENDBRANCH  30  36
ENDBRANCH  26  27
ENDBRANCH   4  26
TORSDOF 10
ENDMDL
MODEL 6
REMARK VINA RESULT:      -8.1      4.077      9.754
REMARK  10 active torsions:
REMARK  status: ('A' for Active; 'I' for Inactive)
REMARK    1  A    between atoms: C_2  and  C_3 
REMARK    2  A    between atoms: C_3  and  C_4 
REMARK    3  A    between atoms: N_7  and  C_9 
REMARK    4  A    between atoms: C_9  and  C_10 
REMARK    5  A    between atoms: C_12  and  O_13 
REMARK    6  A    between atoms: O_13  and  C_14 
REMARK    7  A    between atoms: C_16  and  O_17 
REMARK    8  A    between atoms: N_25  and  C_26 
REMARK    9  A    between atoms: C_26  and  C_27 
REMARK   10  A    between atoms: C_27  and  C_28 
ROOT
HETATM    1  C   UNL     1       3.566  29.469  53.313  1.00  0.00     0.026 C 
HETATM    2  C   UNL     1       4.450  29.496  54.573  1.00  0.00     0.035 C 
HETATM    3  C   UNL     1       5.784  28.765  54.432  1.00  0.00     0.235 C 
HETATM    4  N   UNL     1       5.583  27.356  53.931  1.00  0.00    -0.067 N 
HETATM    5  H   UNL     1       5.096  26.847  54.680  1.00  0.00     0.280 HD
HETATM    6  C   UNL     1       4.738  27.268  52.684  1.00  0.00     0.235 C 
HETATM    7  C   UNL     1       3.423  28.000  52.867  1.00  0.00     0.035 C 
ENDROOT
BRANCH   1   8
HETATM    8  C   UNL     1       4.002  30.483  52.208  1.00  0.00     0.119 C 
HETATM    9  N   UNL     1       5.376  30.293  51.774  1.00  0.00    -0.324 N 
HETATM   10  C   UNL     1       5.469  30.284  50.397  1.00  0.00     0.326 C 
HETATM   11  H   UNL     1       6.162  30.761  52.215  1.00  0.00     0.165 HD
HETATM   12  O   UNL     1       6.533  30.401  49.817  1.00  0.00    -0.247 OA
HETATM   13  N   UNL     1       4.229  30.142  49.869  1.00  0.00    -0.268 N 
HETATM   14  C   UNL     1       3.286  30.232  50.857  1.00  0.00     0.256 C 
HETATM   15  O   UNL     1       2.074  30.157  50.716  1.00  0.00    -0.270 OA
BRANCH   8  16
HETATM   16  C   UNL     1       3.829  31.977  52.586  1.00  0.00     0.037 C 
HETATM   17  C   UNL     1       2.554  32.329  53.340  1.00  0.00     0.008 C 
ENDBRANCH   8  16
BRANCH  13  18
HETATM   18  C   UNL     1       3.940  30.175  48.444  1.00  0.00     0.142 C 
BRANCH  18  19
HETATM   19  C   UNL     1       4.040  28.799  47.777  1.00  0.00     0.068 C 
BRANCH  19  20
HETATM   20  C   UNL     1       2.706  28.336  47.284  1.00  0.00     0.010 A 
HETATM   21  S   UNL     1       1.477  29.462  46.877  1.00  0.00    -0.085 SA
HETATM   22  C   UNL     1       0.445  28.162  46.459  1.00  0.00     0.166 A 
HETATM   23  N   UNL     1       0.951  26.958  46.600  1.00  0.00    -0.258 NA
HETATM   24  C   UNL     1       2.247  27.042  47.078  1.00  0.00     0.044 A 
HETATM   25  C   UNL     1       2.995  25.776  47.309  1.00  0.00     0.071 C 
ENDBRANCH  19  20
ENDBRANCH  18  19
ENDBRANCH  13  18
ENDBRANCH   1   8
BRANCH   4  26
HETATM   26  C   UNL     1       6.889  26.607  53.695  1.00  0.00     0.273 C 
BRANCH  26  27
HETATM   27  C   UNL     1       7.247  25.593  54.746  1.00  0.00    -0.030 A 
HETATM   28  C   UNL     1       7.208  24.218  54.433  1.00  0.00     0.048 A 
HETATM   29  C   UNL     1       7.557  23.261  55.385  1.00  0.00     0.102 A 
HETATM   30  C   UNL     1       7.946  23.693  56.655  1.00  0.00     0.099 A 
HETATM   31  C   UNL     1       7.988  25.043  56.985  1.00  0.00     0.040 A 
HETATM   32  C   UNL     1       7.638  25.997  56.032  1.00  0.00     0.012 A 
BRANCH  29  33
HETATM   33  O   UNL     1       7.566  21.904  55.203  1.00  0.00    -0.349 OA
BRANCH  33  34
HETATM   34  C   UNL     1       8.576  21.362  54.351  1.00  0.00     0.171 C 
HETATM   35  C   UNL     1       7.895  20.707  53.164  1.00  0.00     0.034 C 
ENDBRANCH  33  34
ENDBRANCH  29  33
BRANCH  30  36
HETATM   36  O   UNL     1       8.297  22.789  57.617  1.00  0.00    -0.358 OA
HETATM   37  H   UNL     1       8.400  21.933  57.157  1.00  0.00     0.218 HD
ENDBRANCH  30  36
ENDBRANCH  26  27
ENDBRANCH   4  26
TORSDOF 10
ENDMDL
MODEL 7
REMARK VINA RESULT:      -8.0      3.669     10.196
REMARK  10 active torsions:
REMARK  status: ('A' for Active; 'I' for Inactive)
REMARK    1  A    between atoms: C_2  and  C_3 
REMARK    2  A    between atoms: C_3  and  C_4 
REMARK    3  A    between atoms: N_7  and  C_9 
REMARK    4  A    between atoms: C_9  and  C_10 
REMARK    5  A    between atoms: C_12  and  O_13 
REMARK    6  A    between atoms: O_13  and  C_14 
REMARK    7  A    between atoms: C_16  and  O_17 
REMARK    8  A    between atoms: N_25  and  C_26 
REMARK    9  A    between atoms: C_26  and  C_27 
REMARK   10  A    between atoms: C_27  and  C_28 
ROOT
HETATM    1  C   UNL     1       7.158  26.784  55.625  1.00  0.00     0.026 C 
HETATM    2  C   UNL     1       6.588  26.892  57.051  1.00  0.00     0.035 C 
HETATM    3  C   UNL     1       5.740  28.137  57.306  1.00  0.00     0.235 C 
HETATM    4  N   UNL     1       6.482  29.391  56.915  1.00  0.00    -0.067 N 
HETATM    5  H   UNL     1       7.267  29.483  57.572  1.00  0.00     0.280 HD
HETATM    6  C   UNL     1       7.049  29.352  55.516  1.00  0.00     0.235 C 
HETATM    7  C   UNL     1       7.887  28.105  55.306  1.00  0.00     0.035 C 
ENDROOT
BRANCH   1   8
HETATM    8  C   UNL     1       6.124  26.296  54.561  1.00  0.00     0.119 C 
HETATM    9  N   UNL     1       4.885  27.055  54.584  1.00  0.00    -0.324 N 
HETATM   10  C   UNL     1       4.510  27.439  53.312  1.00  0.00     0.326 C 
HETATM   11  H   UNL     1       4.092  26.797  55.163  1.00  0.00     0.165 HD
HETATM   12  O   UNL     1       3.392  27.849  53.061  1.00  0.00    -0.247 OA
HETATM   13  N   UNL     1       5.558  27.265  52.469  1.00  0.00    -0.268 N 
HETATM   14  C   UNL     1       6.572  26.610  53.112  1.00  0.00     0.256 C 
HETATM   15  O   UNL     1       7.650  26.289  52.632  1.00  0.00    -0.270 OA
BRANCH   8  16
HETATM   16  C   UNL     1       5.757  24.792  54.648  1.00  0.00     0.037 C 
HETATM   17  C   UNL     1       6.915  23.840  54.917  1.00  0.00     0.008 C 
ENDBRANCH   8  16
BRANCH  13  18
HETATM   18  C   UNL     1       5.495  27.490  51.033  1.00  0.00     0.142 C 
BRANCH  18  19
HETATM   19  C   UNL     1       4.887  26.311  50.265  1.00  0.00     0.068 C 
BRANCH  19  20
HETATM   20  C   UNL     1       4.118  26.780  49.072  1.00  0.00     0.010 A 
HETATM   21  S   UNL     1       4.092  28.440  48.636  1.00  0.00    -0.085 SA
HETATM   22  C   UNL     1       3.089  28.060  47.303  1.00  0.00     0.166 A 
HETATM   23  N   UNL     1       2.776  26.791  47.162  1.00  0.00    -0.258 NA
HETATM   24  C   UNL     1       3.356  26.046  48.174  1.00  0.00     0.044 A 
HETATM   25  C   UNL     1       3.116  24.577  48.191  1.00  0.00     0.071 C 
ENDBRANCH  19  20
ENDBRANCH  18  19
ENDBRANCH  13  18
ENDBRANCH   1   8
BRANCH   4  26
HETATM   26  C   UNL     1       5.651  30.659  57.073  1.00  0.00     0.273 C 
BRANCH  26  27
HETATM   27  C   UNL     1       5.873  31.415  58.354  1.00  0.00    -0.030 A 
HETATM   28  C   UNL     1       7.155  31.434  58.942  1.00  0.00     0.048 A 
HETATM   29  C   UNL     1       7.389  32.147  60.117  1.00  0.00     0.102 A 
HETATM   30  C   UNL     1       6.326  32.843  60.699  1.00  0.00     0.099 A 
HETATM   31  C   UNL     1       5.055  32.834  60.138  1.00  0.00     0.040 A 
HETATM   32  C   UNL     1       4.824  32.120  58.964  1.00  0.00     0.012 A 
BRANCH  29  33
HETATM   33  O   UNL     1       8.583  32.247  60.779  1.00  0.00    -0.349 OA
BRANCH  33  34
HETATM   34  C   UNL     1       9.310  31.040  61.011  1.00  0.00     0.171 C 
HETATM   35  C   UNL     1       8.925  30.510  62.380  1.00  0.00     0.034 C 
ENDBRANCH  33  34
ENDBRANCH  29  33
BRANCH  30  36
HETATM   36  O   UNL     1       6.512  33.555  61.850  1.00  0.00    -0.358 OA
HETATM   37  H   UNL     1       5.619  33.763  62.185  1.00  0.00     0.218 HD
ENDBRANCH  30  36
ENDBRANCH  26  27
ENDBRANCH   4  26
TORSDOF 10
ENDMDL
MODEL 8
REMARK VINA RESULT:      -7.9      5.153      8.106
REMARK  10 active torsions:
REMARK  status: ('A' for Active; 'I' for Inactive)
REMARK    1  A    between atoms: C_2  and  C_3 
REMARK    2  A    between atoms: C_3  and  C_4 
REMARK    3  A    between atoms: N_7  and  C_9 
REMARK    4  A    between atoms: C_9  and  C_10 
REMARK    5  A    between atoms: C_12  and  O_13 
REMARK    6  A    between atoms: O_13  and  C_14 
REMARK    7  A    between atoms: C_16  and  O_17 
REMARK    8  A    between atoms: N_25  and  C_26 
REMARK    9  A    between atoms: C_26  and  C_27 
REMARK   10  A    between atoms: C_27  and  C_28 
ROOT
HETATM    1  C   UNL     1       5.487  30.502  56.366  1.00  0.00     0.026 C 
HETATM    2  C   UNL     1       5.373  29.809  54.997  1.00  0.00     0.035 C 
HETATM    3  C   UNL     1       4.942  28.344  55.058  1.00  0.00     0.235 C 
HETATM    4  N   UNL     1       5.817  27.557  56.002  1.00  0.00    -0.067 N 
HETATM    5  H   UNL     1       6.751  27.525  55.576  1.00  0.00     0.280 HD
HETATM    6  C   UNL     1       5.950  28.180  57.370  1.00  0.00     0.235 C 
HETATM    7  C   UNL     1       6.385  29.629  57.266  1.00  0.00     0.035 C 
ENDROOT
BRANCH   1   8
HETATM    8  C   UNL     1       4.116  30.934  56.977  1.00  0.00     0.119 C 
HETATM    9  N   UNL     1       3.817  30.264  58.232  1.00  0.00    -0.324 N 
HETATM   10  C   UNL     1       3.395  31.163  59.191  1.00  0.00     0.326 C 
HETATM   11  H   UNL     1       3.320  29.380  58.279  1.00  0.00     0.165 HD
HETATM   12  O   UNL     1       2.849  30.806  60.218  1.00  0.00    -0.247 OA
HETATM   13  N   UNL     1       3.680  32.421  58.775  1.00  0.00    -0.268 N 
HETATM   14  C   UNL     1       4.127  32.398  57.482  1.00  0.00     0.256 C 
HETATM   15  O   UNL     1       4.458  33.364  56.810  1.00  0.00    -0.270 OA
BRANCH   8  16
HETATM   16  C   UNL     1       2.894  30.745  56.040  1.00  0.00     0.037 C 
HETATM   17  C   UNL     1       2.340  32.015  55.407  1.00  0.00     0.008 C 
ENDBRANCH   8  16
BRANCH  13  18
HETATM   18  C   UNL     1       3.300  33.624  59.499  1.00  0.00     0.142 C 
BRANCH  18  19
HETATM   19  C   UNL     1       4.462  34.253  60.276  1.00  0.00     0.068 C 
BRANCH  19  20
HETATM   20  C   UNL     1       4.794  33.455  61.495  1.00  0.00     0.010 A 
HETATM   21  S   UNL     1       6.203  32.476  61.552  1.00  0.00    -0.085 SA
HETATM   22  C   UNL     1       5.798  32.010  63.147  1.00  0.00     0.166 A 
HETATM   23  N   UNL     1       4.695  32.530  63.636  1.00  0.00    -0.258 NA
HETATM   24  C   UNL     1       4.106  33.358  62.696  1.00  0.00     0.044 A 
HETATM   25  C   UNL     1       2.836  34.044  63.061  1.00  0.00     0.071 C 
ENDBRANCH  19  20
ENDBRANCH  18  19
ENDBRANCH  13  18
ENDBRANCH   1   8
BRANCH   4  26
HETATM   26  C   UNL     1       5.379  26.106  56.162  1.00  0.00     0.273 C 
BRANCH  26  27
HETATM   27  C   UNL     1       6.089  25.120  55.276  1.00  0.00    -0.030 A 
HETATM   28  C   UNL     1       7.108  24.305  55.814  1.00  0.00     0.048 A 
HETATM   29  C   UNL     1       7.764  23.368  55.017  1.00  0.00     0.102 A 
HETATM   30  C   UNL     1       7.391  23.253  53.675  1.00  0.00     0.099 A 
HETATM   31  C   UNL     1       6.393  24.049  53.126  1.00  0.00     0.040 A 
HETATM   32  C   UNL     1       5.739  24.985  53.924  1.00  0.00     0.012 A 
BRANCH  29  33
HETATM   33  O   UNL     1       8.759  22.518  55.420  1.00  0.00    -0.349 OA
BRANCH  33  34
HETATM   34  C   UNL     1       8.483  21.660  56.527  1.00  0.00     0.171 C 
HETATM   35  C   UNL     1       7.714  20.456  56.014  1.00  0.00     0.034 C 
ENDBRANCH  33  34
ENDBRANCH  29  33
BRANCH  30  36
HETATM   36  O   UNL     1       8.008  22.347  52.860  1.00  0.00    -0.358 OA
HETATM   37  H   UNL     1       8.456  21.713  53.453  1.00  0.00     0.218 HD
ENDBRANCH  30  36
ENDBRANCH  26  27
ENDBRANCH   4  26
TORSDOF 10
ENDMDL
MODEL 9
REMARK VINA RESULT:      -7.9      5.527     10.469
REMARK  10 active torsions:
REMARK  status: ('A' for Active; 'I' for Inactive)
REMARK    1  A    between atoms: C_2  and  C_3 
REMARK    2  A    between atoms: C_3  and  C_4 
REMARK    3  A    between atoms: N_7  and  C_9 
REMARK    4  A    between atoms: C_9  and  C_10 
REMARK    5  A    between atoms: C_12  and  O_13 
REMARK    6  A    between atoms: O_13  and  C_14 
REMARK    7  A    between atoms: C_16  and  O_17 
REMARK    8  A    between atoms: N_25  and  C_26 
REMARK    9  A    between atoms: C_26  and  C_27 
REMARK   10  A    between atoms: C_27  and  C_28 
ROOT
HETATM    1  C   UNL     1       6.119  29.501  56.023  1.00  0.00     0.026 C 
HETATM    2  C   UNL     1       6.669  30.681  56.844  1.00  0.00     0.035 C 
HETATM    3  C   UNL     1       5.879  30.999  58.112  1.00  0.00     0.235 C 
HETATM    4  N   UNL     1       4.412  31.178  57.809  1.00  0.00    -0.067 N 
HETATM    5  H   UNL     1       4.332  32.032  57.243  1.00  0.00     0.280 HD
HETATM    6  C   UNL     1       3.810  30.040  57.020  1.00  0.00     0.235 C 
HETATM    7  C   UNL     1       4.620  29.760  55.769  1.00  0.00     0.035 C 
ENDROOT
BRANCH   1   8
HETATM    8  C   UNL     1       6.484  28.097  56.600  1.00  0.00     0.119 C 
HETATM    9  N   UNL     1       5.352  27.424  57.215  1.00  0.00    -0.324 N 
HETATM   10  C   UNL     1       5.255  26.116  56.785  1.00  0.00     0.326 C 
HETATM   11  H   UNL     1       5.115  27.531  58.196  1.00  0.00     0.165 HD
HETATM   12  O   UNL     1       4.556  25.297  57.353  1.00  0.00    -0.247 OA
HETATM   13  N   UNL     1       6.045  25.946  55.697  1.00  0.00    -0.268 N 
HETATM   14  C   UNL     1       6.805  27.065  55.491  1.00  0.00     0.256 C 
HETATM   15  O   UNL     1       7.627  27.232  54.602  1.00  0.00    -0.270 OA
BRANCH   8  16
HETATM   16  C   UNL     1       7.648  28.095  57.626  1.00  0.00     0.037 C 
HETATM   17  C   UNL     1       9.037  28.347  57.056  1.00  0.00     0.008 C 
ENDBRANCH   8  16
BRANCH  13  18
HETATM   18  C   UNL     1       6.252  24.670  55.031  1.00  0.00     0.142 C 
BRANCH  18  19
HETATM   19  C   UNL     1       7.289  23.785  55.732  1.00  0.00     0.068 C 
BRANCH  19  20
HETATM   20  C   UNL     1       7.659  22.609  54.886  1.00  0.00     0.010 A 
HETATM   21  S   UNL     1       7.654  22.717  53.173  1.00  0.00    -0.085 SA
HETATM   22  C   UNL     1       8.159  21.085  53.082  1.00  0.00     0.166 A 
HETATM   23  N   UNL     1       8.331  20.471  54.231  1.00  0.00    -0.258 NA
HETATM   24  C   UNL     1       8.042  21.333  55.275  1.00  0.00     0.044 A 
HETATM   25  C   UNL     1       8.175  20.821  56.666  1.00  0.00     0.071 C 
ENDBRANCH  19  20
ENDBRANCH  18  19
ENDBRANCH  13  18
ENDBRANCH   1   8
BRANCH   4  26
HETATM   26  C   UNL     1       3.563  31.417  59.052  1.00  0.00     0.273 C 
BRANCH  26  27
HETATM   27  C   UNL     1       3.950  32.618  59.871  1.00  0.00    -0.030 A 
HETATM   28  C   UNL     1       4.554  32.437  61.134  1.00  0.00     0.048 A 
HETATM   29  C   UNL     1       4.941  33.535  61.901  1.00  0.00     0.102 A 
HETATM   30  C   UNL     1       4.720  34.817  61.392  1.00  0.00     0.099 A 
HETATM   31  C   UNL     1       4.124  35.017  60.152  1.00  0.00     0.040 A 
HETATM   32  C   UNL     1       3.737  33.918  59.388  1.00  0.00     0.012 A 
BRANCH  29  33
HETATM   33  O   UNL     1       5.538  33.491  63.132  1.00  0.00    -0.349 OA
BRANCH  33  34
HETATM   34  C   UNL     1       6.515  32.473  63.354  1.00  0.00     0.171 C 
HETATM   35  C   UNL     1       7.682  33.089  64.103  1.00  0.00     0.034 C 
ENDBRANCH  33  34
ENDBRANCH  29  33
BRANCH  30  36
HETATM   36  O   UNL     1       5.086  35.920  62.111  1.00  0.00    -0.358 OA
HETATM   37  H   UNL     1       4.801  36.692  61.583  1.00  0.00     0.218 HD
ENDBRANCH  30  36
ENDBRANCH  26  27
ENDBRANCH   4  26
TORSDOF 10
ENDMDL
MODEL 10
REMARK VINA RESULT:      -7.8      3.265      9.817
REMARK  10 active torsions:
REMARK  status: ('A' for Active; 'I' for Inactive)
REMARK    1  A    between atoms: C_2  and  C_3 
REMARK    2  A    between atoms: C_3  and  C_4 
REMARK    3  A    between atoms: N_7  and  C_9 
REMARK    4  A    between atoms: C_9  and  C_10 
REMARK    5  A    between atoms: C_12  and  O_13 
REMARK    6  A    between atoms: O_13  and  C_14 
REMARK    7  A    between atoms: C_16  and  O_17 
REMARK    8  A    between atoms: N_25  and  C_26 
REMARK    9  A    between atoms: C_26  and  C_27 
REMARK   10  A    between atoms: C_27  and  C_28 
ROOT
HETATM    1  C   UNL     1       6.874  26.337  53.335  1.00  0.00     0.026 C 
HETATM    2  C   UNL     1       7.155  25.230  54.367  1.00  0.00     0.035 C 
HETATM    3  C   UNL     1       7.040  25.674  55.825  1.00  0.00     0.235 C 
HETATM    4  N   UNL     1       7.882  26.898  56.089  1.00  0.00    -0.067 N 
HETATM    5  H   UNL     1       8.862  26.605  55.992  1.00  0.00     0.280 HD
HETATM    6  C   UNL     1       7.636  28.027  55.118  1.00  0.00     0.235 C 
HETATM    7  C   UNL     1       7.764  27.547  53.684  1.00  0.00     0.035 C 
ENDROOT
BRANCH   1   8
HETATM    8  C   UNL     1       5.357  26.639  53.121  1.00  0.00     0.119 C 
HETATM    9  N   UNL     1       4.780  27.433  54.194  1.00  0.00    -0.324 N 
HETATM   10  C   UNL     1       4.036  28.483  53.695  1.00  0.00     0.326 C 
HETATM   11  H   UNL     1       4.365  27.019  55.022  1.00  0.00     0.165 HD
HETATM   12  O   UNL     1       3.259  29.114  54.387  1.00  0.00    -0.247 OA
HETATM   13  N   UNL     1       4.320  28.641  52.379  1.00  0.00    -0.268 N 
HETATM   14  C   UNL     1       5.107  27.611  51.941  1.00  0.00     0.256 C 
HETATM   15  O   UNL     1       5.529  27.450  50.806  1.00  0.00    -0.270 OA
BRANCH   8  16
HETATM   16  C   UNL     1       4.462  25.388  52.927  1.00  0.00     0.037 C 
HETATM   17  C   UNL     1       4.850  24.465  51.780  1.00  0.00     0.008 C 
ENDBRANCH   8  16
BRANCH  13  18
HETATM   18  C   UNL     1       3.656  29.602  51.512  1.00  0.00     0.142 C 
BRANCH  18  19
HETATM   19  C   UNL     1       2.511  28.989  50.697  1.00  0.00     0.068 C 
BRANCH  19  20
HETATM   20  C   UNL     1       2.743  29.151  49.229  1.00  0.00     0.010 A 
HETATM   21  S   UNL     1       3.875  30.297  48.635  1.00  0.00    -0.085 SA
HETATM   22  C   UNL     1       3.504  29.813  47.036  1.00  0.00     0.166 A 
HETATM   23  N   UNL     1       2.604  28.863  46.916  1.00  0.00    -0.258 NA
HETATM   24  C   UNL     1       2.154  28.478  48.168  1.00  0.00     0.044 A 
HETATM   25  C   UNL     1       1.122  27.408  48.244  1.00  0.00     0.071 C 
ENDBRANCH  19  20
ENDBRANCH  18  19
ENDBRANCH  13  18
ENDBRANCH   1   8
BRANCH   4  26
HETATM   26  C   UNL     1       7.741  27.431  57.509  1.00  0.00     0.273 C 
BRANCH  26  27
HETATM   27  C   UNL     1       8.435  28.739  57.775  1.00  0.00    -0.030 A 
HETATM   28  C   UNL     1       7.839  29.684  58.637  1.00  0.00     0.048 A 
HETATM   29  C   UNL     1       8.474  30.893  58.916  1.00  0.00     0.102 A 
HETATM   30  C   UNL     1       9.713  31.149  58.324  1.00  0.00     0.099 A 
HETATM   31  C   UNL     1      10.316  30.234  57.469  1.00  0.00     0.040 A 
HETATM   32  C   UNL     1       9.678  29.026  57.192  1.00  0.00     0.012 A 
BRANCH  29  33
HETATM   33  O   UNL     1       8.004  31.884  59.736  1.00  0.00    -0.349 OA
BRANCH  33  34
HETATM   34  C   UNL     1       7.717  31.535  61.091  1.00  0.00     0.171 C 
HETATM   35  C   UNL     1       9.012  31.109  61.756  1.00  0.00     0.034 C 
ENDBRANCH  33  34
ENDBRANCH  29  33
BRANCH  30  36
HETATM   36  O   UNL     1      10.370  32.321  58.571  1.00  0.00    -0.358 OA
HETATM   37  H   UNL     1      11.310  32.151  58.367  1.00  0.00     0.218 HD
ENDBRANCH  30  36
ENDBRANCH  26  27
ENDBRANCH   4  26
TORSDOF 10
ENDMDL
