MODEL 1
REMARK VINA RESULT:      -9.5      0.000      0.000
REMARK  11 active torsions:
REMARK  status: ('A' for Active; 'I' for Inactive)
REMARK    1  A    between atoms: C_2  and  O_3 
REMARK    2  A    between atoms: C_2  and  C_4 
REMARK    3  A    between atoms: C_8  and  C_9 
REMARK    4  A    between atoms: C_12  and  C_13 
REMARK    5  A    between atoms: C_13  and  C_14 
REMARK    6  A    between atoms: C_14  and  N_15 
REMARK    7  A    between atoms: C_14  and  C_29 
REMARK       I    between atoms: N_15  and  C_16 
REMARK    8  A    between atoms: C_16  and  C_17 
REMARK    9  A    between atoms: C_21  and  O_22 
REMARK   10  A    between atoms: O_22  and  C_23 
REMARK   11  A    between atoms: C_29  and  N_30 
ROOT
HETATM    1  C   UNL     1       4.399  28.604  52.413  1.00  0.00     0.114 C 
ENDROOT
BRANCH   1   2
HETATM    2  C   UNL     1       3.477  28.704  53.657  1.00  0.00     0.065 C 
BRANCH   2   3
HETATM    3  C   UNL     1       4.155  29.274  54.881  1.00  0.00    -0.056 A 
HETATM    4  C   UNL     1       4.564  30.614  54.928  1.00  0.00     0.008 A 
HETATM    5  C   UNL     1       5.261  31.114  56.033  1.00  0.00     0.014 A 
HETATM    6  C   UNL     1       5.593  30.281  57.109  1.00  0.00    -0.006 A 
HETATM    7  C   UNL     1       5.189  28.940  57.056  1.00  0.00     0.014 A 
HETATM    8  C   UNL     1       4.482  28.440  55.958  1.00  0.00     0.008 A 
BRANCH   6   9
HETATM    9  C   UNL     1       6.365  30.755  58.249  1.00  0.00     0.085 A 
HETATM   10  C   UNL     1       7.645  30.375  58.594  1.00  0.00     0.130 A 
HETATM   11  N   UNL     1       7.937  31.052  59.752  1.00  0.00    -0.315 N 
HETATM   12  C   UNL     1       6.823  31.822  60.063  1.00  0.00     0.143 A 
HETATM   13  C   UNL     1       9.094  31.018  60.519  1.00  0.00     0.098 A 
HETATM   14  C   UNL     1       6.869  32.631  61.256  1.00  0.00     0.017 A 
HETATM   15  N   UNL     1       5.871  31.660  59.164  1.00  0.00    -0.228 NA
HETATM   16  C   UNL     1       8.013  32.592  61.987  1.00  0.00     0.015 A 
HETATM   17  C   UNL     1       9.158  31.769  61.629  1.00  0.00     0.018 A 
BRANCH  14  18
HETATM   18  C   UNL     1       5.694  33.507  61.663  1.00  0.00     0.150 C 
HETATM   19  C   UNL     1       6.144  34.695  62.508  1.00  0.00     0.044 C 
BRANCH  18  20
HETATM   20  O   UNL     1       5.003  34.005  60.514  1.00  0.00    -0.391 OA
HETATM   21  H   UNL     1       5.217  34.951  60.443  1.00  0.00     0.210 HD
ENDBRANCH  18  20
ENDBRANCH  14  18
ENDBRANCH   6   9
ENDBRANCH   2   3
ENDBRANCH   1   2
BRANCH   1  22
HETATM   22  N   UNL     1       5.228  27.383  52.517  1.00  0.00    -0.350 N 
HETATM   23  C   UNL     1       6.511  27.370  53.022  1.00  0.00     0.252 C 
HETATM   24  O   UNL     1       7.132  28.406  53.241  1.00  0.00    -0.268 OA
HETATM   25  H   UNL     1       4.723  26.506  52.615  1.00  0.00     0.163 HD
BRANCH  23  26
HETATM   26  C   UNL     1       7.104  26.038  53.305  1.00  0.00     0.033 A 
HETATM   27  C   UNL     1       7.333  25.679  54.636  1.00  0.00     0.043 A 
HETATM   28  C   UNL     1       7.888  24.431  54.930  1.00  0.00     0.068 A 
HETATM   29 CL   UNL     1       8.134  24.028  56.592  1.00  0.00    -0.081 Cl
HETATM   30  C   UNL     1       8.248  23.546  53.904  1.00  0.00     0.091 A 
HETATM   31  C   UNL     1       8.007  23.908  52.576  1.00  0.00     0.039 A 
HETATM   32  C   UNL     1       7.445  25.154  52.274  1.00  0.00     0.020 A 
BRANCH  30  33
HETATM   33  O   UNL     1       8.767  22.331  54.261  1.00  0.00    -0.345 OA
BRANCH  33  34
HETATM   34  C   UNL     1       7.918  21.182  54.136  1.00  0.00     0.121 C 
HETATM   35  C   UNL     1       8.315  20.338  52.925  1.00  0.00     0.040 C 
HETATM   36  C   UNL     1       8.095  20.369  55.416  1.00  0.00     0.040 C 
ENDBRANCH  33  34
ENDBRANCH  30  33
ENDBRANCH  23  26
ENDBRANCH   1  22
BRANCH   1  37
HETATM   37  C   UNL     1       3.532  28.664  51.122  1.00  0.00     0.254 C 
BRANCH  37  38
HETATM   38  N   UNL     1       2.080  28.720  51.433  1.00  0.00    -0.077 N 
HETATM   39  H   UNL     1       1.878  29.218  52.307  1.00  0.00     0.274 HD
HETATM   40  H   UNL     1       1.582  29.264  50.694  1.00  0.00     0.274 HD
HETATM   41  H   UNL     1       1.637  27.796  51.467  1.00  0.00     0.274 HD
ENDBRANCH  37  38
ENDBRANCH   1  37
TORSDOF 11
ENDMDL
MODEL 2
REMARK VINA RESULT:      -9.4      3.555     11.458
REMARK  11 active torsions:
REMARK  status: ('A' for Active; 'I' for Inactive)
REMARK    1  A    between atoms: C_2  and  O_3 
REMARK    2  A    between atoms: C_2  and  C_4 
REMARK    3  A    between atoms: C_8  and  C_9 
REMARK    4  A    between atoms: C_12  and  C_13 
REMARK    5  A    between atoms: C_13  and  C_14 
REMARK    6  A    between atoms: C_14  and  N_15 
REMARK    7  A    between atoms: C_14  and  C_29 
REMARK       I    between atoms: N_15  and  C_16 
REMARK    8  A    between atoms: C_16  and  C_17 
REMARK    9  A    between atoms: C_21  and  O_22 
REMARK   10  A    between atoms: O_22  and  C_23 
REMARK   11  A    between atoms: C_29  and  N_30 
ROOT
HETATM    1  C   UNL     1       7.764  31.269  58.580  1.00  0.00     0.114 C 
ENDROOT
BRANCH   1   2
HETATM    2  C   UNL     1       6.588  30.657  57.773  1.00  0.00     0.065 C 
BRANCH   2   3
HETATM    3  C   UNL     1       6.918  29.343  57.104  1.00  0.00    -0.056 A 
HETATM    4  C   UNL     1       7.014  29.243  55.709  1.00  0.00     0.008 A 
HETATM    5  C   UNL     1       7.241  28.007  55.092  1.00  0.00     0.014 A 
HETATM    6  C   UNL     1       7.352  26.836  55.852  1.00  0.00    -0.006 A 
HETATM    7  C   UNL     1       7.250  26.939  57.246  1.00  0.00     0.014 A 
HETATM    8  C   UNL     1       7.033  28.174  57.866  1.00  0.00     0.008 A 
BRANCH   6   9
HETATM    9  C   UNL     1       7.534  25.527  55.239  1.00  0.00     0.085 A 
HETATM   10  C   UNL     1       7.557  25.244  53.889  1.00  0.00     0.130 A 
HETATM   11  N   UNL     1       7.715  23.884  53.795  1.00  0.00    -0.315 N 
HETATM   12  C   UNL     1       7.787  23.394  55.093  1.00  0.00     0.143 A 
HETATM   13  C   UNL     1       7.790  23.087  52.660  1.00  0.00     0.098 A 
HETATM   14  C   UNL     1       7.945  21.972  55.274  1.00  0.00     0.017 A 
HETATM   15  N   UNL     1       7.687  24.371  55.974  1.00  0.00    -0.228 NA
HETATM   16  C   UNL     1       8.026  21.211  54.152  1.00  0.00     0.015 A 
HETATM   17  C   UNL     1       7.943  21.762  52.808  1.00  0.00     0.018 A 
BRANCH  14  18
HETATM   18  C   UNL     1       8.039  21.356  56.661  1.00  0.00     0.150 C 
HETATM   19  C   UNL     1       9.078  20.240  56.713  1.00  0.00     0.044 C 
BRANCH  18  20
HETATM   20  O   UNL     1       8.385  22.342  57.638  1.00  0.00    -0.391 OA
HETATM   21  H   UNL     1       9.007  21.922  58.256  1.00  0.00     0.210 HD
ENDBRANCH  18  20
ENDBRANCH  14  18
ENDBRANCH   6   9
ENDBRANCH   2   3
ENDBRANCH   1   2
BRANCH   1  22
HETATM   22  N   UNL     1       7.332  31.493  59.978  1.00  0.00    -0.350 N 
HETATM   23  C   UNL     1       7.952  32.372  60.839  1.00  0.00     0.252 C 
HETATM   24  O   UNL     1       9.032  32.891  60.570  1.00  0.00    -0.268 OA
HETATM   25  H   UNL     1       6.348  31.327  60.173  1.00  0.00     0.163 HD
BRANCH  23  26
HETATM   26  C   UNL     1       7.242  32.678  62.108  1.00  0.00     0.033 A 
HETATM   27  C   UNL     1       5.879  32.980  62.054  1.00  0.00     0.043 A 
HETATM   28  C   UNL     1       5.187  33.270  63.232  1.00  0.00     0.068 A 
HETATM   29 CL   UNL     1       3.500  33.620  63.113  1.00  0.00    -0.081 Cl
HETATM   30  C   UNL     1       5.851  33.291  64.467  1.00  0.00     0.091 A 
HETATM   31  C   UNL     1       7.212  32.977  64.514  1.00  0.00     0.039 A 
HETATM   32  C   UNL     1       7.911  32.680  63.338  1.00  0.00     0.020 A 
BRANCH  30  33
HETATM   33  O   UNL     1       5.111  33.560  65.586  1.00  0.00    -0.345 OA
BRANCH  33  34
HETATM   34  C   UNL     1       5.240  34.864  66.171  1.00  0.00     0.121 C 
HETATM   35  C   UNL     1       3.882  35.559  66.263  1.00  0.00     0.040 C 
HETATM   36  C   UNL     1       5.814  34.657  67.570  1.00  0.00     0.040 C 
ENDBRANCH  33  34
ENDBRANCH  30  33
ENDBRANCH  23  26
ENDBRANCH   1  22
BRANCH   1  37
HETATM   37  C   UNL     1       9.012  30.349  58.451  1.00  0.00     0.254 C 
BRANCH  37  38
HETATM   38  N   UNL     1      10.247  31.128  58.172  1.00  0.00    -0.077 N 
HETATM   39  H   UNL     1      10.615  31.602  59.003  1.00  0.00     0.274 HD
HETATM   40  H   UNL     1      11.010  30.483  57.870  1.00  0.00     0.274 HD
HETATM   41  H   UNL     1      10.130  31.816  57.421  1.00  0.00     0.274 HD
ENDBRANCH  37  38
ENDBRANCH   1  37
TORSDOF 11
ENDMDL
MODEL 3
REMARK VINA RESULT:      -9.4      1.301      2.181
REMARK  11 active torsions:
REMARK  status: ('A' for Active; 'I' for Inactive)
REMARK    1  A    between atoms: C_2  and  O_3 
REMARK    2  A    between atoms: C_2  and  C_4 
REMARK    3  A    between atoms: C_8  and  C_9 
REMARK    4  A    between atoms: C_12  and  C_13 
REMARK    5  A    between atoms: C_13  and  C_14 
REMARK    6  A    between atoms: C_14  and  N_15 
REMARK    7  A    between atoms: C_14  and  C_29 
REMARK       I    between atoms: N_15  and  C_16 
REMARK    8  A    between atoms: C_16  and  C_17 
REMARK    9  A    between atoms: C_21  and  O_22 
REMARK   10  A    between atoms: O_22  and  C_23 
REMARK   11  A    between atoms: C_29  and  N_30 
ROOT
HETATM    1  C   UNL     1       4.617  28.315  51.882  1.00  0.00     0.114 C 
ENDROOT
BRANCH   1   2
HETATM    2  C   UNL     1       3.553  28.480  52.999  1.00  0.00     0.065 C 
BRANCH   2   3
HETATM    3  C   UNL     1       4.070  29.158  54.247  1.00  0.00    -0.056 A 
HETATM    4  C   UNL     1       4.301  28.433  55.424  1.00  0.00     0.008 A 
HETATM    5  C   UNL     1       4.704  29.080  56.598  1.00  0.00     0.014 A 
HETATM    6  C   UNL     1       4.860  30.471  56.633  1.00  0.00    -0.006 A 
HETATM    7  C   UNL     1       4.622  31.193  55.456  1.00  0.00     0.014 A 
HETATM    8  C   UNL     1       4.230  30.548  54.279  1.00  0.00     0.008 A 
BRANCH   6   9
HETATM    9  C   UNL     1       5.225  31.181  57.852  1.00  0.00     0.085 A 
HETATM   10  C   UNL     1       4.447  32.085  58.544  1.00  0.00     0.130 A 
HETATM   11  N   UNL     1       5.220  32.515  59.594  1.00  0.00    -0.315 N 
HETATM   12  C   UNL     1       6.436  31.851  59.502  1.00  0.00     0.143 A 
HETATM   13  C   UNL     1       4.913  33.435  60.588  1.00  0.00     0.098 A 
HETATM   14  C   UNL     1       7.443  32.136  60.494  1.00  0.00     0.017 A 
HETATM   15  N   UNL     1       6.453  31.038  58.462  1.00  0.00    -0.228 NA
HETATM   16  C   UNL     1       7.120  33.031  61.463  1.00  0.00     0.015 A 
HETATM   17  C   UNL     1       5.834  33.709  61.524  1.00  0.00     0.018 A 
BRANCH  14  18
HETATM   18  C   UNL     1       8.798  31.446  60.468  1.00  0.00     0.150 C 
HETATM   19  C   UNL     1       9.677  31.886  61.634  1.00  0.00     0.044 C 
BRANCH  18  20
HETATM   20  O   UNL     1       8.651  30.025  60.523  1.00  0.00    -0.391 OA
HETATM   21  H   UNL     1       9.162  29.658  59.782  1.00  0.00     0.210 HD
ENDBRANCH  18  20
ENDBRANCH  14  18
ENDBRANCH   6   9
ENDBRANCH   2   3
ENDBRANCH   1   2
BRANCH   1  22
HETATM   22  N   UNL     1       5.443  27.121  52.169  1.00  0.00    -0.350 N 
HETATM   23  C   UNL     1       6.623  27.159  52.881  1.00  0.00     0.252 C 
HETATM   24  O   UNL     1       7.176  28.219  53.163  1.00  0.00    -0.268 OA
HETATM   25  H   UNL     1       4.947  26.234  52.213  1.00  0.00     0.163 HD
BRANCH  23  26
HETATM   26  C   UNL     1       7.189  25.854  53.308  1.00  0.00     0.033 A 
HETATM   27  C   UNL     1       7.438  25.648  54.667  1.00  0.00     0.043 A 
HETATM   28  C   UNL     1       7.969  24.429  55.097  1.00  0.00     0.068 A 
HETATM   29 CL   UNL     1       8.242  24.218  56.789  1.00  0.00    -0.081 Cl
HETATM   30  C   UNL     1       8.283  23.419  54.175  1.00  0.00     0.091 A 
HETATM   31  C   UNL     1       8.020  23.629  52.819  1.00  0.00     0.039 A 
HETATM   32  C   UNL     1       7.484  24.846  52.382  1.00  0.00     0.020 A 
BRANCH  30  33
HETATM   33  O   UNL     1       8.779  22.242  54.664  1.00  0.00    -0.345 OA
BRANCH  33  34
HETATM   34  C   UNL     1       7.994  21.057  54.470  1.00  0.00     0.121 C 
HETATM   35  C   UNL     1       8.665  20.112  53.474  1.00  0.00     0.040 C 
HETATM   36  C   UNL     1       7.883  20.381  55.834  1.00  0.00     0.040 C 
ENDBRANCH  33  34
ENDBRANCH  30  33
ENDBRANCH  23  26
ENDBRANCH   1  22
BRANCH   1  37
HETATM   37  C   UNL     1       3.909  28.268  50.498  1.00  0.00     0.254 C 
BRANCH  37  38
HETATM   38  N   UNL     1       3.965  26.912  49.892  1.00  0.00    -0.077 N 
HETATM   39  H   UNL     1       4.875  26.456  50.020  1.00  0.00     0.274 HD
HETATM   40  H   UNL     1       3.281  26.284  50.368  1.00  0.00     0.274 HD
HETATM   41  H   UNL     1       3.727  26.904  48.895  1.00  0.00     0.274 HD
ENDBRANCH  37  38
ENDBRANCH   1  37
TORSDOF 11
ENDMDL
MODEL 4
REMARK VINA RESULT:      -9.0      3.730      9.762
REMARK  11 active torsions:
REMARK  status: ('A' for Active; 'I' for Inactive)
REMARK    1  A    between atoms: C_2  and  O_3 
REMARK    2  A    between atoms: C_2  and  C_4 
REMARK    3  A    between atoms: C_8  and  C_9 
REMARK    4  A    between atoms: C_12  and  C_13 
REMARK    5  A    between atoms: C_13  and  C_14 
REMARK    6  A    between atoms: C_14  and  N_15 
REMARK    7  A    between atoms: C_14  and  C_29 
REMARK       I    between atoms: N_15  and  C_16 
REMARK    8  A    between atoms: C_16  and  C_17 
REMARK    9  A    between atoms: C_21  and  O_22 
REMARK   10  A    between atoms: O_22  and  C_23 
REMARK   11  A    between atoms: C_29  and  N_30 
ROOT
HETATM    1  C   UNL     1       8.564  22.725  55.564  1.00  0.00     0.114 C 
ENDROOT
BRANCH   1   2
HETATM    2  C   UNL     1       8.248  22.432  54.073  1.00  0.00     0.065 C 
BRANCH   2   3
HETATM    3  C   UNL     1       7.521  23.553  53.367  1.00  0.00    -0.056 A 
HETATM    4  C   UNL     1       6.134  23.713  53.497  1.00  0.00     0.008 A 
HETATM    5  C   UNL     1       5.456  24.704  52.778  1.00  0.00     0.014 A 
HETATM    6  C   UNL     1       6.141  25.542  51.889  1.00  0.00    -0.006 A 
HETATM    7  C   UNL     1       7.526  25.374  51.757  1.00  0.00     0.014 A 
HETATM    8  C   UNL     1       8.209  24.392  52.482  1.00  0.00     0.008 A 
BRANCH   6   9
HETATM    9  C   UNL     1       5.458  26.546  51.085  1.00  0.00     0.085 A 
HETATM   10  C   UNL     1       5.552  27.915  51.220  1.00  0.00     0.130 A 
HETATM   11  N   UNL     1       4.708  28.442  50.274  1.00  0.00    -0.315 N 
HETATM   12  C   UNL     1       4.137  27.372  49.598  1.00  0.00     0.143 A 
HETATM   13  C   UNL     1       4.427  29.774  49.996  1.00  0.00     0.098 A 
HETATM   14  C   UNL     1       3.192  27.658  48.547  1.00  0.00     0.017 A 
HETATM   15  N   UNL     1       4.584  26.223  50.069  1.00  0.00    -0.228 NA
HETATM   16  C   UNL     1       2.937  28.966  48.284  1.00  0.00     0.015 A 
HETATM   17  C   UNL     1       3.555  30.060  49.018  1.00  0.00     0.018 A 
BRANCH  14  18
HETATM   18  C   UNL     1       2.527  26.543  47.755  1.00  0.00     0.150 C 
HETATM   19  C   UNL     1       1.392  27.071  46.883  1.00  0.00     0.044 C 
BRANCH  18  20
HETATM   20  O   UNL     1       3.472  25.878  46.913  1.00  0.00    -0.391 OA
HETATM   21  H   UNL     1       3.476  26.351  46.063  1.00  0.00     0.210 HD
ENDBRANCH  18  20
ENDBRANCH  14  18
ENDBRANCH   6   9
ENDBRANCH   2   3
ENDBRANCH   1   2
BRANCH   1  22
HETATM   22  N   UNL     1       7.744  23.869  56.021  1.00  0.00    -0.350 N 
HETATM   23  C   UNL     1       8.226  24.887  56.815  1.00  0.00     0.252 C 
HETATM   24  O   UNL     1       9.322  24.818  57.364  1.00  0.00    -0.268 OA
HETATM   25  H   UNL     1       6.965  24.129  55.421  1.00  0.00     0.163 HD
BRANCH  23  26
HETATM   26  C   UNL     1       7.362  26.086  56.963  1.00  0.00     0.033 A 
HETATM   27  C   UNL     1       7.899  27.226  57.567  1.00  0.00     0.043 A 
HETATM   28  C   UNL     1       7.108  28.368  57.718  1.00  0.00     0.068 A 
HETATM   29 CL   UNL     1       7.825  29.756  58.453  1.00  0.00    -0.081 Cl
HETATM   30  C   UNL     1       5.770  28.373  57.298  1.00  0.00     0.091 A 
HETATM   31  C   UNL     1       5.243  27.233  56.686  1.00  0.00     0.039 A 
HETATM   32  C   UNL     1       6.031  26.088  56.526  1.00  0.00     0.020 A 
BRANCH  30  33
HETATM   33  O   UNL     1       5.057  29.530  57.454  1.00  0.00    -0.345 OA
BRANCH  33  34
HETATM   34  C   UNL     1       5.025  30.447  56.351  1.00  0.00     0.121 C 
HETATM   35  C   UNL     1       3.695  30.355  55.604  1.00  0.00     0.040 C 
HETATM   36  C   UNL     1       5.194  31.844  56.942  1.00  0.00     0.040 C 
ENDBRANCH  33  34
ENDBRANCH  30  33
ENDBRANCH  23  26
ENDBRANCH   1  22
BRANCH   1  37
HETATM   37  C   UNL     1       8.352  21.430  56.400  1.00  0.00     0.254 C 
BRANCH  37  38
HETATM   38  N   UNL     1       7.773  20.331  55.583  1.00  0.00    -0.077 N 
HETATM   39  H   UNL     1       8.074  19.401  55.895  1.00  0.00     0.274 HD
HETATM   40  H   UNL     1       6.735  20.326  55.683  1.00  0.00     0.274 HD
HETATM   41  H   UNL     1       7.971  20.425  54.581  1.00  0.00     0.274 HD
ENDBRANCH  37  38
ENDBRANCH   1  37
TORSDOF 11
ENDMDL
MODEL 5
REMARK VINA RESULT:      -9.0      3.267      4.942
REMARK  11 active torsions:
REMARK  status: ('A' for Active; 'I' for Inactive)
REMARK    1  A    between atoms: C_2  and  O_3 
REMARK    2  A    between atoms: C_2  and  C_4 
REMARK    3  A    between atoms: C_8  and  C_9 
REMARK    4  A    between atoms: C_12  and  C_13 
REMARK    5  A    between atoms: C_13  and  C_14 
REMARK    6  A    between atoms: C_14  and  N_15 
REMARK    7  A    between atoms: C_14  and  C_29 
REMARK       I    between atoms: N_15  and  C_16 
REMARK    8  A    between atoms: C_16  and  C_17 
REMARK    9  A    between atoms: C_21  and  O_22 
REMARK   10  A    between atoms: O_22  and  C_23 
REMARK   11  A    between atoms: C_29  and  N_30 
ROOT
HETATM    1  C   UNL     1       9.356  29.244  57.530  1.00  0.00     0.114 C 
ENDROOT
BRANCH   1   2
HETATM    2  C   UNL     1       8.180  30.247  57.396  1.00  0.00     0.065 C 
BRANCH   2   3
HETATM    3  C   UNL     1       7.688  30.800  58.714  1.00  0.00    -0.056 A 
HETATM    4  C   UNL     1       6.554  31.621  58.779  1.00  0.00     0.008 A 
HETATM    5  C   UNL     1       6.151  32.194  59.990  1.00  0.00     0.014 A 
HETATM    6  C   UNL     1       6.886  31.983  61.163  1.00  0.00    -0.006 A 
HETATM    7  C   UNL     1       8.024  31.167  61.093  1.00  0.00     0.014 A 
HETATM    8  C   UNL     1       8.423  30.585  59.886  1.00  0.00     0.008 A 
BRANCH   6   9
HETATM    9  C   UNL     1       6.526  32.608  62.428  1.00  0.00     0.085 A 
HETATM   10  C   UNL     1       7.323  32.724  63.548  1.00  0.00     0.130 A 
HETATM   11  N   UNL     1       6.549  33.346  64.495  1.00  0.00    -0.315 N 
HETATM   12  C   UNL     1       5.312  33.588  63.912  1.00  0.00     0.143 A 
HETATM   13  C   UNL     1       6.871  33.692  65.801  1.00  0.00     0.098 A 
HETATM   14  C   UNL     1       4.298  34.233  64.711  1.00  0.00     0.017 A 
HETATM   15  N   UNL     1       5.284  33.157  62.665  1.00  0.00    -0.228 NA
HETATM   16  C   UNL     1       4.636  34.571  65.982  1.00  0.00     0.015 A 
HETATM   17  C   UNL     1       5.944  34.298  66.558  1.00  0.00     0.018 A 
BRANCH  14  18
HETATM   18  C   UNL     1       2.921  34.540  64.145  1.00  0.00     0.150 C 
HETATM   19  C   UNL     1       2.968  35.681  63.135  1.00  0.00     0.044 C 
BRANCH  18  20
HETATM   20  O   UNL     1       2.362  33.390  63.503  1.00  0.00    -0.391 OA
HETATM   21  H   UNL     1       2.734  32.609  63.946  1.00  0.00     0.210 HD
ENDBRANCH  18  20
ENDBRANCH  14  18
ENDBRANCH   6   9
ENDBRANCH   2   3
ENDBRANCH   1   2
BRANCH   1  22
HETATM   22  N   UNL     1       8.863  27.875  57.260  1.00  0.00    -0.350 N 
HETATM   23  C   UNL     1       7.998  27.561  56.233  1.00  0.00     0.252 C 
HETATM   24  O   UNL     1       7.418  28.429  55.586  1.00  0.00    -0.268 OA
HETATM   25  H   UNL     1       9.473  27.114  57.550  1.00  0.00     0.163 HD
BRANCH  23  26
HETATM   26  C   UNL     1       7.811  26.119  55.933  1.00  0.00     0.033 A 
HETATM   27  C   UNL     1       7.284  25.759  54.690  1.00  0.00     0.043 A 
HETATM   28  C   UNL     1       7.099  24.409  54.381  1.00  0.00     0.068 A 
HETATM   29 CL   UNL     1       6.461  24.016  52.825  1.00  0.00    -0.081 Cl
HETATM   30  C   UNL     1       7.409  23.410  55.316  1.00  0.00     0.091 A 
HETATM   31  C   UNL     1       7.946  23.778  56.553  1.00  0.00     0.039 A 
HETATM   32  C   UNL     1       8.138  25.128  56.867  1.00  0.00     0.020 A 
BRANCH  30  33
HETATM   33  O   UNL     1       7.225  22.107  54.943  1.00  0.00    -0.345 OA
BRANCH  33  34
HETATM   34  C   UNL     1       8.376  21.373  54.500  1.00  0.00     0.121 C 
HETATM   35  C   UNL     1       8.765  20.302  55.518  1.00  0.00     0.040 C 
HETATM   36  C   UNL     1       7.990  20.716  53.177  1.00  0.00     0.040 C 
ENDBRANCH  33  34
ENDBRANCH  30  33
ENDBRANCH  23  26
ENDBRANCH   1  22
BRANCH   1  37
HETATM   37  C   UNL     1      10.520  29.685  56.598  1.00  0.00     0.254 C 
BRANCH  37  38
HETATM   38  N   UNL     1      11.731  30.069  57.368  1.00  0.00    -0.077 N 
HETATM   39  H   UNL     1      12.599  29.942  56.837  1.00  0.00     0.274 HD
HETATM   40  H   UNL     1      11.700  31.088  57.591  1.00  0.00     0.274 HD
HETATM   41  H   UNL     1      11.815  29.575  58.263  1.00  0.00     0.274 HD
ENDBRANCH  37  38
ENDBRANCH   1  37
TORSDOF 11
ENDMDL
MODEL 6
REMARK VINA RESULT:      -8.9      3.666     11.296
REMARK  11 active torsions:
REMARK  status: ('A' for Active; 'I' for Inactive)
REMARK    1  A    between atoms: C_2  and  O_3 
REMARK    2  A    between atoms: C_2  and  C_4 
REMARK    3  A    between atoms: C_8  and  C_9 
REMARK    4  A    between atoms: C_12  and  C_13 
REMARK    5  A    between atoms: C_13  and  C_14 
REMARK    6  A    between atoms: C_14  and  N_15 
REMARK    7  A    between atoms: C_14  and  C_29 
REMARK       I    between atoms: N_15  and  C_16 
REMARK    8  A    between atoms: C_16  and  C_17 
REMARK    9  A    between atoms: C_21  and  O_22 
REMARK   10  A    between atoms: O_22  and  C_23 
REMARK   11  A    between atoms: C_29  and  N_30 
ROOT
HETATM    1  C   UNL     1       8.100  30.832  57.825  1.00  0.00     0.114 C 
ENDROOT
BRANCH   1   2
HETATM    2  C   UNL     1       7.010  30.058  57.036  1.00  0.00     0.065 C 
BRANCH   2   3
HETATM    3  C   UNL     1       7.320  28.593  56.835  1.00  0.00    -0.056 A 
HETATM    4  C   UNL     1       7.399  28.038  55.550  1.00  0.00     0.008 A 
HETATM    5  C   UNL     1       7.608  26.665  55.372  1.00  0.00     0.014 A 
HETATM    6  C   UNL     1       7.717  25.808  56.474  1.00  0.00    -0.006 A 
HETATM    7  C   UNL     1       7.630  26.365  57.757  1.00  0.00     0.014 A 
HETATM    8  C   UNL     1       7.432  27.738  57.938  1.00  0.00     0.008 A 
BRANCH   6   9
HETATM    9  C   UNL     1       7.879  24.368  56.325  1.00  0.00     0.085 A 
HETATM   10  C   UNL     1       8.237  23.472  57.310  1.00  0.00     0.130 A 
HETATM   11  N   UNL     1       8.299  22.246  56.695  1.00  0.00    -0.315 N 
HETATM   12  C   UNL     1       7.971  22.445  55.360  1.00  0.00     0.143 A 
HETATM   13  C   UNL     1       8.624  21.009  57.237  1.00  0.00     0.098 A 
HETATM   14  C   UNL     1       7.972  21.301  54.482  1.00  0.00     0.017 A 
HETATM   15  N   UNL     1       7.709  23.717  55.122  1.00  0.00    -0.228 NA
HETATM   16  C   UNL     1       8.284  20.099  55.033  1.00  0.00     0.015 A 
HETATM   17  C   UNL     1       8.624  19.932  56.438  1.00  0.00     0.018 A 
BRANCH  14  18
HETATM   18  C   UNL     1       7.619  21.433  53.009  1.00  0.00     0.150 C 
HETATM   19  C   UNL     1       8.049  22.784  52.445  1.00  0.00     0.044 C 
BRANCH  18  20
HETATM   20  O   UNL     1       8.241  20.402  52.238  1.00  0.00    -0.391 OA
HETATM   21  H   UNL     1       9.083  20.762  51.911  1.00  0.00     0.210 HD
ENDBRANCH  18  20
ENDBRANCH  14  18
ENDBRANCH   6   9
ENDBRANCH   2   3
ENDBRANCH   1   2
BRANCH   1  22
HETATM   22  N   UNL     1       7.642  31.036  59.217  1.00  0.00    -0.350 N 
HETATM   23  C   UNL     1       8.092  32.053  60.031  1.00  0.00     0.252 C 
HETATM   24  O   UNL     1       9.055  32.751  59.723  1.00  0.00    -0.268 OA
HETATM   25  H   UNL     1       6.707  30.699  59.434  1.00  0.00     0.163 HD
BRANCH  23  26
HETATM   26  C   UNL     1       7.346  32.279  61.295  1.00  0.00     0.033 A 
HETATM   27  C   UNL     1       5.955  32.395  61.236  1.00  0.00     0.043 A 
HETATM   28  C   UNL     1       5.228  32.607  62.411  1.00  0.00     0.068 A 
HETATM   29 CL   UNL     1       3.509  32.726  62.287  1.00  0.00    -0.081 Cl
HETATM   30  C   UNL     1       5.881  32.734  63.645  1.00  0.00     0.091 A 
HETATM   31  C   UNL     1       7.272  32.607  63.696  1.00  0.00     0.039 A 
HETATM   32  C   UNL     1       8.005  32.389  62.525  1.00  0.00     0.020 A 
BRANCH  30  33
HETATM   33  O   UNL     1       5.109  32.919  64.760  1.00  0.00    -0.345 OA
BRANCH  33  34
HETATM   34  C   UNL     1       5.005  34.250  65.285  1.00  0.00     0.121 C 
HETATM   35  C   UNL     1       3.542  34.670  65.422  1.00  0.00     0.040 C 
HETATM   36  C   UNL     1       5.670  34.229  66.658  1.00  0.00     0.040 C 
ENDBRANCH  33  34
ENDBRANCH  30  33
ENDBRANCH  23  26
ENDBRANCH   1  22
BRANCH   1  37
HETATM   37  C   UNL     1       9.453  30.073  57.716  1.00  0.00     0.254 C 
BRANCH  37  38
HETATM   38  N   UNL     1      10.604  31.007  57.607  1.00  0.00    -0.077 N 
HETATM   39  H   UNL     1      11.509  30.524  57.586  1.00  0.00     0.274 HD
HETATM   40  H   UNL     1      10.555  31.524  56.702  1.00  0.00     0.274 HD
HETATM   41  H   UNL     1      10.623  31.714  58.349  1.00  0.00     0.274 HD
ENDBRANCH  37  38
ENDBRANCH   1  37
TORSDOF 11
ENDMDL
MODEL 7
REMARK VINA RESULT:      -8.9      3.988     11.178
REMARK  11 active torsions:
REMARK  status: ('A' for Active; 'I' for Inactive)
REMARK    1  A    between atoms: C_2  and  O_3 
REMARK    2  A    between atoms: C_2  and  C_4 
REMARK    3  A    between atoms: C_8  and  C_9 
REMARK    4  A    between atoms: C_12  and  C_13 
REMARK    5  A    between atoms: C_13  and  C_14 
REMARK    6  A    between atoms: C_14  and  N_15 
REMARK    7  A    between atoms: C_14  and  C_29 
REMARK       I    between atoms: N_15  and  C_16 
REMARK    8  A    between atoms: C_16  and  C_17 
REMARK    9  A    between atoms: C_21  and  O_22 
REMARK   10  A    between atoms: O_22  and  C_23 
REMARK   11  A    between atoms: C_29  and  N_30 
ROOT
HETATM    1  C   UNL     1       8.381  30.122  58.328  1.00  0.00     0.114 C 
ENDROOT
BRANCH   1   2
HETATM    2  C   UNL     1       7.622  28.814  57.980  1.00  0.00     0.065 C 
BRANCH   2   3
HETATM    3  C   UNL     1       7.167  28.730  56.541  1.00  0.00    -0.056 A 
HETATM    4  C   UNL     1       5.873  29.115  56.165  1.00  0.00     0.008 A 
HETATM    5  C   UNL     1       5.433  28.960  54.845  1.00  0.00     0.014 A 
HETATM    6  C   UNL     1       6.266  28.392  53.874  1.00  0.00    -0.006 A 
HETATM    7  C   UNL     1       7.557  28.002  54.255  1.00  0.00     0.014 A 
HETATM    8  C   UNL     1       8.003  28.166  55.570  1.00  0.00     0.008 A 
BRANCH   6   9
HETATM    9  C   UNL     1       5.821  28.166  52.505  1.00  0.00     0.085 A 
HETATM   10  C   UNL     1       5.424  26.966  51.955  1.00  0.00     0.130 A 
HETATM   11  N   UNL     1       5.133  27.236  50.641  1.00  0.00    -0.315 N 
HETATM   12  C   UNL     1       5.360  28.592  50.446  1.00  0.00     0.143 A 
HETATM   13  C   UNL     1       4.697  26.371  49.644  1.00  0.00     0.098 A 
HETATM   14  C   UNL     1       5.135  29.136  49.129  1.00  0.00     0.017 A 
HETATM   15  N   UNL     1       5.768  29.168  51.560  1.00  0.00    -0.228 NA
HETATM   16  C   UNL     1       4.701  28.277  48.171  1.00  0.00     0.015 A 
HETATM   17  C   UNL     1       4.476  26.860  48.414  1.00  0.00     0.018 A 
BRANCH  14  18
HETATM   18  C   UNL     1       5.355  30.611  48.834  1.00  0.00     0.150 C 
HETATM   19  C   UNL     1       4.122  31.443  49.173  1.00  0.00     0.044 C 
BRANCH  18  20
HETATM   20  O   UNL     1       6.464  31.124  49.577  1.00  0.00    -0.391 OA
HETATM   21  H   UNL     1       7.271  30.829  49.121  1.00  0.00     0.210 HD
ENDBRANCH  18  20
ENDBRANCH  14  18
ENDBRANCH   6   9
ENDBRANCH   2   3
ENDBRANCH   1   2
BRANCH   1  22
HETATM   22  N   UNL     1       7.988  30.569  59.682  1.00  0.00    -0.350 N 
HETATM   23  C   UNL     1       8.178  31.852  60.151  1.00  0.00     0.252 C 
HETATM   24  O   UNL     1       8.868  32.667  59.545  1.00  0.00    -0.268 OA
HETATM   25  H   UNL     1       7.212  30.070  60.110  1.00  0.00     0.163 HD
BRANCH  23  26
HETATM   26  C   UNL     1       7.494  32.208  61.420  1.00  0.00     0.033 A 
HETATM   27  C   UNL     1       6.118  32.451  61.390  1.00  0.00     0.043 A 
HETATM   28  C   UNL     1       5.449  32.787  62.570  1.00  0.00     0.068 A 
HETATM   29 CL   UNL     1       3.746  33.060  62.484  1.00  0.00    -0.081 Cl
HETATM   30  C   UNL     1       6.148  32.914  63.779  1.00  0.00     0.091 A 
HETATM   31  C   UNL     1       7.522  32.660  63.802  1.00  0.00     0.039 A 
HETATM   32  C   UNL     1       8.197  32.317  62.626  1.00  0.00     0.020 A 
BRANCH  30  33
HETATM   33  O   UNL     1       5.430  33.224  64.902  1.00  0.00    -0.345 OA
BRANCH  33  34
HETATM   34  C   UNL     1       5.671  34.499  65.515  1.00  0.00     0.121 C 
HETATM   35  C   UNL     1       4.601  35.512  65.110  1.00  0.00     0.040 C 
HETATM   36  C   UNL     1       5.626  34.271  67.024  1.00  0.00     0.040 C 
ENDBRANCH  33  34
ENDBRANCH  30  33
ENDBRANCH  23  26
ENDBRANCH   1  22
BRANCH   1  37
HETATM   37  C   UNL     1       9.911  29.889  58.165  1.00  0.00     0.254 C 
BRANCH  37  38
HETATM   38  N   UNL     1      10.591  31.069  57.570  1.00  0.00    -0.077 N 
HETATM   39  H   UNL     1      10.981  30.878  56.641  1.00  0.00     0.274 HD
HETATM   40  H   UNL     1       9.899  31.836  57.418  1.00  0.00     0.274 HD
HETATM   41  H   UNL     1      11.330  31.454  58.168  1.00  0.00     0.274 HD
ENDBRANCH  37  38
ENDBRANCH   1  37
TORSDOF 11
ENDMDL
MODEL 8
REMARK VINA RESULT:      -8.6      3.177      8.410
REMARK  11 active torsions:
REMARK  status: ('A' for Active; 'I' for Inactive)
REMARK    1  A    between atoms: C_2  and  O_3 
REMARK    2  A    between atoms: C_2  and  C_4 
REMARK    3  A    between atoms: C_8  and  C_9 
REMARK    4  A    between atoms: C_12  and  C_13 
REMARK    5  A    between atoms: C_13  and  C_14 
REMARK    6  A    between atoms: C_14  and  N_15 
REMARK    7  A    between atoms: C_14  and  C_29 
REMARK       I    between atoms: N_15  and  C_16 
REMARK    8  A    between atoms: C_16  and  C_17 
REMARK    9  A    between atoms: C_21  and  O_22 
REMARK   10  A    between atoms: O_22  and  C_23 
REMARK   11  A    between atoms: C_29  and  N_30 
ROOT
HETATM    1  C   UNL     1       5.575  28.569  57.301  1.00  0.00     0.114 C 
ENDROOT
BRANCH   1   2
HETATM    2  C   UNL     1       4.146  28.675  56.705  1.00  0.00     0.065 C 
BRANCH   2   3
HETATM    3  C   UNL     1       4.117  28.986  55.227  1.00  0.00    -0.056 A 
HETATM    4  C   UNL     1       3.748  30.255  54.759  1.00  0.00     0.008 A 
HETATM    5  C   UNL     1       3.647  30.513  53.387  1.00  0.00     0.014 A 
HETATM    6  C   UNL     1       3.886  29.502  52.448  1.00  0.00    -0.006 A 
HETATM    7  C   UNL     1       4.249  28.233  52.919  1.00  0.00     0.014 A 
HETATM    8  C   UNL     1       4.362  27.975  54.289  1.00  0.00     0.008 A 
BRANCH   6   9
HETATM    9  C   UNL     1       3.737  29.722  51.016  1.00  0.00     0.085 A 
HETATM   10  C   UNL     1       4.150  30.829  50.303  1.00  0.00     0.130 A 
HETATM   11  N   UNL     1       3.763  30.603  49.006  1.00  0.00    -0.315 N 
HETATM   12  C   UNL     1       3.134  29.365  48.980  1.00  0.00     0.143 A 
HETATM   13  C   UNL     1       3.930  31.411  47.888  1.00  0.00     0.098 A 
HETATM   14  C   UNL     1       2.619  28.891  47.718  1.00  0.00     0.017 A 
HETATM   15  N   UNL     1       3.116  28.818  50.180  1.00  0.00    -0.228 NA
HETATM   16  C   UNL     1       2.800  29.692  46.636  1.00  0.00     0.015 A 
HETATM   17  C   UNL     1       3.463  30.985  46.705  1.00  0.00     0.018 A 
BRANCH  14  18
HETATM   18  C   UNL     1       1.923  27.544  47.604  1.00  0.00     0.150 C 
HETATM   19  C   UNL     1       2.910  26.426  47.282  1.00  0.00     0.044 C 
BRANCH  18  20
HETATM   20  O   UNL     1       1.244  27.212  48.817  1.00  0.00    -0.391 OA
HETATM   21  H   UNL     1       0.567  27.894  48.959  1.00  0.00     0.210 HD
ENDBRANCH  18  20
ENDBRANCH  14  18
ENDBRANCH   6   9
ENDBRANCH   2   3
ENDBRANCH   1   2
BRANCH   1  22
HETATM   22  N   UNL     1       6.311  27.484  56.614  1.00  0.00    -0.350 N 
HETATM   23  C   UNL     1       7.357  26.789  57.183  1.00  0.00     0.252 C 
HETATM   24  O   UNL     1       7.883  27.152  58.231  1.00  0.00    -0.268 OA
HETATM   25  H   UNL     1       5.792  26.970  55.907  1.00  0.00     0.163 HD
BRANCH  23  26
HETATM   26  C   UNL     1       7.809  25.565  56.474  1.00  0.00     0.033 A 
HETATM   27  C   UNL     1       7.566  25.459  55.102  1.00  0.00     0.043 A 
HETATM   28  C   UNL     1       7.982  24.319  54.410  1.00  0.00     0.068 A 
HETATM   29 CL   UNL     1       7.673  24.246  52.712  1.00  0.00    -0.081 Cl
HETATM   30  C   UNL     1       8.615  23.264  55.083  1.00  0.00     0.091 A 
HETATM   31  C   UNL     1       8.865  23.381  56.453  1.00  0.00     0.039 A 
HETATM   32  C   UNL     1       8.455  24.523  57.151  1.00  0.00     0.020 A 
BRANCH  30  33
HETATM   33  O   UNL     1       9.017  22.186  54.343  1.00  0.00    -0.345 OA
BRANCH  33  34
HETATM   34  C   UNL     1       8.131  21.059  54.272  1.00  0.00     0.121 C 
HETATM   35  C   UNL     1       8.099  20.478  52.859  1.00  0.00     0.040 C 
HETATM   36  C   UNL     1       8.670  20.019  55.250  1.00  0.00     0.040 C 
ENDBRANCH  33  34
ENDBRANCH  30  33
ENDBRANCH  23  26
ENDBRANCH   1  22
BRANCH   1  37
HETATM   37  C   UNL     1       6.276  29.955  57.212  1.00  0.00     0.254 C 
BRANCH  37  38
HETATM   38  N   UNL     1       7.027  30.277  58.454  1.00  0.00    -0.077 N 
HETATM   39  H   UNL     1       7.352  31.249  58.482  1.00  0.00     0.274 HD
HETATM   40  H   UNL     1       6.399  30.179  59.281  1.00  0.00     0.274 HD
HETATM   41  H   UNL     1       7.826  29.655  58.615  1.00  0.00     0.274 HD
ENDBRANCH  37  38
ENDBRANCH   1  37
TORSDOF 11
ENDMDL
MODEL 9
REMARK VINA RESULT:      -8.6      3.191     10.812
REMARK  11 active torsions:
REMARK  status: ('A' for Active; 'I' for Inactive)
REMARK    1  A    between atoms: C_2  and  O_3 
REMARK    2  A    between atoms: C_2  and  C_4 
REMARK    3  A    between atoms: C_8  and  C_9 
REMARK    4  A    between atoms: C_12  and  C_13 
REMARK    5  A    between atoms: C_13  and  C_14 
REMARK    6  A    between atoms: C_14  and  N_15 
REMARK    7  A    between atoms: C_14  and  C_29 
REMARK       I    between atoms: N_15  and  C_16 
REMARK    8  A    between atoms: C_16  and  C_17 
REMARK    9  A    between atoms: C_21  and  O_22 
REMARK   10  A    between atoms: O_22  and  C_23 
REMARK   11  A    between atoms: C_29  and  N_30 
ROOT
HETATM    1  C   UNL     1       4.909  30.672  57.161  1.00  0.00     0.114 C 
ENDROOT
BRANCH   1   2
HETATM    2  C   UNL     1       6.312  30.486  56.524  1.00  0.00     0.065 C 
BRANCH   2   3
HETATM    3  C   UNL     1       6.748  29.043  56.406  1.00  0.00    -0.056 A 
HETATM    4  C   UNL     1       6.440  28.283  55.269  1.00  0.00     0.008 A 
HETATM    5  C   UNL     1       6.777  26.926  55.200  1.00  0.00     0.014 A 
HETATM    6  C   UNL     1       7.408  26.289  56.276  1.00  0.00    -0.006 A 
HETATM    7  C   UNL     1       7.708  27.050  57.413  1.00  0.00     0.014 A 
HETATM    8  C   UNL     1       7.382  28.409  57.481  1.00  0.00     0.008 A 
BRANCH   6   9
HETATM    9  C   UNL     1       7.723  24.867  56.259  1.00  0.00     0.085 A 
HETATM   10  C   UNL     1       7.889  24.045  57.354  1.00  0.00     0.130 A 
HETATM   11  N   UNL     1       8.210  22.810  56.849  1.00  0.00    -0.315 N 
HETATM   12  C   UNL     1       8.222  22.928  55.465  1.00  0.00     0.143 A 
HETATM   13  C   UNL     1       8.486  21.630  57.528  1.00  0.00     0.098 A 
HETATM   14  C   UNL     1       8.545  21.758  54.686  1.00  0.00     0.017 A 
HETATM   15  N   UNL     1       7.924  24.159  55.093  1.00  0.00    -0.228 NA
HETATM   16  C   UNL     1       8.803  20.612  55.369  1.00  0.00     0.015 A 
HETATM   17  C   UNL     1       8.783  20.529  56.821  1.00  0.00     0.018 A 
BRANCH  14  18
HETATM   18  C   UNL     1       8.574  21.802  53.166  1.00  0.00     0.150 C 
HETATM   19  C   UNL     1       8.284  20.434  52.557  1.00  0.00     0.044 C 
BRANCH  18  20
HETATM   20  O   UNL     1       7.614  22.734  52.662  1.00  0.00    -0.391 OA
HETATM   21  H   UNL     1       7.435  23.371  53.374  1.00  0.00     0.210 HD
ENDBRANCH  18  20
ENDBRANCH  14  18
ENDBRANCH   6   9
ENDBRANCH   2   3
ENDBRANCH   1   2
BRANCH   1  22
HETATM   22  N   UNL     1       5.062  30.941  58.608  1.00  0.00    -0.350 N 
HETATM   23  C   UNL     1       5.542  32.128  59.119  1.00  0.00     0.252 C 
HETATM   24  O   UNL     1       6.063  32.979  58.404  1.00  0.00    -0.268 OA
HETATM   25  H   UNL     1       4.433  30.434  59.225  1.00  0.00     0.163 HD
BRANCH  23  26
HETATM   26  C   UNL     1       5.384  32.338  60.581  1.00  0.00     0.033 A 
HETATM   27  C   UNL     1       6.528  32.339  61.383  1.00  0.00     0.043 A 
HETATM   28  C   UNL     1       6.408  32.535  62.761  1.00  0.00     0.068 A 
HETATM   29 CL   UNL     1       7.855  32.546  63.704  1.00  0.00    -0.081 Cl
HETATM   30  C   UNL     1       5.149  32.703  63.354  1.00  0.00     0.091 A 
HETATM   31  C   UNL     1       4.010  32.711  62.544  1.00  0.00     0.039 A 
HETATM   32  C   UNL     1       4.123  32.520  61.163  1.00  0.00     0.020 A 
BRANCH  30  33
HETATM   33  O   UNL     1       5.103  32.913  64.705  1.00  0.00    -0.345 OA
BRANCH  33  34
HETATM   34  C   UNL     1       4.445  34.099  65.173  1.00  0.00     0.121 C 
HETATM   35  C   UNL     1       4.366  34.115  66.699  1.00  0.00     0.040 C 
HETATM   36  C   UNL     1       5.277  35.280  64.682  1.00  0.00     0.040 C 
ENDBRANCH  33  34
ENDBRANCH  30  33
ENDBRANCH  23  26
ENDBRANCH   1  22
BRANCH   1  37
HETATM   37  C   UNL     1       4.138  31.786  56.395  1.00  0.00     0.254 C 
BRANCH  37  38
HETATM   38  N   UNL     1       3.187  31.219  55.404  1.00  0.00    -0.077 N 
HETATM   39  H   UNL     1       3.606  30.483  54.824  1.00  0.00     0.274 HD
HETATM   40  H   UNL     1       2.396  30.753  55.900  1.00  0.00     0.274 HD
HETATM   41  H   UNL     1       2.772  31.928  54.790  1.00  0.00     0.274 HD
ENDBRANCH  37  38
ENDBRANCH   1  37
TORSDOF 11
ENDMDL
MODEL 10
REMARK VINA RESULT:      -8.5      2.566      3.584
REMARK  11 active torsions:
REMARK  status: ('A' for Active; 'I' for Inactive)
REMARK    1  A    between atoms: C_2  and  O_3 
REMARK    2  A    between atoms: C_2  and  C_4 
REMARK    3  A    between atoms: C_8  and  C_9 
REMARK    4  A    between atoms: C_12  and  C_13 
REMARK    5  A    between atoms: C_13  and  C_14 
REMARK    6  A    between atoms: C_14  and  N_15 
REMARK    7  A    between atoms: C_14  and  C_29 
REMARK       I    between atoms: N_15  and  C_16 
REMARK    8  A    between atoms: C_16  and  C_17 
REMARK    9  A    between atoms: C_21  and  O_22 
REMARK   10  A    between atoms: O_22  and  C_23 
REMARK   11  A    between atoms: C_29  and  N_30 
ROOT
HETATM    1  C   UNL     1       4.653  30.935  55.026  1.00  0.00     0.114 C 
ENDROOT
BRANCH   1   2
HETATM    2  C   UNL     1       3.557  30.851  56.122  1.00  0.00     0.065 C 
BRANCH   2   3
HETATM    3  C   UNL     1       3.980  31.412  57.460  1.00  0.00    -0.056 A 
HETATM    4  C   UNL     1       5.110  32.233  57.579  1.00  0.00     0.008 A 
HETATM    5  C   UNL     1       5.541  32.684  58.831  1.00  0.00     0.014 A 
HETATM    6  C   UNL     1       4.870  32.305  60.000  1.00  0.00    -0.006 A 
HETATM    7  C   UNL     1       3.744  31.479  59.878  1.00  0.00     0.014 A 
HETATM    8  C   UNL     1       3.304  31.036  58.627  1.00  0.00     0.008 A 
BRANCH   6   9
HETATM    9  C   UNL     1       5.324  32.712  61.323  1.00  0.00     0.085 A 
HETATM   10  C   UNL     1       6.598  32.578  61.835  1.00  0.00     0.130 A 
HETATM   11  N   UNL     1       6.537  33.063  63.118  1.00  0.00    -0.315 N 
HETATM   12  C   UNL     1       5.229  33.477  63.334  1.00  0.00     0.143 A 
HETATM   13  C   UNL     1       7.544  33.148  64.071  1.00  0.00     0.098 A 
HETATM   14  C   UNL     1       4.894  34.024  64.625  1.00  0.00     0.017 A 
HETATM   15  N   UNL     1       4.487  33.279  62.260  1.00  0.00    -0.228 NA
HETATM   16  C   UNL     1       5.894  34.107  65.540  1.00  0.00     0.015 A 
HETATM   17  C   UNL     1       7.253  33.660  65.276  1.00  0.00     0.018 A 
BRANCH  14  18
HETATM   18  C   UNL     1       3.486  34.506  64.940  1.00  0.00     0.150 C 
HETATM   19  C   UNL     1       3.425  35.229  66.281  1.00  0.00     0.044 C 
BRANCH  18  20
HETATM   20  O   UNL     1       3.009  35.394  63.925  1.00  0.00    -0.391 OA
HETATM   21  H   UNL     1       2.446  34.869  63.331  1.00  0.00     0.210 HD
ENDBRANCH  18  20
ENDBRANCH  14  18
ENDBRANCH   6   9
ENDBRANCH   2   3
ENDBRANCH   1   2
BRANCH   1  22
HETATM   22  N   UNL     1       5.112  29.569  54.691  1.00  0.00    -0.350 N 
HETATM   23  C   UNL     1       6.115  28.910  55.368  1.00  0.00     0.252 C 
HETATM   24  O   UNL     1       6.837  29.486  56.178  1.00  0.00    -0.268 OA
HETATM   25  H   UNL     1       4.424  28.961  54.251  1.00  0.00     0.163 HD
BRANCH  23  26
HETATM   26  C   UNL     1       6.274  27.461  55.085  1.00  0.00     0.033 A 
HETATM   27  C   UNL     1       6.933  27.078  53.914  1.00  0.00     0.043 A 
HETATM   28  C   UNL     1       7.097  25.721  53.624  1.00  0.00     0.068 A 
HETATM   29 CL   UNL     1       7.935  25.301  52.173  1.00  0.00    -0.081 Cl
HETATM   30  C   UNL     1       6.581  24.738  54.480  1.00  0.00     0.091 A 
HETATM   31  C   UNL     1       5.932  25.128  55.654  1.00  0.00     0.039 A 
HETATM   32  C   UNL     1       5.769  26.485  55.954  1.00  0.00     0.020 A 
BRANCH  30  33
HETATM   33  O   UNL     1       6.795  23.427  54.148  1.00  0.00    -0.345 OA
BRANCH  33  34
HETATM   34  C   UNL     1       8.040  22.835  54.545  1.00  0.00     0.121 C 
HETATM   35  C   UNL     1       7.889  22.076  55.863  1.00  0.00     0.040 C 
HETATM   36  C   UNL     1       8.437  21.870  53.432  1.00  0.00     0.040 C 
ENDBRANCH  33  34
ENDBRANCH  30  33
ENDBRANCH  23  26
ENDBRANCH   1  22
BRANCH   1  37
HETATM   37  C   UNL     1       4.103  31.728  53.806  1.00  0.00     0.254 C 
BRANCH  37  38
HETATM   38  N   UNL     1       2.835  31.146  53.293  1.00  0.00    -0.077 N 
HETATM   39  H   UNL     1       2.884  30.898  52.299  1.00  0.00     0.274 HD
HETATM   40  H   UNL     1       2.635  30.248  53.784  1.00  0.00     0.274 HD
HETATM   41  H   UNL     1       2.022  31.752  53.444  1.00  0.00     0.274 HD
ENDBRANCH  37  38
ENDBRANCH   1  37
TORSDOF 11
ENDMDL
