MODEL 1
REMARK VINA RESULT:      -8.9      0.000      0.000
REMARK  3 active torsions:
REMARK  status: ('A' for Active; 'I' for Inactive)
REMARK    1  A    between atoms: C_6  and  N_7 
REMARK       I    between atoms: N_7  and  C_8 
REMARK    2  A    between atoms: C_8  and  C_9 
REMARK    3  A    between atoms: C_9  and  C_10 
ROOT
HETATM    1  C   UNL     1       5.208  26.290  51.566  1.00  0.00     0.286 C 
HETATM    2  N   UNL     1       5.421  26.298  50.055  1.00  0.00    -0.056 N 
HETATM    3  H   UNL     1       6.221  26.941  49.865  1.00  0.00     0.278 HD
HETATM    4  H   UNL     1       5.743  25.376  49.737  1.00  0.00     0.278 HD
HETATM    5  C   UNL     1       4.204  26.741  49.283  1.00  0.00     0.209 C 
HETATM    6  C   UNL     1       3.764  28.141  49.783  1.00  0.00     0.115 C 
HETATM    7  N   UNL     1       3.624  28.183  51.238  1.00  0.00    -0.353 N 
HETATM    8  C   UNL     1       4.464  27.530  52.104  1.00  0.00     0.249 C 
HETATM    9  O   UNL     1       4.539  27.878  53.277  1.00  0.00    -0.271 OA
HETATM   10  C   UNL     1       4.520  26.727  47.788  1.00  0.00     0.035 C 
HETATM   11  C   UNL     1       5.461  27.850  47.357  1.00  0.00     0.002 C 
HETATM   12  C   UNL     1       4.955  29.212  47.815  1.00  0.00     0.002 C 
HETATM   13  C   UNL     1       4.717  29.253  49.321  1.00  0.00     0.027 C 
HETATM   14  H   UNL     1       3.159  28.991  51.651  1.00  0.00     0.163 HD
ENDROOT
BRANCH   1  15
HETATM   15  C   UNL     1       6.538  26.119  52.310  1.00  0.00     0.146 C 
BRANCH  15  16
HETATM   16  C   UNL     1       6.493  24.819  53.080  1.00  0.00     0.224 C 
HETATM   17  N   UNL     1       7.633  24.059  53.008  1.00  0.00    -0.327 N 
HETATM   18  H   UNL     1       8.361  24.348  52.361  1.00  0.00     0.169 HD
HETATM   19  O   UNL     1       5.439  24.535  53.652  1.00  0.00    -0.273 OA
BRANCH  17  20
HETATM   20  C   UNL     1       7.861  22.817  53.645  1.00  0.00     0.036 A 
HETATM   21  C   UNL     1       7.989  22.664  55.028  1.00  0.00     0.053 A 
HETATM   22  C   UNL     1       8.213  21.398  55.575  1.00  0.00     0.036 A 
HETATM   23  C   UNL     1       8.315  20.277  54.756  1.00  0.00     0.024 A 
HETATM   24 CL   UNL     1       8.370  21.226  57.281  1.00  0.00    -0.084 Cl
HETATM   25  C   UNL     1       8.196  20.422  53.377  1.00  0.00     0.004 A 
HETATM   26  C   UNL     1       7.976  21.687  52.824  1.00  0.00     0.029 A 
ENDBRANCH  17  20
ENDBRANCH  15  16
ENDBRANCH   1  15
TORSDOF 3
ENDMDL
MODEL 2
REMARK VINA RESULT:      -8.8      3.473      4.367
REMARK  3 active torsions:
REMARK  status: ('A' for Active; 'I' for Inactive)
REMARK    1  A    between atoms: C_6  and  N_7 
REMARK       I    between atoms: N_7  and  C_8 
REMARK    2  A    between atoms: C_8  and  C_9 
REMARK    3  A    between atoms: C_9  and  C_10 
ROOT
HETATM    1  C   UNL     1       6.606  27.623  56.109  1.00  0.00     0.286 C 
HETATM    2  N   UNL     1       5.716  26.774  55.204  1.00  0.00    -0.056 N 
HETATM    3  H   UNL     1       6.185  25.848  55.098  1.00  0.00     0.278 HD
HETATM    4  H   UNL     1       4.827  26.567  55.675  1.00  0.00     0.278 HD
HETATM    5  C   UNL     1       5.479  27.394  53.850  1.00  0.00     0.209 C 
HETATM    6  C   UNL     1       6.844  27.675  53.171  1.00  0.00     0.115 C 
HETATM    7  N   UNL     1       7.746  28.423  54.045  1.00  0.00    -0.353 N 
HETATM    8  C   UNL     1       7.838  28.220  55.398  1.00  0.00     0.249 C 
HETATM    9  O   UNL     1       8.832  28.588  56.015  1.00  0.00    -0.271 OA
HETATM   10  C   UNL     1       4.591  26.470  53.019  1.00  0.00     0.035 C 
HETATM   11  C   UNL     1       5.306  25.205  52.548  1.00  0.00     0.002 C 
HETATM   12  C   UNL     1       6.610  25.533  51.830  1.00  0.00     0.002 C 
HETATM   13  C   UNL     1       7.533  26.389  52.691  1.00  0.00     0.027 C 
HETATM   14  H   UNL     1       8.588  28.822  53.633  1.00  0.00     0.163 HD
ENDROOT
BRANCH   1  15
HETATM   15  C   UNL     1       7.052  26.830  57.343  1.00  0.00     0.146 C 
BRANCH  15  16
HETATM   16  C   UNL     1       6.859  25.357  57.062  1.00  0.00     0.224 C 
HETATM   17  N   UNL     1       7.938  24.723  56.501  1.00  0.00    -0.327 N 
HETATM   18  H   UNL     1       8.724  25.293  56.201  1.00  0.00     0.169 HD
HETATM   19  O   UNL     1       5.752  24.874  57.310  1.00  0.00    -0.273 OA
BRANCH  17  20
HETATM   20  C   UNL     1       8.028  23.355  56.157  1.00  0.00     0.036 A 
HETATM   21  C   UNL     1       7.854  22.865  54.861  1.00  0.00     0.053 A 
HETATM   22  C   UNL     1       7.960  21.494  54.609  1.00  0.00     0.036 A 
HETATM   23  C   UNL     1       8.238  20.601  55.639  1.00  0.00     0.024 A 
HETATM   24 CL   UNL     1       7.740  20.906  53.006  1.00  0.00    -0.084 Cl
HETATM   25  C   UNL     1       8.407  21.080  56.935  1.00  0.00     0.004 A 
HETATM   26  C   UNL     1       8.297  22.449  57.194  1.00  0.00     0.029 A 
ENDBRANCH  17  20
ENDBRANCH  15  16
ENDBRANCH   1  15
TORSDOF 3
ENDMDL
MODEL 3
REMARK VINA RESULT:      -8.8      2.841      5.000
REMARK  3 active torsions:
REMARK  status: ('A' for Active; 'I' for Inactive)
REMARK    1  A    between atoms: C_6  and  N_7 
REMARK       I    between atoms: N_7  and  C_8 
REMARK    2  A    between atoms: C_8  and  C_9 
REMARK    3  A    between atoms: C_9  and  C_10 
ROOT
HETATM    1  C   UNL     1       6.260  27.434  53.381  1.00  0.00     0.286 C 
HETATM    2  N   UNL     1       7.353  27.167  54.412  1.00  0.00    -0.056 N 
HETATM    3  H   UNL     1       7.415  26.132  54.528  1.00  0.00     0.278 HD
HETATM    4  H   UNL     1       8.269  27.445  54.038  1.00  0.00     0.278 HD
HETATM    5  C   UNL     1       7.090  27.825  55.743  1.00  0.00     0.209 C 
HETATM    6  C   UNL     1       5.709  27.365  56.276  1.00  0.00     0.115 C 
HETATM    7  N   UNL     1       4.653  27.539  55.279  1.00  0.00    -0.353 N 
HETATM    8  C   UNL     1       4.826  27.314  53.938  1.00  0.00     0.249 C 
HETATM    9  O   UNL     1       3.859  27.116  53.211  1.00  0.00    -0.271 OA
HETATM   10  C   UNL     1       8.229  27.492  56.706  1.00  0.00     0.035 C 
HETATM   11  C   UNL     1       8.214  26.041  57.183  1.00  0.00     0.002 C 
HETATM   12  C   UNL     1       6.856  25.654  57.757  1.00  0.00     0.002 C 
HETATM   13  C   UNL     1       5.726  25.910  56.765  1.00  0.00     0.027 C 
HETATM   14  H   UNL     1       3.685  27.450  55.587  1.00  0.00     0.163 HD
ENDROOT
BRANCH   1  15
HETATM   15  C   UNL     1       6.421  26.520  52.159  1.00  0.00     0.146 C 
BRANCH  15  16
HETATM   16  C   UNL     1       7.307  25.357  52.543  1.00  0.00     0.224 C 
HETATM   17  N   UNL     1       6.693  24.372  53.274  1.00  0.00    -0.327 N 
HETATM   18  H   UNL     1       5.748  24.543  53.609  1.00  0.00     0.169 HD
HETATM   19  O   UNL     1       8.494  25.418  52.217  1.00  0.00    -0.273 OA
BRANCH  17  20
HETATM   20  C   UNL     1       7.284  23.176  53.743  1.00  0.00     0.036 A 
HETATM   21  C   UNL     1       7.502  22.893  55.094  1.00  0.00     0.053 A 
HETATM   22  C   UNL     1       8.093  21.685  55.470  1.00  0.00     0.036 A 
HETATM   23  C   UNL     1       8.474  20.750  54.512  1.00  0.00     0.024 A 
HETATM   24 CL   UNL     1       8.357  21.353  57.139  1.00  0.00    -0.084 Cl
HETATM   25  C   UNL     1       8.268  21.027  53.164  1.00  0.00     0.004 A 
HETATM   26  C   UNL     1       7.680  22.237  52.781  1.00  0.00     0.029 A 
ENDBRANCH  17  20
ENDBRANCH  15  16
ENDBRANCH   1  15
TORSDOF 3
ENDMDL
MODEL 4
REMARK VINA RESULT:      -8.4      5.897      8.321
REMARK  3 active torsions:
REMARK  status: ('A' for Active; 'I' for Inactive)
REMARK    1  A    between atoms: C_6  and  N_7 
REMARK       I    between atoms: N_7  and  C_8 
REMARK    2  A    between atoms: C_8  and  C_9 
REMARK    3  A    between atoms: C_9  and  C_10 
ROOT
HETATM    1  C   UNL     1       6.995  26.547  55.650  1.00  0.00     0.286 C 
HETATM    2  N   UNL     1       7.720  25.218  55.848  1.00  0.00    -0.056 N 
HETATM    3  H   UNL     1       8.583  25.253  55.263  1.00  0.00     0.278 HD
HETATM    4  H   UNL     1       8.060  25.141  56.815  1.00  0.00     0.278 HD
HETATM    5  C   UNL     1       6.883  24.021  55.472  1.00  0.00     0.209 C 
HETATM    6  C   UNL     1       6.406  24.173  54.004  1.00  0.00     0.115 C 
HETATM    7  N   UNL     1       5.774  25.470  53.766  1.00  0.00    -0.353 N 
HETATM    8  C   UNL     1       6.209  26.644  54.325  1.00  0.00     0.249 C 
HETATM    9  O   UNL     1       5.899  27.721  53.828  1.00  0.00    -0.271 OA
HETATM   10  C   UNL     1       7.696  22.747  55.694  1.00  0.00     0.035 C 
HETATM   11  C   UNL     1       8.812  22.553  54.669  1.00  0.00     0.002 C 
HETATM   12  C   UNL     1       8.285  22.646  53.242  1.00  0.00     0.002 C 
HETATM   13  C   UNL     1       7.543  23.956  52.995  1.00  0.00     0.027 C 
HETATM   14  H   UNL     1       5.259  25.598  52.896  1.00  0.00     0.163 HD
ENDROOT
BRANCH   1  15
HETATM   15  C   UNL     1       7.968  27.727  55.764  1.00  0.00     0.146 C 
BRANCH  15  16
HETATM   16  C   UNL     1       7.822  28.337  57.140  1.00  0.00     0.224 C 
HETATM   17  N   UNL     1       7.850  29.708  57.176  1.00  0.00    -0.327 N 
HETATM   18  H   UNL     1       8.088  30.204  56.322  1.00  0.00     0.169 HD
HETATM   19  O   UNL     1       7.744  27.564  58.096  1.00  0.00    -0.273 OA
BRANCH  17  20
HETATM   20  C   UNL     1       7.718  30.525  58.323  1.00  0.00     0.036 A 
HETATM   21  C   UNL     1       8.676  30.603  59.336  1.00  0.00     0.053 A 
HETATM   22  C   UNL     1       8.466  31.437  60.438  1.00  0.00     0.036 A 
HETATM   23  C   UNL     1       7.304  32.197  60.543  1.00  0.00     0.024 A 
HETATM   24 CL   UNL     1       9.655  31.522  61.679  1.00  0.00    -0.084 Cl
HETATM   25  C   UNL     1       6.341  32.119  59.541  1.00  0.00     0.004 A 
HETATM   26  C   UNL     1       6.545  31.282  58.439  1.00  0.00     0.029 A 
ENDBRANCH  17  20
ENDBRANCH  15  16
ENDBRANCH   1  15
TORSDOF 3
ENDMDL
MODEL 5
REMARK VINA RESULT:      -8.4      3.113      7.944
REMARK  3 active torsions:
REMARK  status: ('A' for Active; 'I' for Inactive)
REMARK    1  A    between atoms: C_6  and  N_7 
REMARK       I    between atoms: N_7  and  C_8 
REMARK    2  A    between atoms: C_8  and  C_9 
REMARK    3  A    between atoms: C_9  and  C_10 
ROOT
HETATM    1  C   UNL     1       7.294  24.854  53.933  1.00  0.00     0.286 C 
HETATM    2  N   UNL     1       7.591  23.450  53.414  1.00  0.00    -0.056 N 
HETATM    3  H   UNL     1       6.743  22.871  53.599  1.00  0.00     0.278 HD
HETATM    4  H   UNL     1       7.683  23.462  52.390  1.00  0.00     0.278 HD
HETATM    5  C   UNL     1       8.801  22.821  54.057  1.00  0.00     0.209 C 
HETATM    6  C   UNL     1       8.613  22.808  55.596  1.00  0.00     0.115 C 
HETATM    7  N   UNL     1       8.252  24.128  56.113  1.00  0.00    -0.353 N 
HETATM    8  C   UNL     1       7.413  24.997  55.465  1.00  0.00     0.249 C 
HETATM    9  O   UNL     1       6.859  25.901  56.080  1.00  0.00    -0.271 OA
HETATM   10  C   UNL     1       9.009  21.420  53.482  1.00  0.00     0.035 C 
HETATM   11  C   UNL     1       7.969  20.409  53.959  1.00  0.00     0.002 C 
HETATM   12  C   UNL     1       7.864  20.387  55.479  1.00  0.00     0.002 C 
HETATM   13  C   UNL     1       7.575  21.771  56.049  1.00  0.00     0.027 C 
HETATM   14  H   UNL     1       8.292  24.273  57.121  1.00  0.00     0.163 HD
ENDROOT
BRANCH   1  15
HETATM   15  C   UNL     1       5.910  25.329  53.473  1.00  0.00     0.146 C 
BRANCH  15  16
HETATM   16  C   UNL     1       5.981  25.658  52.000  1.00  0.00     0.224 C 
HETATM   17  N   UNL     1       4.842  26.207  51.468  1.00  0.00    -0.327 N 
HETATM   18  H   UNL     1       4.009  26.236  52.050  1.00  0.00     0.169 HD
HETATM   19  O   UNL     1       7.019  25.363  51.403  1.00  0.00    -0.273 OA
BRANCH  17  20
HETATM   20  C   UNL     1       4.649  26.620  50.130  1.00  0.00     0.036 A 
HETATM   21  C   UNL     1       3.898  25.904  49.195  1.00  0.00     0.053 A 
HETATM   22  C   UNL     1       3.758  26.385  47.890  1.00  0.00     0.036 A 
HETATM   23  C   UNL     1       4.363  27.578  47.504  1.00  0.00     0.024 A 
HETATM   24 CL   UNL     1       2.832  25.489  46.750  1.00  0.00    -0.084 Cl
HETATM   25  C   UNL     1       5.118  28.295  48.427  1.00  0.00     0.004 A 
HETATM   26  C   UNL     1       5.265  27.815  49.732  1.00  0.00     0.029 A 
ENDBRANCH  17  20
ENDBRANCH  15  16
ENDBRANCH   1  15
TORSDOF 3
ENDMDL
MODEL 6
REMARK VINA RESULT:      -8.4     11.269     12.839
REMARK  3 active torsions:
REMARK  status: ('A' for Active; 'I' for Inactive)
REMARK    1  A    between atoms: C_6  and  N_7 
REMARK       I    between atoms: N_7  and  C_8 
REMARK    2  A    between atoms: C_8  and  C_9 
REMARK    3  A    between atoms: C_9  and  C_10 
ROOT
HETATM    1  C   UNL     1       6.387  32.602  62.374  1.00  0.00     0.286 C 
HETATM    2  N   UNL     1       6.495  34.122  62.454  1.00  0.00    -0.056 N 
HETATM    3  H   UNL     1       6.751  34.357  63.438  1.00  0.00     0.278 HD
HETATM    4  H   UNL     1       7.287  34.452  61.889  1.00  0.00     0.278 HD
HETATM    5  C   UNL     1       5.222  34.831  62.066  1.00  0.00     0.209 C 
HETATM    6  C   UNL     1       4.059  34.316  62.953  1.00  0.00     0.115 C 
HETATM    7  N   UNL     1       3.979  32.856  62.955  1.00  0.00    -0.353 N 
HETATM    8  C   UNL     1       5.075  32.032  62.954  1.00  0.00     0.249 C 
HETATM    9  O   UNL     1       4.976  30.866  63.320  1.00  0.00    -0.271 OA
HETATM   10  C   UNL     1       5.426  36.341  62.188  1.00  0.00     0.035 C 
HETATM   11  C   UNL     1       5.503  36.826  63.634  1.00  0.00     0.002 C 
HETATM   12  C   UNL     1       4.308  36.349  64.450  1.00  0.00     0.002 C 
HETATM   13  C   UNL     1       4.151  34.833  64.396  1.00  0.00     0.027 C 
HETATM   14  H   UNL     1       3.143  32.424  63.346  1.00  0.00     0.163 HD
ENDROOT
BRANCH   1  15
HETATM   15  C   UNL     1       7.588  31.928  63.048  1.00  0.00     0.146 C 
BRANCH  15  16
HETATM   16  C   UNL     1       8.349  31.146  62.001  1.00  0.00     0.224 C 
HETATM   17  N   UNL     1       8.078  31.495  60.702  1.00  0.00    -0.327 N 
HETATM   18  H   UNL     1       7.316  32.144  60.529  1.00  0.00     0.169 HD
HETATM   19  O   UNL     1       9.092  30.246  62.395  1.00  0.00    -0.273 OA
BRANCH  17  20
HETATM   20  C   UNL     1       8.661  30.938  59.540  1.00  0.00     0.036 A 
HETATM   21  C   UNL     1       8.188  29.785  58.908  1.00  0.00     0.053 A 
HETATM   22  C   UNL     1       8.824  29.302  57.762  1.00  0.00     0.036 A 
HETATM   23  C   UNL     1       9.935  29.956  57.235  1.00  0.00     0.024 A 
HETATM   24 CL   UNL     1       8.230  27.879  56.996  1.00  0.00    -0.084 Cl
HETATM   25  C   UNL     1      10.417  31.101  57.863  1.00  0.00     0.004 A 
HETATM   26  C   UNL     1       9.786  31.586  59.012  1.00  0.00     0.029 A 
ENDBRANCH  17  20
ENDBRANCH  15  16
ENDBRANCH   1  15
TORSDOF 3
ENDMDL
MODEL 7
REMARK VINA RESULT:      -8.3      5.638      6.502
REMARK  3 active torsions:
REMARK  status: ('A' for Active; 'I' for Inactive)
REMARK    1  A    between atoms: C_6  and  N_7 
REMARK       I    between atoms: N_7  and  C_8 
REMARK    2  A    between atoms: C_8  and  C_9 
REMARK    3  A    between atoms: C_9  and  C_10 
ROOT
HETATM    1  C   UNL     1       7.381  27.064  56.780  1.00  0.00     0.286 C 
HETATM    2  N   UNL     1       8.700  27.807  56.972  1.00  0.00    -0.056 N 
HETATM    3  H   UNL     1       8.850  27.899  58.000  1.00  0.00     0.278 HD
HETATM    4  H   UNL     1       9.484  27.229  56.642  1.00  0.00     0.278 HD
HETATM    5  C   UNL     1       8.719  29.166  56.319  1.00  0.00     0.209 C 
HETATM    6  C   UNL     1       7.533  30.007  56.857  1.00  0.00     0.115 C 
HETATM    7  N   UNL     1       6.263  29.289  56.755  1.00  0.00    -0.353 N 
HETATM    8  C   UNL     1       6.129  27.943  56.981  1.00  0.00     0.249 C 
HETATM    9  O   UNL     1       5.031  27.464  57.243  1.00  0.00    -0.271 OA
HETATM   10  C   UNL     1      10.071  29.831  56.575  1.00  0.00     0.035 C 
HETATM   11  C   UNL     1      10.257  30.290  58.020  1.00  0.00     0.002 C 
HETATM   12  C   UNL     1       9.099  31.166  58.483  1.00  0.00     0.002 C 
HETATM   13  C   UNL     1       7.753  30.470  58.304  1.00  0.00     0.027 C 
HETATM   14  H   UNL     1       5.403  29.816  56.900  1.00  0.00     0.163 HD
ENDROOT
BRANCH   1  15
HETATM   15  C   UNL     1       7.303  25.834  57.692  1.00  0.00     0.146 C 
BRANCH  15  16
HETATM   16  C   UNL     1       7.141  24.605  56.827  1.00  0.00     0.224 C 
HETATM   17  N   UNL     1       8.171  23.701  56.898  1.00  0.00    -0.327 N 
HETATM   18  H   UNL     1       9.006  23.968  57.410  1.00  0.00     0.169 HD
HETATM   19  O   UNL     1       6.141  24.547  56.109  1.00  0.00    -0.273 OA
BRANCH  17  20
HETATM   20  C   UNL     1       8.261  22.469  56.210  1.00  0.00     0.036 A 
HETATM   21  C   UNL     1       8.159  22.343  54.823  1.00  0.00     0.053 A 
HETATM   22  C   UNL     1       8.260  21.085  54.223  1.00  0.00     0.036 A 
HETATM   23  C   UNL     1       8.459  19.943  54.995  1.00  0.00     0.024 A 
HETATM   24 CL   UNL     1       8.131  20.947  52.512  1.00  0.00    -0.084 Cl
HETATM   25  C   UNL     1       8.553  20.059  56.378  1.00  0.00     0.004 A 
HETATM   26  C   UNL     1       8.449  21.315  56.984  1.00  0.00     0.029 A 
ENDBRANCH  17  20
ENDBRANCH  15  16
ENDBRANCH   1  15
TORSDOF 3
ENDMDL
MODEL 8
REMARK VINA RESULT:      -8.1      7.393      9.248
REMARK  3 active torsions:
REMARK  status: ('A' for Active; 'I' for Inactive)
REMARK    1  A    between atoms: C_6  and  N_7 
REMARK       I    between atoms: N_7  and  C_8 
REMARK    2  A    between atoms: C_8  and  C_9 
REMARK    3  A    between atoms: C_9  and  C_10 
ROOT
HETATM    1  C   UNL     1       7.034  27.776  57.198  1.00  0.00     0.286 C 
HETATM    2  N   UNL     1       7.733  26.553  56.610  1.00  0.00    -0.056 N 
HETATM    3  H   UNL     1       7.836  26.725  55.586  1.00  0.00     0.278 HD
HETATM    4  H   UNL     1       8.695  26.489  56.965  1.00  0.00     0.278 HD
HETATM    5  C   UNL     1       6.983  25.266  56.848  1.00  0.00     0.209 C 
HETATM    6  C   UNL     1       5.545  25.402  56.283  1.00  0.00     0.115 C 
HETATM    7  N   UNL     1       4.877  26.608  56.772  1.00  0.00    -0.353 N 
HETATM    8  C   UNL     1       5.511  27.810  56.952  1.00  0.00     0.249 C 
HETATM    9  O   UNL     1       4.865  28.851  57.003  1.00  0.00    -0.271 OA
HETATM   10  C   UNL     1       7.753  24.108  56.216  1.00  0.00     0.035 C 
HETATM   11  C   UNL     1       7.696  24.104  54.690  1.00  0.00     0.002 C 
HETATM   12  C   UNL     1       6.261  24.174  54.182  1.00  0.00     0.002 C 
HETATM   13  C   UNL     1       5.515  25.377  54.748  1.00  0.00     0.027 C 
HETATM   14  H   UNL     1       3.873  26.694  56.618  1.00  0.00     0.163 HD
ENDROOT
BRANCH   1  15
HETATM   15  C   UNL     1       7.671  29.074  56.687  1.00  0.00     0.146 C 
BRANCH  15  16
HETATM   16  C   UNL     1       8.298  29.794  57.859  1.00  0.00     0.224 C 
HETATM   17  N   UNL     1       7.413  30.263  58.796  1.00  0.00    -0.327 N 
HETATM   18  H   UNL     1       6.420  30.211  58.585  1.00  0.00     0.169 HD
HETATM   19  O   UNL     1       9.522  29.940  57.845  1.00  0.00    -0.273 OA
BRANCH  17  20
HETATM   20  C   UNL     1       7.733  30.951  59.989  1.00  0.00     0.036 A 
HETATM   21  C   UNL     1       7.044  32.077  60.447  1.00  0.00     0.053 A 
HETATM   22  C   UNL     1       7.428  32.698  61.639  1.00  0.00     0.036 A 
HETATM   23  C   UNL     1       8.497  32.208  62.384  1.00  0.00     0.024 A 
HETATM   24 CL   UNL     1       6.570  34.085  62.188  1.00  0.00    -0.084 Cl
HETATM   25  C   UNL     1       9.193  31.090  61.932  1.00  0.00     0.004 A 
HETATM   26  C   UNL     1       8.816  30.469  60.737  1.00  0.00     0.029 A 
ENDBRANCH  17  20
ENDBRANCH  15  16
ENDBRANCH   1  15
TORSDOF 3
ENDMDL
MODEL 9
REMARK VINA RESULT:      -8.0      3.621      8.103
REMARK  3 active torsions:
REMARK  status: ('A' for Active; 'I' for Inactive)
REMARK    1  A    between atoms: C_6  and  N_7 
REMARK       I    between atoms: N_7  and  C_8 
REMARK    2  A    between atoms: C_8  and  C_9 
REMARK    3  A    between atoms: C_9  and  C_10 
ROOT
HETATM    1  C   UNL     1       6.494  24.596  53.387  1.00  0.00     0.286 C 
HETATM    2  N   UNL     1       6.444  25.397  54.685  1.00  0.00    -0.056 N 
HETATM    3  H   UNL     1       7.342  25.924  54.751  1.00  0.00     0.278 HD
HETATM    4  H   UNL     1       5.717  26.122  54.628  1.00  0.00     0.278 HD
HETATM    5  C   UNL     1       6.254  24.537  55.909  1.00  0.00     0.209 C 
HETATM    6  C   UNL     1       7.379  23.472  55.964  1.00  0.00     0.115 C 
HETATM    7  N   UNL     1       7.500  22.739  54.705  1.00  0.00    -0.353 N 
HETATM    8  C   UNL     1       7.351  23.316  53.470  1.00  0.00     0.249 C 
HETATM    9  O   UNL     1       7.810  22.773  52.471  1.00  0.00    -0.271 OA
HETATM   10  C   UNL     1       6.228  25.426  57.152  1.00  0.00     0.035 C 
HETATM   11  C   UNL     1       7.595  26.003  57.513  1.00  0.00     0.002 C 
HETATM   12  C   UNL     1       8.655  24.913  57.618  1.00  0.00     0.002 C 
HETATM   13  C   UNL     1       8.739  24.077  56.346  1.00  0.00     0.027 C 
HETATM   14  H   UNL     1       8.072  21.896  54.696  1.00  0.00     0.163 HD
ENDROOT
BRANCH   1  15
HETATM   15  C   UNL     1       6.974  25.468  52.220  1.00  0.00     0.146 C 
BRANCH  15  16
HETATM   16  C   UNL     1       5.772  26.143  51.600  1.00  0.00     0.224 C 
HETATM   17  N   UNL     1       5.763  26.174  50.229  1.00  0.00    -0.327 N 
HETATM   18  H   UNL     1       6.597  25.866  49.738  1.00  0.00     0.169 HD
HETATM   19  O   UNL     1       4.946  26.643  52.366  1.00  0.00    -0.273 OA
BRANCH  17  20
HETATM   20  C   UNL     1       4.755  26.725  49.404  1.00  0.00     0.036 A 
HETATM   21  C   UNL     1       4.652  28.086  49.106  1.00  0.00     0.053 A 
HETATM   22  C   UNL     1       3.623  28.547  48.280  1.00  0.00     0.036 A 
HETATM   23  C   UNL     1       2.689  27.663  47.746  1.00  0.00     0.024 A 
HETATM   24 CL   UNL     1       3.508  30.227  47.924  1.00  0.00    -0.084 Cl
HETATM   25  C   UNL     1       2.780  26.307  48.044  1.00  0.00     0.004 A 
HETATM   26  C   UNL     1       3.805  25.841  48.873  1.00  0.00     0.029 A 
ENDBRANCH  17  20
ENDBRANCH  15  16
ENDBRANCH   1  15
TORSDOF 3
ENDMDL
MODEL 10
REMARK VINA RESULT:      -7.8     12.451     13.949
REMARK  3 active torsions:
REMARK  status: ('A' for Active; 'I' for Inactive)
REMARK    1  A    between atoms: C_6  and  N_7 
REMARK       I    between atoms: N_7  and  C_8 
REMARK    2  A    between atoms: C_8  and  C_9 
REMARK    3  A    between atoms: C_9  and  C_10 
ROOT
HETATM    1  C   UNL     1       3.589  34.487  64.421  1.00  0.00     0.286 C 
HETATM    2  N   UNL     1       3.214  33.946  63.044  1.00  0.00    -0.056 N 
HETATM    3  H   UNL     1       4.106  33.787  62.527  1.00  0.00     0.278 HD
HETATM    4  H   UNL     1       2.790  33.014  63.132  1.00  0.00     0.278 HD
HETATM    5  C   UNL     1       2.318  34.875  62.263  1.00  0.00     0.209 C 
HETATM    6  C   UNL     1       3.002  36.261  62.140  1.00  0.00     0.115 C 
HETATM    7  N   UNL     1       3.441  36.770  63.439  1.00  0.00    -0.353 N 
HETATM    8  C   UNL     1       3.972  35.983  64.427  1.00  0.00     0.249 C 
HETATM    9  O   UNL     1       4.647  36.479  65.322  1.00  0.00    -0.271 OA
HETATM   10  C   UNL     1       2.009  34.253  60.902  1.00  0.00     0.035 C 
HETATM   11  C   UNL     1       3.201  34.260  59.947  1.00  0.00     0.002 C 
HETATM   12  C   UNL     1       3.800  35.654  59.809  1.00  0.00     0.002 C 
HETATM   13  C   UNL     1       4.185  36.244  61.162  1.00  0.00     0.027 C 
HETATM   14  H   UNL     1       3.726  37.747  63.497  1.00  0.00     0.163 HD
ENDROOT
BRANCH   1  15
HETATM   15  C   UNL     1       4.717  33.660  65.049  1.00  0.00     0.146 C 
BRANCH  15  16
HETATM   16  C   UNL     1       5.337  32.799  63.972  1.00  0.00     0.224 C 
HETATM   17  N   UNL     1       6.425  33.346  63.342  1.00  0.00    -0.327 N 
HETATM   18  H   UNL     1       6.658  34.314  63.543  1.00  0.00     0.169 HD
HETATM   19  O   UNL     1       4.790  31.723  63.723  1.00  0.00    -0.273 OA
BRANCH  17  20
HETATM   20  C   UNL     1       7.196  32.748  62.318  1.00  0.00     0.036 A 
HETATM   21  C   UNL     1       6.729  32.527  61.020  1.00  0.00     0.053 A 
HETATM   22  C   UNL     1       7.559  31.929  60.069  1.00  0.00     0.036 A 
HETATM   23  C   UNL     1       8.856  31.545  60.397  1.00  0.00     0.024 A 
HETATM   24 CL   UNL     1       6.967  31.661  58.474  1.00  0.00    -0.084 Cl
HETATM   25  C   UNL     1       9.327  31.755  61.689  1.00  0.00     0.004 A 
HETATM   26  C   UNL     1       8.499  32.349  62.647  1.00  0.00     0.029 A 
ENDBRANCH  17  20
ENDBRANCH  15  16
ENDBRANCH   1  15
TORSDOF 3
ENDMDL
