MODEL 1
REMARK VINA RESULT:      -9.9      0.000      0.000
REMARK  3 active torsions:
REMARK  status: ('A' for Active; 'I' for Inactive)
REMARK    1  A    between atoms: C_6  and  O_7 
REMARK    2  A    between atoms: O_7  and  C_8 
REMARK       I    between atoms: N_10  and  C_11 
REMARK       I    between atoms: C_11  and  N_12 
REMARK    3  A    between atoms: N_12  and  C_13 
ROOT
HETATM    1  C   UNL     1       6.521  24.405  53.897  1.00  0.00     0.148 C 
HETATM    2  C   UNL     1       7.429  25.590  54.251  1.00  0.00     0.160 C 
HETATM    3  N   UNL     1       6.521  26.710  54.455  1.00  0.00    -0.331 N 
HETATM    4  C   UNL     1       6.739  27.852  55.202  1.00  0.00     0.323 C 
HETATM    5  N   UNL     1       8.055  28.043  55.553  1.00  0.00    -0.309 N 
HETATM    6  O   UNL     1       5.807  28.590  55.504  1.00  0.00    -0.247 OA
HETATM    7  C   UNL     1       5.180  26.373  54.011  1.00  0.00     0.130 C 
HETATM    8  C   UNL     1       5.357  25.107  53.193  1.00  0.00     0.054 C 
HETATM    9  H   UNL     1       8.730  27.569  54.974  1.00  0.00     0.170 HD
ENDROOT
BRANCH   5  10
HETATM   10  C   UNL     1       8.570  28.975  56.478  1.00  0.00     0.037 A 
HETATM   11  C   UNL     1       7.941  29.282  57.691  1.00  0.00     0.043 A 
HETATM   12  C   UNL     1       8.542  30.196  58.581  1.00  0.00    -0.006 A 
HETATM   13  C   UNL     1       9.758  30.778  58.232  1.00  0.00     0.042 A 
HETATM   14  C   UNL     1       8.185  30.707  59.861  1.00  0.00     0.030 A 
HETATM   15  N   UNL     1      10.118  31.616  59.263  1.00  0.00    -0.365 N 
HETATM   16  C   UNL     1      10.411  30.491  57.030  1.00  0.00     0.033 A 
HETATM   17  H   UNL     1      10.960  32.175  59.282  1.00  0.00     0.165 HD
HETATM   18  C   UNL     1       9.175  31.577  60.256  1.00  0.00     0.089 A 
HETATM   19  C   UNL     1       9.796  29.576  56.165  1.00  0.00     0.032 A 
ENDBRANCH   5  10
BRANCH   1  20
HETATM   20  O   UNL     1       7.209  23.507  53.035  1.00  0.00    -0.344 OA
BRANCH  20  21
HETATM   21  C   UNL     1       7.705  22.348  53.562  1.00  0.00     0.070 A 
HETATM   22  C   UNL     1       7.745  22.319  54.959  1.00  0.00     0.060 A 
HETATM   23  C   UNL     1       8.228  21.194  55.626  1.00  0.00     0.036 A 
HETATM   24  C   UNL     1       8.674  20.086  54.909  1.00  0.00     0.024 A 
HETATM   25 CL   UNL     1       8.274  21.172  57.346  1.00  0.00    -0.084 Cl
HETATM   26  C   UNL     1       8.636  20.109  53.517  1.00  0.00     0.004 A 
HETATM   27  C   UNL     1       8.153  21.236  52.843  1.00  0.00     0.037 A 
ENDBRANCH  20  21
ENDBRANCH   1  20
TORSDOF 3
ENDMDL
MODEL 2
REMARK VINA RESULT:      -9.7      3.638      6.524
REMARK  3 active torsions:
REMARK  status: ('A' for Active; 'I' for Inactive)
REMARK    1  A    between atoms: C_6  and  O_7 
REMARK    2  A    between atoms: O_7  and  C_8 
REMARK       I    between atoms: N_10  and  C_11 
REMARK       I    between atoms: C_11  and  N_12 
REMARK    3  A    between atoms: N_12  and  C_13 
ROOT
HETATM    1  C   UNL     1       8.312  29.170  57.316  1.00  0.00     0.148 C 
HETATM    2  C   UNL     1       8.066  29.592  58.771  1.00  0.00     0.160 C 
HETATM    3  N   UNL     1       9.058  30.626  59.033  1.00  0.00    -0.331 N 
HETATM    4  C   UNL     1       9.003  31.630  59.981  1.00  0.00     0.323 C 
HETATM    5  N   UNL     1       8.029  31.441  60.934  1.00  0.00    -0.309 N 
HETATM    6  O   UNL     1       9.771  32.584  59.927  1.00  0.00    -0.247 OA
HETATM    7  C   UNL     1      10.034  30.687  57.961  1.00  0.00     0.130 C 
HETATM    8  C   UNL     1       9.818  29.407  57.174  1.00  0.00     0.054 C 
HETATM    9  H   UNL     1       7.718  30.490  61.051  1.00  0.00     0.170 HD
ENDROOT
BRANCH   5  10
HETATM   10  C   UNL     1       7.577  32.370  61.894  1.00  0.00     0.037 A 
HETATM   11  C   UNL     1       6.634  33.367  61.615  1.00  0.00     0.043 A 
HETATM   12  C   UNL     1       6.202  34.232  62.642  1.00  0.00    -0.006 A 
HETATM   13  C   UNL     1       6.729  34.075  63.922  1.00  0.00     0.042 A 
HETATM   14  C   UNL     1       5.277  35.312  62.699  1.00  0.00     0.030 A 
HETATM   15  N   UNL     1       6.145  35.033  64.721  1.00  0.00    -0.365 N 
HETATM   16  C   UNL     1       7.670  33.090  64.232  1.00  0.00     0.033 A 
HETATM   17  H   UNL     1       6.341  35.157  65.705  1.00  0.00     0.165 HD
HETATM   18  C   UNL     1       5.262  35.784  63.992  1.00  0.00     0.089 A 
HETATM   19  C   UNL     1       8.079  32.240  63.195  1.00  0.00     0.032 A 
ENDBRANCH   5  10
BRANCH   1  20
HETATM   20  O   UNL     1       7.963  27.803  57.141  1.00  0.00    -0.344 OA
BRANCH  20  21
HETATM   21  C   UNL     1       7.680  27.357  55.881  1.00  0.00     0.070 A 
HETATM   22  C   UNL     1       7.566  25.968  55.772  1.00  0.00     0.060 A 
HETATM   23  C   UNL     1       7.279  25.379  54.542  1.00  0.00     0.036 A 
HETATM   24  C   UNL     1       7.099  26.167  53.408  1.00  0.00     0.024 A 
HETATM   25 CL   UNL     1       7.144  23.668  54.422  1.00  0.00    -0.084 Cl
HETATM   26  C   UNL     1       7.210  27.552  53.510  1.00  0.00     0.004 A 
HETATM   27  C   UNL     1       7.500  28.147  54.743  1.00  0.00     0.037 A 
ENDBRANCH  20  21
ENDBRANCH   1  20
TORSDOF 3
ENDMDL
MODEL 3
REMARK VINA RESULT:      -9.6      3.380      5.925
REMARK  3 active torsions:
REMARK  status: ('A' for Active; 'I' for Inactive)
REMARK    1  A    between atoms: C_6  and  O_7 
REMARK    2  A    between atoms: O_7  and  C_8 
REMARK       I    between atoms: N_10  and  C_11 
REMARK       I    between atoms: C_11  and  N_12 
REMARK    3  A    between atoms: N_12  and  C_13 
ROOT
HETATM    1  C   UNL     1       8.388  28.472  57.017  1.00  0.00     0.148 C 
HETATM    2  C   UNL     1       8.138  28.955  58.452  1.00  0.00     0.160 C 
HETATM    3  N   UNL     1       8.892  30.197  58.565  1.00  0.00    -0.331 N 
HETATM    4  C   UNL     1       8.671  31.243  59.439  1.00  0.00     0.323 C 
HETATM    5  N   UNL     1       7.818  30.934  60.472  1.00  0.00    -0.309 N 
HETATM    6  O   UNL     1       9.207  32.332  59.260  1.00  0.00    -0.247 OA
HETATM    7  C   UNL     1       9.769  30.372  57.422  1.00  0.00     0.130 C 
HETATM    8  C   UNL     1       9.795  29.012  56.748  1.00  0.00     0.054 C 
HETATM    9  H   UNL     1       7.730  29.952  60.680  1.00  0.00     0.170 HD
ENDROOT
BRANCH   5  10
HETATM   10  C   UNL     1       7.228  31.824  61.394  1.00  0.00     0.037 A 
HETATM   11  C   UNL     1       7.682  31.982  62.710  1.00  0.00     0.043 A 
HETATM   12  C   UNL     1       7.063  32.923  63.558  1.00  0.00    -0.006 A 
HETATM   13  C   UNL     1       6.004  33.682  63.065  1.00  0.00     0.042 A 
HETATM   14  C   UNL     1       7.277  33.329  64.905  1.00  0.00     0.030 A 
HETATM   15  N   UNL     1       5.590  34.511  64.082  1.00  0.00    -0.365 N 
HETATM   16  C   UNL     1       5.529  33.548  61.757  1.00  0.00     0.033 A 
HETATM   17  H   UNL     1       4.832  35.175  64.010  1.00  0.00     0.165 HD
HETATM   18  C   UNL     1       6.357  34.309  65.199  1.00  0.00     0.089 A 
HETATM   19  C   UNL     1       6.164  32.609  60.933  1.00  0.00     0.032 A 
ENDBRANCH   5  10
BRANCH   1  20
HETATM   20  O   UNL     1       8.338  27.052  56.968  1.00  0.00    -0.344 OA
BRANCH  20  21
HETATM   21  C   UNL     1       7.480  26.458  56.084  1.00  0.00     0.070 A 
HETATM   22  C   UNL     1       7.758  25.113  55.825  1.00  0.00     0.060 A 
HETATM   23  C   UNL     1       6.960  24.387  54.942  1.00  0.00     0.036 A 
HETATM   24  C   UNL     1       5.876  24.992  54.312  1.00  0.00     0.024 A 
HETATM   25 CL   UNL     1       7.315  22.733  54.629  1.00  0.00    -0.084 Cl
HETATM   26  C   UNL     1       5.592  26.332  54.567  1.00  0.00     0.004 A 
HETATM   27  C   UNL     1       6.392  27.065  55.451  1.00  0.00     0.037 A 
ENDBRANCH  20  21
ENDBRANCH   1  20
TORSDOF 3
ENDMDL
MODEL 4
REMARK VINA RESULT:      -9.6      4.261      9.993
REMARK  3 active torsions:
REMARK  status: ('A' for Active; 'I' for Inactive)
REMARK    1  A    between atoms: C_6  and  O_7 
REMARK    2  A    between atoms: O_7  and  C_8 
REMARK       I    between atoms: N_10  and  C_11 
REMARK       I    between atoms: C_11  and  N_12 
REMARK    3  A    between atoms: N_12  and  C_13 
ROOT
HETATM    1  C   UNL     1       8.082  31.311  60.163  1.00  0.00     0.148 C 
HETATM    2  C   UNL     1       7.588  30.361  59.063  1.00  0.00     0.160 C 
HETATM    3  N   UNL     1       8.757  30.112  58.231  1.00  0.00    -0.331 N 
HETATM    4  C   UNL     1       8.996  29.027  57.410  1.00  0.00     0.323 C 
HETATM    5  N   UNL     1       7.882  28.257  57.169  1.00  0.00    -0.309 N 
HETATM    6  O   UNL     1      10.120  28.811  56.969  1.00  0.00    -0.247 OA
HETATM    7  C   UNL     1       9.838  31.017  58.578  1.00  0.00     0.130 C 
HETATM    8  C   UNL     1       9.181  32.086  59.432  1.00  0.00     0.054 C 
HETATM    9  H   UNL     1       6.999  28.721  57.305  1.00  0.00     0.170 HD
ENDROOT
BRANCH   5  10
HETATM   10  C   UNL     1       7.833  26.984  56.562  1.00  0.00     0.037 A 
HETATM   11  C   UNL     1       8.195  25.803  57.223  1.00  0.00     0.043 A 
HETATM   12  C   UNL     1       8.079  24.564  56.559  1.00  0.00    -0.006 A 
HETATM   13  C   UNL     1       7.604  24.542  55.250  1.00  0.00     0.042 A 
HETATM   14  C   UNL     1       8.344  23.217  56.931  1.00  0.00     0.030 A 
HETATM   15  N   UNL     1       7.589  23.227  54.845  1.00  0.00    -0.365 N 
HETATM   16  C   UNL     1       7.234  25.703  54.565  1.00  0.00     0.033 A 
HETATM   17  H   UNL     1       7.290  22.909  53.934  1.00  0.00     0.165 HD
HETATM   18  C   UNL     1       8.031  22.415  55.857  1.00  0.00     0.089 A 
HETATM   19  C   UNL     1       7.354  26.921  55.248  1.00  0.00     0.032 A 
ENDBRANCH   5  10
BRANCH   1  20
HETATM   20  O   UNL     1       7.019  32.154  60.588  1.00  0.00    -0.344 OA
BRANCH  20  21
HETATM   21  C   UNL     1       6.972  32.535  61.900  1.00  0.00     0.070 A 
HETATM   22  C   UNL     1       5.723  33.001  62.321  1.00  0.00     0.060 A 
HETATM   23  C   UNL     1       5.536  33.421  63.637  1.00  0.00     0.036 A 
HETATM   24  C   UNL     1       6.589  33.379  64.547  1.00  0.00     0.024 A 
HETATM   25 CL   UNL     1       3.994  33.995  64.142  1.00  0.00    -0.084 Cl
HETATM   26  C   UNL     1       7.835  32.914  64.134  1.00  0.00     0.004 A 
HETATM   27  C   UNL     1       8.028  32.494  62.813  1.00  0.00     0.037 A 
ENDBRANCH  20  21
ENDBRANCH   1  20
TORSDOF 3
ENDMDL
MODEL 5
REMARK VINA RESULT:      -9.5      2.798      8.557
REMARK  3 active torsions:
REMARK  status: ('A' for Active; 'I' for Inactive)
REMARK    1  A    between atoms: C_6  and  O_7 
REMARK    2  A    between atoms: O_7  and  C_8 
REMARK       I    between atoms: N_10  and  C_11 
REMARK       I    between atoms: C_11  and  N_12 
REMARK    3  A    between atoms: N_12  and  C_13 
ROOT
HETATM    1  C   UNL     1       6.119  29.467  56.801  1.00  0.00     0.148 C 
HETATM    2  C   UNL     1       6.356  27.952  56.755  1.00  0.00     0.160 C 
HETATM    3  N   UNL     1       5.525  27.476  55.657  1.00  0.00    -0.331 N 
HETATM    4  C   UNL     1       5.689  26.327  54.908  1.00  0.00     0.323 C 
HETATM    5  N   UNL     1       6.573  25.428  55.457  1.00  0.00    -0.309 N 
HETATM    6  O   UNL     1       5.081  26.175  53.853  1.00  0.00    -0.247 OA
HETATM    7  C   UNL     1       4.624  28.521  55.204  1.00  0.00     0.130 C 
HETATM    8  C   UNL     1       4.677  29.571  56.298  1.00  0.00     0.054 C 
HETATM    9  H   UNL     1       6.728  25.524  56.447  1.00  0.00     0.170 HD
ENDROOT
BRANCH   5  10
HETATM   10  C   UNL     1       7.117  24.278  54.847  1.00  0.00     0.037 A 
HETATM   11  C   UNL     1       7.316  23.069  55.527  1.00  0.00     0.043 A 
HETATM   12  C   UNL     1       7.827  21.951  54.834  1.00  0.00    -0.006 A 
HETATM   13  C   UNL     1       8.126  22.075  53.480  1.00  0.00     0.042 A 
HETATM   14  C   UNL     1       8.131  20.613  55.210  1.00  0.00     0.030 A 
HETATM   15  N   UNL     1       8.600  20.854  53.055  1.00  0.00    -0.365 N 
HETATM   16  C   UNL     1       7.938  23.267  52.774  1.00  0.00     0.033 A 
HETATM   17  H   UNL     1       8.898  20.650  52.112  1.00  0.00     0.165 HD
HETATM   18  C   UNL     1       8.603  19.961  54.094  1.00  0.00     0.089 A 
HETATM   19  C   UNL     1       7.424  24.361  53.483  1.00  0.00     0.032 A 
ENDBRANCH   5  10
BRANCH   1  20
HETATM   20  O   UNL     1       6.260  29.939  58.135  1.00  0.00    -0.344 OA
BRANCH  20  21
HETATM   21  C   UNL     1       7.427  30.556  58.490  1.00  0.00     0.070 A 
HETATM   22  C   UNL     1       8.559  30.073  57.827  1.00  0.00     0.060 A 
HETATM   23  C   UNL     1       9.816  30.615  58.094  1.00  0.00     0.036 A 
HETATM   24  C   UNL     1       9.957  31.644  59.021  1.00  0.00     0.024 A 
HETATM   25 CL   UNL     1      11.202  30.010  57.274  1.00  0.00    -0.084 Cl
HETATM   26  C   UNL     1       8.832  32.131  59.684  1.00  0.00     0.004 A 
HETATM   27  C   UNL     1       7.570  31.588  59.420  1.00  0.00     0.037 A 
ENDBRANCH  20  21
ENDBRANCH   1  20
TORSDOF 3
ENDMDL
MODEL 6
REMARK VINA RESULT:      -9.2      3.709      6.235
REMARK  3 active torsions:
REMARK  status: ('A' for Active; 'I' for Inactive)
REMARK    1  A    between atoms: C_6  and  O_7 
REMARK    2  A    between atoms: O_7  and  C_8 
REMARK       I    between atoms: N_10  and  C_11 
REMARK       I    between atoms: C_11  and  N_12 
REMARK    3  A    between atoms: N_12  and  C_13 
ROOT
HETATM    1  C   UNL     1       7.834  28.638  56.961  1.00  0.00     0.148 C 
HETATM    2  C   UNL     1       7.794  29.111  58.420  1.00  0.00     0.160 C 
HETATM    3  N   UNL     1       8.723  30.232  58.476  1.00  0.00    -0.331 N 
HETATM    4  C   UNL     1       8.739  31.274  59.382  1.00  0.00     0.323 C 
HETATM    5  N   UNL     1       7.954  31.058  60.490  1.00  0.00    -0.309 N 
HETATM    6  O   UNL     1       9.405  32.282  59.166  1.00  0.00    -0.247 OA
HETATM    7  C   UNL     1       9.502  30.314  57.254  1.00  0.00     0.130 C 
HETATM    8  C   UNL     1       9.270  28.984  56.562  1.00  0.00     0.054 C 
HETATM    9  H   UNL     1       7.748  30.093  60.692  1.00  0.00     0.170 HD
ENDROOT
BRANCH   5  10
HETATM   10  C   UNL     1       7.588  31.996  61.479  1.00  0.00     0.037 A 
HETATM   11  C   UNL     1       6.618  32.986  61.277  1.00  0.00     0.043 A 
HETATM   12  C   UNL     1       6.279  33.861  62.330  1.00  0.00    -0.006 A 
HETATM   13  C   UNL     1       6.922  33.721  63.558  1.00  0.00     0.042 A 
HETATM   14  C   UNL     1       5.358  34.938  62.460  1.00  0.00     0.030 A 
HETATM   15  N   UNL     1       6.410  34.685  64.397  1.00  0.00    -0.365 N 
HETATM   16  C   UNL     1       7.893  32.742  63.790  1.00  0.00     0.033 A 
HETATM   17  H   UNL     1       6.695  34.821  65.357  1.00  0.00     0.165 HD
HETATM   18  C   UNL     1       5.460  35.424  63.744  1.00  0.00     0.089 A 
HETATM   19  C   UNL     1       8.208  31.883  62.729  1.00  0.00     0.032 A 
ENDBRANCH   5  10
BRANCH   1  20
HETATM   20  O   UNL     1       7.577  27.241  56.898  1.00  0.00    -0.344 OA
BRANCH  20  21
HETATM   21  C   UNL     1       6.946  26.742  55.793  1.00  0.00     0.070 A 
HETATM   22  C   UNL     1       5.894  27.533  55.323  1.00  0.00     0.060 A 
HETATM   23  C   UNL     1       5.166  27.140  54.200  1.00  0.00     0.036 A 
HETATM   24  C   UNL     1       5.479  25.959  53.534  1.00  0.00     0.024 A 
HETATM   25 CL   UNL     1       3.870  28.121  53.634  1.00  0.00    -0.084 Cl
HETATM   26  C   UNL     1       6.528  25.167  53.997  1.00  0.00     0.004 A 
HETATM   27  C   UNL     1       7.261  25.556  55.124  1.00  0.00     0.037 A 
ENDBRANCH  20  21
ENDBRANCH   1  20
TORSDOF 3
ENDMDL
MODEL 7
REMARK VINA RESULT:      -9.1      4.960      8.255
REMARK  3 active torsions:
REMARK  status: ('A' for Active; 'I' for Inactive)
REMARK    1  A    between atoms: C_6  and  O_7 
REMARK    2  A    between atoms: O_7  and  C_8 
REMARK       I    between atoms: N_10  and  C_11 
REMARK       I    between atoms: C_11  and  N_12 
REMARK    3  A    between atoms: N_12  and  C_13 
ROOT
HETATM    1  C   UNL     1       4.026  28.404  52.139  1.00  0.00     0.148 C 
HETATM    2  C   UNL     1       5.258  27.536  52.427  1.00  0.00     0.160 C 
HETATM    3  N   UNL     1       5.273  27.376  53.874  1.00  0.00    -0.331 N 
HETATM    4  C   UNL     1       5.862  26.364  54.608  1.00  0.00     0.323 C 
HETATM    5  N   UNL     1       6.743  25.595  53.886  1.00  0.00    -0.309 N 
HETATM    6  O   UNL     1       5.582  26.206  55.792  1.00  0.00    -0.247 OA
HETATM    7  C   UNL     1       4.317  28.271  54.500  1.00  0.00     0.130 C 
HETATM    8  C   UNL     1       3.944  29.256  53.408  1.00  0.00     0.054 C 
HETATM    9  H   UNL     1       7.119  26.030  53.059  1.00  0.00     0.170 HD
ENDROOT
BRANCH   5  10
HETATM   10  C   UNL     1       7.334  24.374  54.273  1.00  0.00     0.037 A 
HETATM   11  C   UNL     1       7.248  23.202  53.511  1.00  0.00     0.043 A 
HETATM   12  C   UNL     1       7.902  22.031  53.948  1.00  0.00    -0.006 A 
HETATM   13  C   UNL     1       8.624  22.066  55.138  1.00  0.00     0.042 A 
HETATM   14  C   UNL     1       8.021  20.714  53.424  1.00  0.00     0.030 A 
HETATM   15  N   UNL     1       9.156  20.810  55.328  1.00  0.00    -0.365 N 
HETATM   16  C   UNL     1       8.730  23.220  55.920  1.00  0.00     0.033 A 
HETATM   17  H   UNL     1       9.728  20.542  56.116  1.00  0.00     0.165 HD
HETATM   18  C   UNL     1       8.800  19.985  54.294  1.00  0.00     0.089 A 
HETATM   19  C   UNL     1       8.075  24.371  55.462  1.00  0.00     0.032 A 
ENDBRANCH   5  10
BRANCH   1  20
HETATM   20  O   UNL     1       4.249  29.191  50.975  1.00  0.00    -0.344 OA
BRANCH  20  21
HETATM   21  C   UNL     1       4.115  28.599  49.751  1.00  0.00     0.070 A 
HETATM   22  C   UNL     1       2.807  28.221  49.433  1.00  0.00     0.060 A 
HETATM   23  C   UNL     1       2.529  27.607  48.212  1.00  0.00     0.036 A 
HETATM   24  C   UNL     1       3.549  27.366  47.296  1.00  0.00     0.024 A 
HETATM   25 CL   UNL     1       0.916  27.143  47.835  1.00  0.00    -0.084 Cl
HETATM   26  C   UNL     1       4.854  27.742  47.606  1.00  0.00     0.004 A 
HETATM   27  C   UNL     1       5.138  28.357  48.831  1.00  0.00     0.037 A 
ENDBRANCH  20  21
ENDBRANCH   1  20
TORSDOF 3
ENDMDL
MODEL 8
REMARK VINA RESULT:      -9.1      5.213     10.857
REMARK  3 active torsions:
REMARK  status: ('A' for Active; 'I' for Inactive)
REMARK    1  A    between atoms: C_6  and  O_7 
REMARK    2  A    between atoms: O_7  and  C_8 
REMARK       I    between atoms: N_10  and  C_11 
REMARK       I    between atoms: C_11  and  N_12 
REMARK    3  A    between atoms: N_12  and  C_13 
ROOT
HETATM    1  C   UNL     1       7.493  32.013  61.725  1.00  0.00     0.148 C 
HETATM    2  C   UNL     1       7.088  31.822  60.257  1.00  0.00     0.160 C 
HETATM    3  N   UNL     1       8.004  30.812  59.745  1.00  0.00    -0.331 N 
HETATM    4  C   UNL     1       7.814  29.964  58.671  1.00  0.00     0.323 C 
HETATM    5  N   UNL     1       6.761  30.320  57.862  1.00  0.00    -0.309 N 
HETATM    6  O   UNL     1       8.543  28.991  58.505  1.00  0.00    -0.247 OA
HETATM    7  C   UNL     1       9.077  30.563  60.691  1.00  0.00     0.130 C 
HETATM    8  C   UNL     1       8.993  31.716  61.675  1.00  0.00     0.054 C 
HETATM    9  H   UNL     1       6.481  31.286  57.918  1.00  0.00     0.170 HD
ENDROOT
BRANCH   5  10
HETATM   10  C   UNL     1       6.178  29.559  56.827  1.00  0.00     0.037 A 
HETATM   11  C   UNL     1       6.883  29.136  55.693  1.00  0.00     0.043 A 
HETATM   12  C   UNL     1       6.238  28.342  54.722  1.00  0.00    -0.006 A 
HETATM   13  C   UNL     1       4.902  27.995  54.912  1.00  0.00     0.042 A 
HETATM   14  C   UNL     1       6.653  27.753  53.495  1.00  0.00     0.030 A 
HETATM   15  N   UNL     1       4.524  27.228  53.834  1.00  0.00    -0.365 N 
HETATM   16  C   UNL     1       4.173  28.401  56.033  1.00  0.00     0.033 A 
HETATM   17  H   UNL     1       3.602  26.835  53.702  1.00  0.00     0.165 HD
HETATM   18  C   UNL     1       5.578  27.071  52.971  1.00  0.00     0.089 A 
HETATM   19  C   UNL     1       4.838  29.185  56.986  1.00  0.00     0.032 A 
ENDBRANCH   5  10
BRANCH   1  20
HETATM   20  O   UNL     1       7.221  33.347  62.133  1.00  0.00    -0.344 OA
BRANCH  20  21
HETATM   21  C   UNL     1       6.764  33.562  63.404  1.00  0.00     0.070 A 
HETATM   22  C   UNL     1       5.398  33.844  63.486  1.00  0.00     0.060 A 
HETATM   23  C   UNL     1       4.802  34.083  64.724  1.00  0.00     0.036 A 
HETATM   24  C   UNL     1       5.560  34.040  65.891  1.00  0.00     0.024 A 
HETATM   25 CL   UNL     1       3.119  34.432  64.811  1.00  0.00    -0.084 Cl
HETATM   26  C   UNL     1       6.922  33.758  65.816  1.00  0.00     0.004 A 
HETATM   27  C   UNL     1       7.524  33.520  64.575  1.00  0.00     0.037 A 
ENDBRANCH  20  21
ENDBRANCH   1  20
TORSDOF 3
ENDMDL
MODEL 9
REMARK VINA RESULT:      -9.0      4.642      7.846
REMARK  3 active torsions:
REMARK  status: ('A' for Active; 'I' for Inactive)
REMARK    1  A    between atoms: C_6  and  O_7 
REMARK    2  A    between atoms: O_7  and  C_8 
REMARK       I    between atoms: N_10  and  C_11 
REMARK       I    between atoms: C_11  and  N_12 
REMARK    3  A    between atoms: N_12  and  C_13 
ROOT
HETATM    1  C   UNL     1       6.988  25.646  53.656  1.00  0.00     0.148 C 
HETATM    2  C   UNL     1       5.709  25.996  52.884  1.00  0.00     0.160 C 
HETATM    3  N   UNL     1       5.806  27.427  52.629  1.00  0.00    -0.331 N 
HETATM    4  C   UNL     1       5.190  28.151  51.626  1.00  0.00     0.323 C 
HETATM    5  N   UNL     1       4.178  27.471  50.991  1.00  0.00    -0.309 N 
HETATM    6  O   UNL     1       5.557  29.293  51.363  1.00  0.00    -0.247 OA
HETATM    7  C   UNL     1       6.896  28.012  53.389  1.00  0.00     0.130 C 
HETATM    8  C   UNL     1       7.264  26.950  54.408  1.00  0.00     0.054 C 
HETATM    9  H   UNL     1       3.775  26.710  51.513  1.00  0.00     0.170 HD
ENDROOT
BRANCH   5  10
HETATM   10  C   UNL     1       3.509  27.839  49.805  1.00  0.00     0.037 A 
HETATM   11  C   UNL     1       2.498  28.807  49.761  1.00  0.00     0.043 A 
HETATM   12  C   UNL     1       1.906  29.148  48.527  1.00  0.00    -0.006 A 
HETATM   13  C   UNL     1       2.343  28.509  47.370  1.00  0.00     0.042 A 
HETATM   14  C   UNL     1       0.891  30.067  48.141  1.00  0.00     0.030 A 
HETATM   15  N   UNL     1       1.612  29.022  46.322  1.00  0.00    -0.365 N 
HETATM   16  C   UNL     1       3.351  27.541  47.381  1.00  0.00     0.033 A 
HETATM   17  H   UNL     1       1.715  28.740  45.357  1.00  0.00     0.165 HD
HETATM   18  C   UNL     1       0.733  29.969  46.777  1.00  0.00     0.089 A 
HETATM   19  C   UNL     1       3.926  27.223  48.618  1.00  0.00     0.032 A 
ENDBRANCH   5  10
BRANCH   1  20
HETATM   20  O   UNL     1       6.740  24.557  54.536  1.00  0.00    -0.344 OA
BRANCH  20  21
HETATM   21  C   UNL     1       7.321  23.350  54.263  1.00  0.00     0.070 A 
HETATM   22  C   UNL     1       7.618  22.584  55.394  1.00  0.00     0.060 A 
HETATM   23  C   UNL     1       8.212  21.330  55.257  1.00  0.00     0.036 A 
HETATM   24  C   UNL     1       8.512  20.826  53.995  1.00  0.00     0.024 A 
HETATM   25 CL   UNL     1       8.576  20.398  56.657  1.00  0.00    -0.084 Cl
HETATM   26  C   UNL     1       8.217  21.584  52.864  1.00  0.00     0.004 A 
HETATM   27  C   UNL     1       7.623  22.844  52.997  1.00  0.00     0.037 A 
ENDBRANCH  20  21
ENDBRANCH   1  20
TORSDOF 3
ENDMDL
MODEL 10
REMARK VINA RESULT:      -8.7      3.994      8.675
REMARK  3 active torsions:
REMARK  status: ('A' for Active; 'I' for Inactive)
REMARK    1  A    between atoms: C_6  and  O_7 
REMARK    2  A    between atoms: O_7  and  C_8 
REMARK       I    between atoms: N_10  and  C_11 
REMARK       I    between atoms: C_11  and  N_12 
REMARK    3  A    between atoms: N_12  and  C_13 
ROOT
HETATM    1  C   UNL     1       7.460  27.217  56.519  1.00  0.00     0.148 C 
HETATM    2  C   UNL     1       7.408  27.146  54.987  1.00  0.00     0.160 C 
HETATM    3  N   UNL     1       6.295  26.254  54.691  1.00  0.00    -0.331 N 
HETATM    4  C   UNL     1       5.542  26.196  53.535  1.00  0.00     0.323 C 
HETATM    5  N   UNL     1       6.097  26.874  52.476  1.00  0.00    -0.309 N 
HETATM    6  O   UNL     1       4.477  25.586  53.511  1.00  0.00    -0.247 OA
HETATM    7  C   UNL     1       5.837  25.587  55.896  1.00  0.00     0.130 C 
HETATM    8  C   UNL     1       6.938  25.832  56.911  1.00  0.00     0.054 C 
HETATM    9  H   UNL     1       7.090  27.030  52.535  1.00  0.00     0.170 HD
ENDROOT
BRANCH   5  10
HETATM   10  C   UNL     1       5.488  27.186  51.242  1.00  0.00     0.037 A 
HETATM   11  C   UNL     1       4.979  26.216  50.369  1.00  0.00     0.043 A 
HETATM   12  C   UNL     1       4.347  26.612  49.172  1.00  0.00    -0.006 A 
HETATM   13  C   UNL     1       4.243  27.969  48.880  1.00  0.00     0.042 A 
HETATM   14  C   UNL     1       3.731  25.905  48.101  1.00  0.00     0.030 A 
HETATM   15  N   UNL     1       3.592  28.077  47.672  1.00  0.00    -0.365 N 
HETATM   16  C   UNL     1       4.740  28.961  49.731  1.00  0.00     0.033 A 
HETATM   17  H   UNL     1       3.379  28.950  47.210  1.00  0.00     0.165 HD
HETATM   18  C   UNL     1       3.274  26.833  47.194  1.00  0.00     0.089 A 
HETATM   19  C   UNL     1       5.359  28.542  50.917  1.00  0.00     0.032 A 
ENDBRANCH   5  10
BRANCH   1  20
HETATM   20  O   UNL     1       8.799  27.429  56.949  1.00  0.00    -0.344 OA
BRANCH  20  21
HETATM   21  C   UNL     1       9.167  28.685  57.344  1.00  0.00     0.070 A 
HETATM   22  C   UNL     1       8.258  29.309  58.203  1.00  0.00     0.060 A 
HETATM   23  C   UNL     1       8.512  30.594  58.683  1.00  0.00     0.036 A 
HETATM   24  C   UNL     1       9.672  31.268  58.314  1.00  0.00     0.024 A 
HETATM   25 CL   UNL     1       7.383  31.352  59.738  1.00  0.00    -0.084 Cl
HETATM   26  C   UNL     1      10.583  30.651  57.459  1.00  0.00     0.004 A 
HETATM   27  C   UNL     1      10.331  29.363  56.973  1.00  0.00     0.037 A 
ENDBRANCH  20  21
ENDBRANCH   1  20
TORSDOF 3
ENDMDL
