MODEL 1
REMARK VINA RESULT:     -10.6      0.000      0.000
REMARK  9 active torsions:
REMARK  status: ('A' for Active; 'I' for Inactive)
REMARK       I    between atoms: C_2  and  N_3 
REMARK    1  A    between atoms: N_3  and  C_4 
REMARK    2  A    between atoms: C_6  and  O_7 
REMARK    3  A    between atoms: O_7  and  C_8 
REMARK    4  A    between atoms: C_8  and  C_9 
REMARK    5  A    between atoms: C_9  and  C_10 
REMARK    6  A    between atoms: C_10  and  C_11 
REMARK    7  A    between atoms: C_11  and  N_12 
REMARK       I    between atoms: N_12  and  C_13 
REMARK    8  A    between atoms: C_13  and  C_14 
REMARK    9  A    between atoms: C_18  and  C_19 
ROOT
HETATM    1  N   UNL     1       9.313  30.056  58.115  1.00  0.00    -0.345 N 
HETATM    2  C   UNL     1       9.654  31.192  58.802  1.00  0.00     0.270 C 
HETATM    3  O   UNL     1      10.432  32.027  58.356  1.00  0.00    -0.266 OA
HETATM    4  H   UNL     1       8.754  29.346  58.562  1.00  0.00     0.163 HD
ENDROOT
BRANCH   1   5
HETATM    5  C   UNL     1       9.881  29.751  56.827  1.00  0.00     0.217 C 
BRANCH   5   6
HETATM    6  C   UNL     1       8.782  29.171  55.952  1.00  0.00    -0.085 C 
BRANCH   6   7
HETATM    7  C   UNL     1       7.839  28.674  55.201  1.00  0.00    -0.078 C 
BRANCH   7   8
HETATM    8  C   UNL     1       6.814  28.103  54.315  1.00  0.00     0.269 C 
BRANCH   8   9
HETATM    9  O   UNL     1       6.381  26.851  54.845  1.00  0.00    -0.339 OA
BRANCH   9  10
HETATM   10  C   UNL     1       6.887  25.724  54.254  1.00  0.00     0.072 A 
HETATM   11  C   UNL     1       6.964  24.454  54.837  1.00  0.00     0.066 A 
HETATM   12  C   UNL     1       7.501  23.374  54.128  1.00  0.00     0.037 A 
HETATM   13  C   UNL     1       7.969  23.580  52.825  1.00  0.00     0.029 A 
HETATM   14  C   UNL     1       7.898  24.844  52.238  1.00  0.00     0.005 A 
HETATM   15  C   UNL     1       7.359  25.911  52.954  1.00  0.00     0.037 A 
BRANCH  12  16
HETATM   16  N   UNL     1       7.607  22.065  54.648  1.00  0.00    -0.327 N 
HETATM   17  C   UNL     1       8.127  21.682  55.873  1.00  0.00     0.218 C 
HETATM   18  C   UNL     1       8.068  20.190  56.085  1.00  0.00     0.117 C 
HETATM   19  O   UNL     1       8.574  22.418  56.746  1.00  0.00    -0.274 OA
HETATM   20  H   UNL     1       7.248  21.327  54.057  1.00  0.00     0.169 HD
ENDBRANCH  12  16
ENDBRANCH   9  10
ENDBRANCH   8   9
ENDBRANCH   7   8
ENDBRANCH   6   7
ENDBRANCH   5   6
ENDBRANCH   1   5
BRANCH   2  21
HETATM   21  C   UNL     1       9.032  31.331  60.091  1.00  0.00     0.120 A 
HETATM   22  N   UNL     1       9.066  30.328  61.018  1.00  0.00    -0.272 N 
HETATM   23  H   UNL     1       9.511  29.421  60.915  1.00  0.00     0.189 HD
HETATM   24  N   UNL     1       8.431  30.614  62.164  1.00  0.00    -0.174 NA
HETATM   25  C   UNL     1       7.970  31.864  61.998  1.00  0.00     0.089 A 
HETATM   26  C   UNL     1       8.328  32.348  60.707  1.00  0.00     0.071 A 
BRANCH  25  27
HETATM   27  C   UNL     1       7.206  32.551  63.046  1.00  0.00    -0.003 A 
HETATM   28  C   UNL     1       5.812  32.685  62.930  1.00  0.00     0.053 A 
HETATM   29  C   UNL     1       5.129  33.350  63.928  1.00  0.00     0.106 A 
HETATM   30  C   UNL     1       5.773  33.876  65.022  1.00  0.00     0.105 A 
HETATM   31  O   UNL     1       3.786  33.569  63.964  1.00  0.00    -0.323 OA
HETATM   32  O   UNL     1       4.920  34.491  65.883  1.00  0.00    -0.323 OA
HETATM   33  C   UNL     1       7.135  33.763  65.181  1.00  0.00     0.040 A 
HETATM   34  C   UNL     1       3.662  34.293  65.204  1.00  0.00     0.352 A 
HETATM   35  C   UNL     1       7.856  33.094  64.182  1.00  0.00     0.017 A 
ENDBRANCH  25  27
ENDBRANCH   2  21
TORSDOF 9
ENDMDL
MODEL 2
REMARK VINA RESULT:      -9.9      1.675      2.959
REMARK  9 active torsions:
REMARK  status: ('A' for Active; 'I' for Inactive)
REMARK       I    between atoms: C_2  and  N_3 
REMARK    1  A    between atoms: N_3  and  C_4 
REMARK    2  A    between atoms: C_6  and  O_7 
REMARK    3  A    between atoms: O_7  and  C_8 
REMARK    4  A    between atoms: C_8  and  C_9 
REMARK    5  A    between atoms: C_9  and  C_10 
REMARK    6  A    between atoms: C_10  and  C_11 
REMARK    7  A    between atoms: C_11  and  N_12 
REMARK       I    between atoms: N_12  and  C_13 
REMARK    8  A    between atoms: C_13  and  C_14 
REMARK    9  A    between atoms: C_18  and  C_19 
ROOT
HETATM    1  N   UNL     1       7.907  29.662  58.406  1.00  0.00    -0.345 N 
HETATM    2  C   UNL     1       8.858  30.395  59.067  1.00  0.00     0.270 C 
HETATM    3  O   UNL     1       9.934  30.693  58.562  1.00  0.00    -0.266 OA
HETATM    4  H   UNL     1       7.082  29.351  58.895  1.00  0.00     0.163 HD
ENDROOT
BRANCH   1   5
HETATM    5  C   UNL     1       8.128  29.158  57.076  1.00  0.00     0.217 C 
BRANCH   5   6
HETATM    6  C   UNL     1       8.264  27.647  57.159  1.00  0.00    -0.085 C 
BRANCH   6   7
HETATM    7  C   UNL     1       8.380  26.350  57.230  1.00  0.00    -0.078 C 
BRANCH   7   8
HETATM    8  C   UNL     1       8.515  24.887  57.255  1.00  0.00     0.269 C 
BRANCH   8   9
HETATM    9  O   UNL     1       7.397  24.301  56.589  1.00  0.00    -0.339 OA
BRANCH   9  10
HETATM   10  C   UNL     1       7.520  24.097  55.240  1.00  0.00     0.072 A 
HETATM   11  C   UNL     1       7.034  24.940  54.234  1.00  0.00     0.066 A 
HETATM   12  C   UNL     1       7.226  24.626  52.885  1.00  0.00     0.037 A 
HETATM   13  C   UNL     1       7.909  23.450  52.550  1.00  0.00     0.029 A 
HETATM   14  C   UNL     1       8.394  22.604  53.548  1.00  0.00     0.005 A 
HETATM   15  C   UNL     1       8.198  22.930  54.889  1.00  0.00     0.037 A 
BRANCH  12  16
HETATM   16  N   UNL     1       6.768  25.428  51.816  1.00  0.00    -0.327 N 
HETATM   17  C   UNL     1       5.505  25.967  51.646  1.00  0.00     0.218 C 
HETATM   18  C   UNL     1       5.388  26.778  50.379  1.00  0.00     0.117 C 
HETATM   19  O   UNL     1       4.550  25.864  52.409  1.00  0.00    -0.274 OA
HETATM   20  H   UNL     1       7.453  25.640  51.102  1.00  0.00     0.169 HD
ENDBRANCH  12  16
ENDBRANCH   9  10
ENDBRANCH   8   9
ENDBRANCH   7   8
ENDBRANCH   6   7
ENDBRANCH   5   6
ENDBRANCH   1   5
BRANCH   2  21
HETATM   21  C   UNL     1       8.500  30.790  60.403  1.00  0.00     0.120 A 
HETATM   22  N   UNL     1       8.975  30.127  61.499  1.00  0.00    -0.272 N 
HETATM   23  H   UNL     1       9.602  29.328  61.502  1.00  0.00     0.189 HD
HETATM   24  N   UNL     1       8.540  30.615  62.670  1.00  0.00    -0.174 NA
HETATM   25  C   UNL     1       7.757  31.653  62.338  1.00  0.00     0.089 A 
HETATM   26  C   UNL     1       7.707  31.795  60.922  1.00  0.00     0.071 A 
BRANCH  25  27
HETATM   27  C   UNL     1       7.078  32.465  63.357  1.00  0.00    -0.003 A 
HETATM   28  C   UNL     1       5.675  32.540  63.379  1.00  0.00     0.053 A 
HETATM   29  C   UNL     1       5.073  33.324  64.342  1.00  0.00     0.106 A 
HETATM   30  C   UNL     1       5.805  34.023  65.271  1.00  0.00     0.105 A 
HETATM   31  O   UNL     1       3.733  33.508  64.495  1.00  0.00    -0.323 OA
HETATM   32  O   UNL     1       5.022  34.734  66.125  1.00  0.00    -0.323 OA
HETATM   33  C   UNL     1       7.180  33.975  65.291  1.00  0.00     0.040 A 
HETATM   34  C   UNL     1       3.709  34.402  65.626  1.00  0.00     0.352 A 
HETATM   35  C   UNL     1       7.820  33.187  64.324  1.00  0.00     0.017 A 
ENDBRANCH  25  27
ENDBRANCH   2  21
TORSDOF 9
ENDMDL
MODEL 3
REMARK VINA RESULT:      -9.5      2.676     10.957
REMARK  9 active torsions:
REMARK  status: ('A' for Active; 'I' for Inactive)
REMARK       I    between atoms: C_2  and  N_3 
REMARK    1  A    between atoms: N_3  and  C_4 
REMARK    2  A    between atoms: C_6  and  O_7 
REMARK    3  A    between atoms: O_7  and  C_8 
REMARK    4  A    between atoms: C_8  and  C_9 
REMARK    5  A    between atoms: C_9  and  C_10 
REMARK    6  A    between atoms: C_10  and  C_11 
REMARK    7  A    between atoms: C_11  and  N_12 
REMARK       I    between atoms: N_12  and  C_13 
REMARK    8  A    between atoms: C_13  and  C_14 
REMARK    9  A    between atoms: C_18  and  C_19 
ROOT
HETATM    1  N   UNL     1       4.033  29.388  56.868  1.00  0.00    -0.345 N 
HETATM    2  C   UNL     1       4.708  29.037  55.729  1.00  0.00     0.270 C 
HETATM    3  O   UNL     1       4.801  29.779  54.758  1.00  0.00    -0.266 OA
HETATM    4  H   UNL     1       3.892  28.708  57.599  1.00  0.00     0.163 HD
ENDROOT
BRANCH   1   5
HETATM    5  C   UNL     1       3.352  30.651  56.986  1.00  0.00     0.217 C 
BRANCH   5   6
HETATM    6  C   UNL     1       3.657  31.225  58.360  1.00  0.00    -0.085 C 
BRANCH   6   7
HETATM    7  C   UNL     1       3.917  31.718  59.539  1.00  0.00    -0.078 C 
BRANCH   7   8
HETATM    8  C   UNL     1       4.259  32.292  60.848  1.00  0.00     0.269 C 
BRANCH   8   9
HETATM    9  O   UNL     1       5.484  33.017  60.738  1.00  0.00    -0.339 OA
BRANCH   9  10
HETATM   10  C   UNL     1       6.640  32.290  60.835  1.00  0.00     0.072 A 
HETATM   11  C   UNL     1       7.325  31.688  59.773  1.00  0.00     0.066 A 
HETATM   12  C   UNL     1       8.505  30.972  59.998  1.00  0.00     0.037 A 
HETATM   13  C   UNL     1       8.994  30.859  61.305  1.00  0.00     0.029 A 
HETATM   14  C   UNL     1       8.315  31.454  62.369  1.00  0.00     0.005 A 
HETATM   15  C   UNL     1       7.142  32.167  62.131  1.00  0.00     0.037 A 
BRANCH  12  16
HETATM   16  N   UNL     1       9.251  30.342  58.977  1.00  0.00    -0.327 N 
HETATM   17  C   UNL     1      10.230  30.905  58.177  1.00  0.00     0.218 C 
HETATM   18  C   UNL     1      10.812  29.918  57.195  1.00  0.00     0.117 C 
HETATM   19  O   UNL     1      10.648  32.057  58.223  1.00  0.00    -0.274 OA
HETATM   20  H   UNL     1       9.049  29.362  58.827  1.00  0.00     0.169 HD
ENDBRANCH  12  16
ENDBRANCH   9  10
ENDBRANCH   8   9
ENDBRANCH   7   8
ENDBRANCH   6   7
ENDBRANCH   5   6
ENDBRANCH   1   5
BRANCH   2  21
HETATM   21  C   UNL     1       5.300  27.727  55.753  1.00  0.00     0.120 A 
HETATM   22  N   UNL     1       5.577  27.084  56.927  1.00  0.00    -0.272 N 
HETATM   23  H   UNL     1       5.404  27.432  57.865  1.00  0.00     0.189 HD
HETATM   24  N   UNL     1       6.136  25.875  56.775  1.00  0.00    -0.174 NA
HETATM   25  C   UNL     1       6.220  25.700  55.447  1.00  0.00     0.089 A 
HETATM   26  C   UNL     1       5.704  26.842  54.771  1.00  0.00     0.071 A 
BRANCH  25  27
HETATM   27  C   UNL     1       6.787  24.477  54.864  1.00  0.00    -0.003 A 
HETATM   28  C   UNL     1       7.152  23.403  55.694  1.00  0.00     0.053 A 
HETATM   29  C   UNL     1       7.695  22.276  55.112  1.00  0.00     0.106 A 
HETATM   30  C   UNL     1       7.881  22.179  53.754  1.00  0.00     0.105 A 
HETATM   31  O   UNL     1       8.104  21.158  55.771  1.00  0.00    -0.323 OA
HETATM   32  O   UNL     1       8.430  20.991  53.387  1.00  0.00    -0.323 OA
HETATM   33  C   UNL     1       7.533  23.202  52.902  1.00  0.00     0.040 A 
HETATM   34  C   UNL     1       8.569  20.349  54.672  1.00  0.00     0.352 A 
HETATM   35  C   UNL     1       6.980  24.361  53.465  1.00  0.00     0.017 A 
ENDBRANCH  25  27
ENDBRANCH   2  21
TORSDOF 9
ENDMDL
MODEL 4
REMARK VINA RESULT:      -9.4      1.646      2.142
REMARK  9 active torsions:
REMARK  status: ('A' for Active; 'I' for Inactive)
REMARK       I    between atoms: C_2  and  N_3 
REMARK    1  A    between atoms: N_3  and  C_4 
REMARK    2  A    between atoms: C_6  and  O_7 
REMARK    3  A    between atoms: O_7  and  C_8 
REMARK    4  A    between atoms: C_8  and  C_9 
REMARK    5  A    between atoms: C_9  and  C_10 
REMARK    6  A    between atoms: C_10  and  C_11 
REMARK    7  A    between atoms: C_11  and  N_12 
REMARK       I    between atoms: N_12  and  C_13 
REMARK    8  A    between atoms: C_13  and  C_14 
REMARK    9  A    between atoms: C_18  and  C_19 
ROOT
HETATM    1  N   UNL     1       8.849  29.460  56.018  1.00  0.00    -0.345 N 
HETATM    2  C   UNL     1       9.874  29.708  56.893  1.00  0.00     0.270 C 
HETATM    3  O   UNL     1      11.002  29.253  56.739  1.00  0.00    -0.266 OA
HETATM    4  H   UNL     1       7.914  29.766  56.239  1.00  0.00     0.163 HD
ENDROOT
BRANCH   1   5
HETATM    5  C   UNL     1       9.023  28.611  54.869  1.00  0.00     0.217 C 
BRANCH   5   6
HETATM    6  C   UNL     1       7.646  28.232  54.348  1.00  0.00    -0.085 C 
BRANCH   6   7
HETATM    7  C   UNL     1       6.465  27.907  53.902  1.00  0.00    -0.078 C 
BRANCH   7   8
HETATM    8  C   UNL     1       5.127  27.591  53.382  1.00  0.00     0.269 C 
BRANCH   8   9
HETATM    9  O   UNL     1       4.859  26.204  53.586  1.00  0.00    -0.339 OA
BRANCH   9  10
HETATM   10  C   UNL     1       5.914  25.345  53.439  1.00  0.00     0.072 A 
HETATM   11  C   UNL     1       6.385  24.449  54.405  1.00  0.00     0.066 A 
HETATM   12  C   UNL     1       7.475  23.614  54.134  1.00  0.00     0.037 A 
HETATM   13  C   UNL     1       8.095  23.690  52.881  1.00  0.00     0.029 A 
HETATM   14  C   UNL     1       7.633  24.583  51.914  1.00  0.00     0.005 A 
HETATM   15  C   UNL     1       6.545  25.407  52.196  1.00  0.00     0.037 A 
BRANCH  12  16
HETATM   16  N   UNL     1       8.003  22.683  55.056  1.00  0.00    -0.327 N 
HETATM   17  C   UNL     1       8.011  21.303  54.953  1.00  0.00     0.218 C 
HETATM   18  C   UNL     1       8.670  20.639  56.136  1.00  0.00     0.117 C 
HETATM   19  O   UNL     1       7.577  20.631  54.023  1.00  0.00    -0.274 OA
HETATM   20  H   UNL     1       8.435  23.080  55.881  1.00  0.00     0.169 HD
ENDBRANCH  12  16
ENDBRANCH   9  10
ENDBRANCH   8   9
ENDBRANCH   7   8
ENDBRANCH   6   7
ENDBRANCH   5   6
ENDBRANCH   1   5
BRANCH   2  21
HETATM   21  C   UNL     1       9.529  30.543  58.012  1.00  0.00     0.120 A 
HETATM   22  N   UNL     1      10.188  31.712  58.267  1.00  0.00    -0.272 N 
HETATM   23  H   UNL     1      10.951  32.109  57.728  1.00  0.00     0.189 HD
HETATM   24  N   UNL     1       9.750  32.367  59.352  1.00  0.00    -0.174 NA
HETATM   25  C   UNL     1       8.750  31.610  59.829  1.00  0.00     0.089 A 
HETATM   26  C   UNL     1       8.580  30.455  59.013  1.00  0.00     0.071 A 
BRANCH  25  27
HETATM   27  C   UNL     1       7.999  31.991  61.032  1.00  0.00    -0.003 A 
HETATM   28  C   UNL     1       6.643  32.348  60.933  1.00  0.00     0.053 A 
HETATM   29  C   UNL     1       5.973  32.714  62.083  1.00  0.00     0.106 A 
HETATM   30  C   UNL     1       6.593  32.734  63.309  1.00  0.00     0.105 A 
HETATM   31  O   UNL     1       4.668  33.092  62.157  1.00  0.00    -0.323 OA
HETATM   32  O   UNL     1       5.759  33.125  64.308  1.00  0.00    -0.323 OA
HETATM   33  C   UNL     1       7.916  32.385  63.454  1.00  0.00     0.040 A 
HETATM   34  C   UNL     1       4.540  33.351  63.570  1.00  0.00     0.352 A 
HETATM   35  C   UNL     1       8.623  32.011  62.303  1.00  0.00     0.017 A 
ENDBRANCH  25  27
ENDBRANCH   2  21
TORSDOF 9
ENDMDL
MODEL 5
REMARK VINA RESULT:      -9.4      2.621     12.423
REMARK  9 active torsions:
REMARK  status: ('A' for Active; 'I' for Inactive)
REMARK       I    between atoms: C_2  and  N_3 
REMARK    1  A    between atoms: N_3  and  C_4 
REMARK    2  A    between atoms: C_6  and  O_7 
REMARK    3  A    between atoms: O_7  and  C_8 
REMARK    4  A    between atoms: C_8  and  C_9 
REMARK    5  A    between atoms: C_9  and  C_10 
REMARK    6  A    between atoms: C_10  and  C_11 
REMARK    7  A    between atoms: C_11  and  N_12 
REMARK       I    between atoms: N_12  and  C_13 
REMARK    8  A    between atoms: C_13  and  C_14 
REMARK    9  A    between atoms: C_18  and  C_19 
ROOT
HETATM    1  N   UNL     1       5.586  29.539  55.114  1.00  0.00    -0.345 N 
HETATM    2  C   UNL     1       5.217  28.314  55.606  1.00  0.00     0.270 C 
HETATM    3  O   UNL     1       4.349  28.176  56.459  1.00  0.00    -0.266 OA
HETATM    4  H   UNL     1       6.375  29.614  54.492  1.00  0.00     0.163 HD
ENDROOT
BRANCH   1   5
HETATM    5  C   UNL     1       4.994  30.758  55.599  1.00  0.00     0.217 C 
BRANCH   5   6
HETATM    6  C   UNL     1       5.694  31.141  56.893  1.00  0.00    -0.085 C 
BRANCH   6   7
HETATM    7  C   UNL     1       6.296  31.468  58.003  1.00  0.00    -0.078 C 
BRANCH   7   8
HETATM    8  C   UNL     1       7.020  31.845  59.225  1.00  0.00     0.269 C 
BRANCH   8   9
HETATM    9  O   UNL     1       6.143  32.572  60.085  1.00  0.00    -0.339 OA
BRANCH   9  10
HETATM   10  C   UNL     1       6.582  32.801  61.362  1.00  0.00     0.072 A 
HETATM   11  C   UNL     1       6.013  33.692  62.279  1.00  0.00     0.066 A 
HETATM   12  C   UNL     1       6.551  33.835  63.563  1.00  0.00     0.037 A 
HETATM   13  C   UNL     1       7.674  33.078  63.919  1.00  0.00     0.029 A 
HETATM   14  C   UNL     1       8.247  32.190  63.008  1.00  0.00     0.005 A 
HETATM   15  C   UNL     1       7.700  32.055  61.734  1.00  0.00     0.037 A 
BRANCH  12  16
HETATM   16  N   UNL     1       6.030  34.710  64.542  1.00  0.00    -0.327 N 
HETATM   17  C   UNL     1       5.051  34.438  65.482  1.00  0.00     0.218 C 
HETATM   18  C   UNL     1       4.756  35.623  66.368  1.00  0.00     0.117 C 
HETATM   19  O   UNL     1       4.469  33.373  65.653  1.00  0.00    -0.274 OA
HETATM   20  H   UNL     1       6.432  35.638  64.560  1.00  0.00     0.169 HD
ENDBRANCH  12  16
ENDBRANCH   9  10
ENDBRANCH   8   9
ENDBRANCH   7   8
ENDBRANCH   6   7
ENDBRANCH   5   6
ENDBRANCH   1   5
BRANCH   2  21
HETATM   21  C   UNL     1       5.929  27.196  55.047  1.00  0.00     0.120 A 
HETATM   22  N   UNL     1       6.748  27.335  53.962  1.00  0.00    -0.272 N 
HETATM   23  H   UNL     1       6.943  28.192  53.454  1.00  0.00     0.189 HD
HETATM   24  N   UNL     1       7.330  26.196  53.560  1.00  0.00    -0.174 NA
HETATM   25  C   UNL     1       6.892  25.265  54.423  1.00  0.00     0.089 A 
HETATM   26  C   UNL     1       6.010  25.856  55.372  1.00  0.00     0.071 A 
BRANCH  25  27
HETATM   27  C   UNL     1       7.308  23.860  54.320  1.00  0.00    -0.003 A 
HETATM   28  C   UNL     1       7.530  23.103  55.483  1.00  0.00     0.053 A 
HETATM   29  C   UNL     1       7.933  21.791  55.348  1.00  0.00     0.106 A 
HETATM   30  C   UNL     1       8.118  21.212  54.116  1.00  0.00     0.105 A 
HETATM   31  O   UNL     1       8.196  20.930  56.369  1.00  0.00    -0.323 OA
HETATM   32  O   UNL     1       8.519  19.916  54.204  1.00  0.00    -0.323 OA
HETATM   33  C   UNL     1       7.906  21.912  52.950  1.00  0.00     0.040 A 
HETATM   34  C   UNL     1       8.566  19.745  55.636  1.00  0.00     0.352 A 
HETATM   35  C   UNL     1       7.497  23.248  53.056  1.00  0.00     0.017 A 
ENDBRANCH  25  27
ENDBRANCH   2  21
TORSDOF 9
ENDMDL
MODEL 6
REMARK VINA RESULT:      -9.4      1.961      2.701
REMARK  9 active torsions:
REMARK  status: ('A' for Active; 'I' for Inactive)
REMARK       I    between atoms: C_2  and  N_3 
REMARK    1  A    between atoms: N_3  and  C_4 
REMARK    2  A    between atoms: C_6  and  O_7 
REMARK    3  A    between atoms: O_7  and  C_8 
REMARK    4  A    between atoms: C_8  and  C_9 
REMARK    5  A    between atoms: C_9  and  C_10 
REMARK    6  A    between atoms: C_10  and  C_11 
REMARK    7  A    between atoms: C_11  and  N_12 
REMARK       I    between atoms: N_12  and  C_13 
REMARK    8  A    between atoms: C_13  and  C_14 
REMARK    9  A    between atoms: C_18  and  C_19 
ROOT
HETATM    1  N   UNL     1       7.626  30.921  59.875  1.00  0.00    -0.345 N 
HETATM    2  C   UNL     1       6.779  31.999  59.892  1.00  0.00     0.270 C 
HETATM    3  O   UNL     1       6.569  32.692  58.903  1.00  0.00    -0.266 OA
HETATM    4  H   UNL     1       7.850  30.444  60.734  1.00  0.00     0.163 HD
ENDROOT
BRANCH   1   5
HETATM    5  C   UNL     1       8.358  30.552  58.692  1.00  0.00     0.217 C 
BRANCH   5   6
HETATM    6  C   UNL     1       7.736  29.286  58.128  1.00  0.00    -0.085 C 
BRANCH   6   7
HETATM    7  C   UNL     1       7.202  28.198  57.644  1.00  0.00    -0.078 C 
BRANCH   7   8
HETATM    8  C   UNL     1       6.574  27.004  57.062  1.00  0.00     0.269 C 
BRANCH   8   9
HETATM    9  O   UNL     1       6.538  27.137  55.641  1.00  0.00    -0.339 OA
BRANCH   9  10
HETATM   10  C   UNL     1       6.961  26.060  54.910  1.00  0.00     0.072 A 
HETATM   11  C   UNL     1       6.999  24.732  55.350  1.00  0.00     0.066 A 
HETATM   12  C   UNL     1       7.450  23.712  54.505  1.00  0.00     0.037 A 
HETATM   13  C   UNL     1       7.871  24.038  53.210  1.00  0.00     0.029 A 
HETATM   14  C   UNL     1       7.838  25.360  52.765  1.00  0.00     0.005 A 
HETATM   15  C   UNL     1       7.384  26.366  53.616  1.00  0.00     0.037 A 
BRANCH  12  16
HETATM   16  N   UNL     1       7.513  22.351  54.877  1.00  0.00    -0.327 N 
HETATM   17  C   UNL     1       8.041  21.817  56.040  1.00  0.00     0.218 C 
HETATM   18  C   UNL     1       7.926  20.314  56.090  1.00  0.00     0.117 C 
HETATM   19  O   UNL     1       8.534  22.435  56.977  1.00  0.00    -0.274 OA
HETATM   20  H   UNL     1       7.113  21.697  54.217  1.00  0.00     0.169 HD
ENDBRANCH  12  16
ENDBRANCH   9  10
ENDBRANCH   8   9
ENDBRANCH   7   8
ENDBRANCH   6   7
ENDBRANCH   5   6
ENDBRANCH   1   5
BRANCH   2  21
HETATM   21  C   UNL     1       6.154  32.260  61.160  1.00  0.00     0.120 A 
HETATM   22  N   UNL     1       4.973  31.673  61.515  1.00  0.00    -0.272 N 
HETATM   23  H   UNL     1       4.429  31.018  60.960  1.00  0.00     0.189 HD
HETATM   24  N   UNL     1       4.520  32.029  62.725  1.00  0.00    -0.174 NA
HETATM   25  C   UNL     1       5.447  32.876  63.202  1.00  0.00     0.089 A 
HETATM   26  C   UNL     1       6.489  33.045  62.247  1.00  0.00     0.071 A 
BRANCH  25  27
HETATM   27  C   UNL     1       5.316  33.499  64.525  1.00  0.00    -0.003 A 
HETATM   28  C   UNL     1       6.426  33.567  65.385  1.00  0.00     0.053 A 
HETATM   29  C   UNL     1       6.262  34.146  66.627  1.00  0.00     0.106 A 
HETATM   30  C   UNL     1       5.053  34.655  67.036  1.00  0.00     0.105 A 
HETATM   31  O   UNL     1       7.229  34.284  67.574  1.00  0.00    -0.323 OA
HETATM   32  O   UNL     1       5.106  35.177  68.290  1.00  0.00    -0.323 OA
HETATM   33  C   UNL     1       3.941  34.617  66.225  1.00  0.00     0.040 A 
HETATM   34  C   UNL     1       6.488  34.937  68.625  1.00  0.00     0.352 A 
HETATM   35  C   UNL     1       4.078  34.032  64.959  1.00  0.00     0.017 A 
ENDBRANCH  25  27
ENDBRANCH   2  21
TORSDOF 9
ENDMDL
MODEL 7
REMARK VINA RESULT:      -9.3      2.526     12.836
REMARK  9 active torsions:
REMARK  status: ('A' for Active; 'I' for Inactive)
REMARK       I    between atoms: C_2  and  N_3 
REMARK    1  A    between atoms: N_3  and  C_4 
REMARK    2  A    between atoms: C_6  and  O_7 
REMARK    3  A    between atoms: O_7  and  C_8 
REMARK    4  A    between atoms: C_8  and  C_9 
REMARK    5  A    between atoms: C_9  and  C_10 
REMARK    6  A    between atoms: C_10  and  C_11 
REMARK    7  A    between atoms: C_11  and  N_12 
REMARK       I    between atoms: N_12  and  C_13 
REMARK    8  A    between atoms: C_13  and  C_14 
REMARK    9  A    between atoms: C_18  and  C_19 
ROOT
HETATM    1  N   UNL     1       7.615  30.356  59.460  1.00  0.00    -0.345 N 
HETATM    2  C   UNL     1       8.394  29.814  58.472  1.00  0.00     0.270 C 
HETATM    3  O   UNL     1       9.486  30.278  58.160  1.00  0.00    -0.266 OA
HETATM    4  H   UNL     1       6.681  30.008  59.611  1.00  0.00     0.163 HD
ENDROOT
BRANCH   1   5
HETATM    5  C   UNL     1       8.015  31.537  60.179  1.00  0.00     0.217 C 
BRANCH   5   6
HETATM    6  C   UNL     1       6.820  32.034  60.974  1.00  0.00    -0.085 C 
BRANCH   6   7
HETATM    7  C   UNL     1       5.794  32.460  61.657  1.00  0.00    -0.078 C 
BRANCH   7   8
HETATM    8  C   UNL     1       4.638  32.986  62.397  1.00  0.00     0.269 C 
BRANCH   8   9
HETATM    9  O   UNL     1       4.717  32.559  63.757  1.00  0.00    -0.339 OA
BRANCH   9  10
HETATM   10  C   UNL     1       4.727  33.541  64.711  1.00  0.00     0.072 A 
HETATM   11  C   UNL     1       5.697  33.710  65.706  1.00  0.00     0.066 A 
HETATM   12  C   UNL     1       5.600  34.759  66.627  1.00  0.00     0.037 A 
HETATM   13  C   UNL     1       4.514  35.639  66.545  1.00  0.00     0.029 A 
HETATM   14  C   UNL     1       3.542  35.475  65.557  1.00  0.00     0.005 A 
HETATM   15  C   UNL     1       3.652  34.427  64.644  1.00  0.00     0.037 A 
BRANCH  12  16
HETATM   16  N   UNL     1       6.540  34.995  67.654  1.00  0.00    -0.327 N 
HETATM   17  C   UNL     1       6.387  34.760  69.009  1.00  0.00     0.218 C 
HETATM   18  C   UNL     1       7.615  35.132  69.803  1.00  0.00     0.117 C 
HETATM   19  O   UNL     1       5.406  34.280  69.568  1.00  0.00    -0.274 OA
HETATM   20  H   UNL     1       7.433  35.367  67.355  1.00  0.00     0.169 HD
ENDBRANCH  12  16
ENDBRANCH   9  10
ENDBRANCH   8   9
ENDBRANCH   7   8
ENDBRANCH   6   7
ENDBRANCH   5   6
ENDBRANCH   1   5
BRANCH   2  21
HETATM   21  C   UNL     1       7.836  28.660  57.821  1.00  0.00     0.120 A 
HETATM   22  N   UNL     1       6.487  28.448  57.765  1.00  0.00    -0.272 N 
HETATM   23  H   UNL     1       5.762  29.047  58.149  1.00  0.00     0.189 HD
HETATM   24  N   UNL     1       6.131  27.322  57.132  1.00  0.00    -0.174 NA
HETATM   25  C   UNL     1       7.289  26.769  56.738  1.00  0.00     0.089 A 
HETATM   26  C   UNL     1       8.383  27.582  57.152  1.00  0.00     0.071 A 
BRANCH  25  27
HETATM   27  C   UNL     1       7.328  25.501  55.998  1.00  0.00    -0.003 A 
HETATM   28  C   UNL     1       8.168  24.459  56.428  1.00  0.00     0.053 A 
HETATM   29  C   UNL     1       8.189  23.287  55.700  1.00  0.00     0.106 A 
HETATM   30  C   UNL     1       7.415  23.116  54.578  1.00  0.00     0.105 A 
HETATM   31  O   UNL     1       8.948  22.192  55.978  1.00  0.00    -0.323 OA
HETATM   32  O   UNL     1       7.586  21.894  54.009  1.00  0.00    -0.323 OA
HETATM   33  C   UNL     1       6.573  24.106  54.124  1.00  0.00     0.040 A 
HETATM   34  C   UNL     1       8.560  21.314  54.901  1.00  0.00     0.352 A 
HETATM   35  C   UNL     1       6.532  25.308  54.843  1.00  0.00     0.017 A 
ENDBRANCH  25  27
ENDBRANCH   2  21
TORSDOF 9
ENDMDL
MODEL 8
REMARK VINA RESULT:      -9.2      2.563     12.115
REMARK  9 active torsions:
REMARK  status: ('A' for Active; 'I' for Inactive)
REMARK       I    between atoms: C_2  and  N_3 
REMARK    1  A    between atoms: N_3  and  C_4 
REMARK    2  A    between atoms: C_6  and  O_7 
REMARK    3  A    between atoms: O_7  and  C_8 
REMARK    4  A    between atoms: C_8  and  C_9 
REMARK    5  A    between atoms: C_9  and  C_10 
REMARK    6  A    between atoms: C_10  and  C_11 
REMARK    7  A    between atoms: C_11  and  N_12 
REMARK       I    between atoms: N_12  and  C_13 
REMARK    8  A    between atoms: C_13  and  C_14 
REMARK    9  A    between atoms: C_18  and  C_19 
ROOT
HETATM    1  N   UNL     1       8.963  29.345  57.909  1.00  0.00    -0.345 N 
HETATM    2  C   UNL     1       7.651  29.089  57.611  1.00  0.00     0.270 C 
HETATM    3  O   UNL     1       6.772  29.938  57.706  1.00  0.00    -0.266 OA
HETATM    4  H   UNL     1       9.634  28.592  57.918  1.00  0.00     0.163 HD
ENDROOT
BRANCH   1   5
HETATM    5  C   UNL     1       9.393  30.631  58.393  1.00  0.00     0.217 C 
BRANCH   5   6
HETATM    6  C   UNL     1       9.009  30.737  59.859  1.00  0.00    -0.085 C 
BRANCH   6   7
HETATM    7  C   UNL     1       8.678  30.829  61.117  1.00  0.00    -0.078 C 
BRANCH   7   8
HETATM    8  C   UNL     1       8.253  30.940  62.520  1.00  0.00     0.269 C 
BRANCH   8   9
HETATM    9  O   UNL     1       8.549  32.252  62.997  1.00  0.00    -0.339 OA
BRANCH   9  10
HETATM   10  C   UNL     1       7.494  32.990  63.465  1.00  0.00     0.072 A 
HETATM   11  C   UNL     1       6.407  33.442  62.707  1.00  0.00     0.066 A 
HETATM   12  C   UNL     1       5.384  34.187  63.301  1.00  0.00     0.037 A 
HETATM   13  C   UNL     1       5.462  34.483  64.667  1.00  0.00     0.029 A 
HETATM   14  C   UNL     1       6.544  34.039  65.428  1.00  0.00     0.005 A 
HETATM   15  C   UNL     1       7.556  33.295  64.825  1.00  0.00     0.037 A 
BRANCH  12  16
HETATM   16  N   UNL     1       4.256  34.673  62.603  1.00  0.00    -0.327 N 
HETATM   17  C   UNL     1       2.977  34.145  62.593  1.00  0.00     0.218 C 
HETATM   18  C   UNL     1       2.029  34.942  61.731  1.00  0.00     0.117 C 
HETATM   19  O   UNL     1       2.580  33.163  63.211  1.00  0.00    -0.274 OA
HETATM   20  H   UNL     1       4.405  35.512  62.058  1.00  0.00     0.169 HD
ENDBRANCH  12  16
ENDBRANCH   9  10
ENDBRANCH   8   9
ENDBRANCH   7   8
ENDBRANCH   6   7
ENDBRANCH   5   6
ENDBRANCH   1   5
BRANCH   2  21
HETATM   21  C   UNL     1       7.377  27.745  57.178  1.00  0.00     0.120 A 
HETATM   22  N   UNL     1       6.103  27.258  57.108  1.00  0.00    -0.272 N 
HETATM   23  H   UNL     1       5.248  27.758  57.335  1.00  0.00     0.189 HD
HETATM   24  N   UNL     1       6.021  25.985  56.695  1.00  0.00    -0.174 NA
HETATM   25  C   UNL     1       7.291  25.616  56.467  1.00  0.00     0.089 A 
HETATM   26  C   UNL     1       8.172  26.696  56.759  1.00  0.00     0.071 A 
BRANCH  25  27
HETATM   27  C   UNL     1       7.631  24.268  55.995  1.00  0.00    -0.003 A 
HETATM   28  C   UNL     1       7.405  23.913  54.653  1.00  0.00     0.053 A 
HETATM   29  C   UNL     1       7.723  22.633  54.249  1.00  0.00     0.106 A 
HETATM   30  C   UNL     1       8.252  21.708  55.116  1.00  0.00     0.105 A 
HETATM   31  O   UNL     1       7.561  22.131  52.994  1.00  0.00    -0.323 OA
HETATM   32  O   UNL     1       8.490  20.510  54.519  1.00  0.00    -0.323 OA
HETATM   33  C   UNL     1       8.497  22.013  56.436  1.00  0.00     0.040 A 
HETATM   34  C   UNL     1       8.049  20.787  53.174  1.00  0.00     0.352 A 
HETATM   35  C   UNL     1       8.182  23.306  56.876  1.00  0.00     0.017 A 
ENDBRANCH  25  27
ENDBRANCH   2  21
TORSDOF 9
ENDMDL
MODEL 9
REMARK VINA RESULT:      -9.1      2.526     12.484
REMARK  9 active torsions:
REMARK  status: ('A' for Active; 'I' for Inactive)
REMARK       I    between atoms: C_2  and  N_3 
REMARK    1  A    between atoms: N_3  and  C_4 
REMARK    2  A    between atoms: C_6  and  O_7 
REMARK    3  A    between atoms: O_7  and  C_8 
REMARK    4  A    between atoms: C_8  and  C_9 
REMARK    5  A    between atoms: C_9  and  C_10 
REMARK    6  A    between atoms: C_10  and  C_11 
REMARK    7  A    between atoms: C_11  and  N_12 
REMARK       I    between atoms: N_12  and  C_13 
REMARK    8  A    between atoms: C_13  and  C_14 
REMARK    9  A    between atoms: C_18  and  C_19 
ROOT
HETATM    1  N   UNL     1       9.189  29.089  57.639  1.00  0.00    -0.345 N 
HETATM    2  C   UNL     1       7.856  28.792  57.527  1.00  0.00     0.270 C 
HETATM    3  O   UNL     1       6.974  29.625  57.707  1.00  0.00    -0.266 OA
HETATM    4  H   UNL     1       9.874  28.351  57.587  1.00  0.00     0.163 HD
ENDROOT
BRANCH   1   5
HETATM    5  C   UNL     1       9.644  30.403  58.012  1.00  0.00     0.217 C 
BRANCH   5   6
HETATM    6  C   UNL     1       9.256  30.643  59.462  1.00  0.00    -0.085 C 
BRANCH   6   7
HETATM    7  C   UNL     1       8.924  30.849  60.706  1.00  0.00    -0.078 C 
BRANCH   7   8
HETATM    8  C   UNL     1       8.541  31.027  62.114  1.00  0.00     0.269 C 
BRANCH   8   9
HETATM    9  O   UNL     1       8.396  32.420  62.388  1.00  0.00    -0.339 OA
BRANCH   9  10
HETATM   10  C   UNL     1       7.371  32.781  63.221  1.00  0.00     0.072 A 
HETATM   11  C   UNL     1       7.490  33.110  64.577  1.00  0.00     0.066 A 
HETATM   12  C   UNL     1       6.365  33.468  65.326  1.00  0.00     0.037 A 
HETATM   13  C   UNL     1       5.111  33.489  64.704  1.00  0.00     0.029 A 
HETATM   14  C   UNL     1       4.984  33.159  63.354  1.00  0.00     0.005 A 
HETATM   15  C   UNL     1       6.114  32.806  62.618  1.00  0.00     0.037 A 
BRANCH  12  16
HETATM   16  N   UNL     1       6.408  33.816  66.694  1.00  0.00    -0.327 N 
HETATM   17  C   UNL     1       5.728  34.842  67.327  1.00  0.00     0.218 C 
HETATM   18  C   UNL     1       6.021  34.904  68.806  1.00  0.00     0.117 C 
HETATM   19  O   UNL     1       4.939  35.629  66.815  1.00  0.00    -0.274 OA
HETATM   20  H   UNL     1       6.998  33.235  67.276  1.00  0.00     0.169 HD
ENDBRANCH  12  16
ENDBRANCH   9  10
ENDBRANCH   8   9
ENDBRANCH   7   8
ENDBRANCH   6   7
ENDBRANCH   5   6
ENDBRANCH   1   5
BRANCH   2  21
HETATM   21  C   UNL     1       7.564  27.426  57.186  1.00  0.00     0.120 A 
HETATM   22  N   UNL     1       6.320  26.890  57.364  1.00  0.00    -0.272 N 
HETATM   23  H   UNL     1       5.501  27.365  57.733  1.00  0.00     0.189 HD
HETATM   24  N   UNL     1       6.217  25.603  57.005  1.00  0.00    -0.174 NA
HETATM   25  C   UNL     1       7.438  25.273  56.556  1.00  0.00     0.089 A 
HETATM   26  C   UNL     1       8.312  26.393  56.654  1.00  0.00     0.071 A 
BRANCH  25  27
HETATM   27  C   UNL     1       7.742  23.924  56.063  1.00  0.00    -0.003 A 
HETATM   28  C   UNL     1       7.507  23.596  54.716  1.00  0.00     0.053 A 
HETATM   29  C   UNL     1       7.791  22.314  54.292  1.00  0.00     0.106 A 
HETATM   30  C   UNL     1       8.295  21.362  55.145  1.00  0.00     0.105 A 
HETATM   31  O   UNL     1       7.615  21.837  53.029  1.00  0.00    -0.323 OA
HETATM   32  O   UNL     1       8.501  20.168  54.529  1.00  0.00    -0.323 OA
HETATM   33  C   UNL     1       8.546  21.640  56.469  1.00  0.00     0.040 A 
HETATM   34  C   UNL     1       8.067  20.477  53.188  1.00  0.00     0.352 A 
HETATM   35  C   UNL     1       8.266  22.934  56.929  1.00  0.00     0.017 A 
ENDBRANCH  25  27
ENDBRANCH   2  21
TORSDOF 9
ENDMDL
MODEL 10
REMARK VINA RESULT:      -9.1      2.865      4.006
REMARK  9 active torsions:
REMARK  status: ('A' for Active; 'I' for Inactive)
REMARK       I    between atoms: C_2  and  N_3 
REMARK    1  A    between atoms: N_3  and  C_4 
REMARK    2  A    between atoms: C_6  and  O_7 
REMARK    3  A    between atoms: O_7  and  C_8 
REMARK    4  A    between atoms: C_8  and  C_9 
REMARK    5  A    between atoms: C_9  and  C_10 
REMARK    6  A    between atoms: C_10  and  C_11 
REMARK    7  A    between atoms: C_11  and  N_12 
REMARK       I    between atoms: N_12  and  C_13 
REMARK    8  A    between atoms: C_13  and  C_14 
REMARK    9  A    between atoms: C_18  and  C_19 
ROOT
HETATM    1  N   UNL     1       5.267  31.335  58.817  1.00  0.00    -0.345 N 
HETATM    2  C   UNL     1       4.207  32.073  59.274  1.00  0.00     0.270 C 
HETATM    3  O   UNL     1       3.302  32.458  58.542  1.00  0.00    -0.266 OA
HETATM    4  H   UNL     1       6.040  31.130  59.431  1.00  0.00     0.163 HD
ENDROOT
BRANCH   1   5
HETATM    5  C   UNL     1       5.407  30.991  57.426  1.00  0.00     0.217 C 
BRANCH   5   6
HETATM    6  C   UNL     1       6.547  29.995  57.298  1.00  0.00    -0.085 C 
BRANCH   6   7
HETATM    7  C   UNL     1       7.525  29.139  57.187  1.00  0.00    -0.078 C 
BRANCH   7   8
HETATM    8  C   UNL     1       8.641  28.186  57.115  1.00  0.00     0.269 C 
BRANCH   8   9
HETATM    9  O   UNL     1       8.270  26.977  57.776  1.00  0.00    -0.339 OA
BRANCH   9  10
HETATM   10  C   UNL     1       8.013  25.893  56.980  1.00  0.00     0.072 A 
HETATM   11  C   UNL     1       7.077  25.840  55.940  1.00  0.00     0.066 A 
HETATM   12  C   UNL     1       6.908  24.671  55.191  1.00  0.00     0.037 A 
HETATM   13  C   UNL     1       7.684  23.547  55.498  1.00  0.00     0.029 A 
HETATM   14  C   UNL     1       8.617  23.591  56.535  1.00  0.00     0.005 A 
HETATM   15  C   UNL     1       8.778  24.763  57.272  1.00  0.00     0.037 A 
BRANCH  12  16
HETATM   16  N   UNL     1       5.988  24.544  54.126  1.00  0.00    -0.327 N 
HETATM   17  C   UNL     1       6.060  25.128  52.874  1.00  0.00     0.218 C 
HETATM   18  C   UNL     1       4.892  24.757  51.995  1.00  0.00     0.117 C 
HETATM   19  O   UNL     1       6.955  25.851  52.448  1.00  0.00    -0.274 OA
HETATM   20  H   UNL     1       5.192  23.944  54.303  1.00  0.00     0.169 HD
ENDBRANCH  12  16
ENDBRANCH   9  10
ENDBRANCH   8   9
ENDBRANCH   7   8
ENDBRANCH   6   7
ENDBRANCH   5   6
ENDBRANCH   1   5
BRANCH   2  21
HETATM   21  C   UNL     1       4.233  32.366  60.682  1.00  0.00     0.120 A 
HETATM   22  N   UNL     1       3.107  32.295  61.452  1.00  0.00    -0.272 N 
HETATM   23  H   UNL     1       2.175  32.037  61.143  1.00  0.00     0.189 HD
HETATM   24  N   UNL     1       3.301  32.608  62.742  1.00  0.00    -0.174 NA
HETATM   25  C   UNL     1       4.611  32.884  62.835  1.00  0.00     0.089 A 
HETATM   26  C   UNL     1       5.231  32.743  61.561  1.00  0.00     0.071 A 
BRANCH  25  27
HETATM   27  C   UNL     1       5.229  33.277  64.107  1.00  0.00    -0.003 A 
HETATM   28  C   UNL     1       4.424  33.684  65.186  1.00  0.00     0.053 A 
HETATM   29  C   UNL     1       5.041  34.060  66.362  1.00  0.00     0.106 A 
HETATM   30  C   UNL     1       6.408  34.044  66.502  1.00  0.00     0.105 A 
HETATM   31  O   UNL     1       4.410  34.483  67.491  1.00  0.00    -0.323 OA
HETATM   32  O   UNL     1       6.809  34.453  67.734  1.00  0.00    -0.323 OA
HETATM   33  C   UNL     1       7.234  33.648  65.476  1.00  0.00     0.040 A 
HETATM   34  C   UNL     1       5.537  34.731  68.356  1.00  0.00     0.352 A 
HETATM   35  C   UNL     1       6.636  33.261  64.269  1.00  0.00     0.017 A 
ENDBRANCH  25  27
ENDBRANCH   2  21
TORSDOF 9
ENDMDL
