MODEL 1
REMARK VINA RESULT:      -9.2      0.000      0.000
REMARK  8 active torsions:
REMARK  status: ('A' for Active; 'I' for Inactive)
REMARK    1  A    between atoms: O_2  and  C_3 
REMARK    2  A    between atoms: C_4  and  O_5 
REMARK    3  A    between atoms: C_8  and  C_9 
REMARK    4  A    between atoms: C_14  and  C_15 
REMARK    5  A    between atoms: N_16  and  N_17 
REMARK       I    between atoms: N_17  and  C_18 
REMARK    6  A    between atoms: C_18  and  C_19 
REMARK    7  A    between atoms: C_19  and  C_20 
REMARK    8  A    between atoms: C_20  and  C_21 
ROOT
HETATM    1  C   UNL     1       9.093  31.125  59.014  1.00  0.00     0.100 A 
HETATM    2  N   UNL     1      10.043  32.025  58.702  1.00  0.00    -0.174 NA
HETATM    3  N   UNL     1      10.701  31.486  57.670  1.00  0.00    -0.288 N 
HETATM    4  H   UNL     1      11.479  32.002  57.274  1.00  0.00     0.188 HD
HETATM    5  C   UNL     1      10.210  30.281  57.284  1.00  0.00     0.124 A 
HETATM    6  C   UNL     1       9.144  30.007  58.118  1.00  0.00     0.031 A 
ENDROOT
BRANCH   6   7
HETATM    7  C   UNL     1       8.295  28.837  58.049  1.00  0.00     0.154 C 
HETATM    8  N   UNL     1       8.716  27.809  57.381  1.00  0.00    -0.184 NA
BRANCH   8   9
HETATM    9  N   UNL     1       7.921  26.692  57.308  1.00  0.00    -0.247 N 
HETATM   10  C   UNL     1       7.347  26.172  56.156  1.00  0.00     0.237 C 
HETATM   11  O   UNL     1       7.439  26.650  55.028  1.00  0.00    -0.272 OA
HETATM   12  H   UNL     1       8.017  26.078  58.112  1.00  0.00     0.192 HD
BRANCH  10  13
HETATM   13  C   UNL     1       6.561  24.900  56.410  1.00  0.00     0.105 C 
BRANCH  13  14
HETATM   14  C   UNL     1       6.785  23.844  55.328  1.00  0.00     0.014 C 
BRANCH  14  15
HETATM   15  C   UNL     1       8.221  23.277  55.237  1.00  0.00    -0.014 C 
HETATM   16  C   UNL     1       8.464  22.050  56.133  1.00  0.00     0.004 C 
HETATM   17  C   UNL     1       7.726  20.802  55.650  1.00  0.00     0.000 C 
HETATM   18  C   UNL     1       8.065  20.477  54.198  1.00  0.00     0.000 C 
HETATM   19  C   UNL     1       7.847  21.673  53.275  1.00  0.00     0.000 C 
HETATM   20  C   UNL     1       8.573  22.919  53.779  1.00  0.00     0.004 C 
ENDBRANCH  14  15
ENDBRANCH  13  14
ENDBRANCH  10  13
ENDBRANCH   8   9
ENDBRANCH   6   7
BRANCH   1  21
HETATM   21  C   UNL     1       8.200  31.377  60.151  1.00  0.00    -0.002 A 
HETATM   22  C   UNL     1       6.948  31.974  59.935  1.00  0.00     0.053 A 
HETATM   23  C   UNL     1       6.086  32.256  61.003  1.00  0.00     0.102 A 
HETATM   24  C   UNL     1       6.472  31.920  62.315  1.00  0.00     0.101 A 
HETATM   25  C   UNL     1       7.723  31.337  62.534  1.00  0.00     0.040 A 
HETATM   26  C   UNL     1       8.584  31.077  61.462  1.00  0.00     0.017 A 
BRANCH  23  27
HETATM   27  O   UNL     1       4.852  32.842  60.866  1.00  0.00    -0.353 OA
HETATM   28  C   UNL     1       4.021  32.373  59.814  1.00  0.00     0.210 C 
ENDBRANCH  23  27
BRANCH  24  29
HETATM   29  O   UNL     1       5.570  32.219  63.306  1.00  0.00    -0.353 OA
HETATM   30  C   UNL     1       5.960  33.164  64.291  1.00  0.00     0.210 C 
ENDBRANCH  24  29
ENDBRANCH   1  21
TORSDOF 8
ENDMDL
MODEL 2
REMARK VINA RESULT:      -9.1      2.780      9.985
REMARK  8 active torsions:
REMARK  status: ('A' for Active; 'I' for Inactive)
REMARK    1  A    between atoms: O_2  and  C_3 
REMARK    2  A    between atoms: C_4  and  O_5 
REMARK    3  A    between atoms: C_8  and  C_9 
REMARK    4  A    between atoms: C_14  and  C_15 
REMARK    5  A    between atoms: N_16  and  N_17 
REMARK       I    between atoms: N_17  and  C_18 
REMARK    6  A    between atoms: C_18  and  C_19 
REMARK    7  A    between atoms: C_19  and  C_20 
REMARK    8  A    between atoms: C_20  and  C_21 
ROOT
HETATM    1  C   UNL     1       5.702  25.613  53.724  1.00  0.00     0.100 A 
HETATM    2  N   UNL     1       4.637  25.353  52.941  1.00  0.00    -0.174 NA
HETATM    3  N   UNL     1       3.969  26.510  52.878  1.00  0.00    -0.288 N 
HETATM    4  H   UNL     1       3.112  26.540  52.337  1.00  0.00     0.188 HD
HETATM    5  C   UNL     1       4.559  27.517  53.570  1.00  0.00     0.124 A 
HETATM    6  C   UNL     1       5.707  26.988  54.127  1.00  0.00     0.031 A 
ENDROOT
BRANCH   6   7
HETATM    7  C   UNL     1       6.673  27.715  54.924  1.00  0.00     0.154 C 
HETATM    8  N   UNL     1       6.234  28.540  55.822  1.00  0.00    -0.184 NA
BRANCH   8   9
HETATM    9  N   UNL     1       7.138  29.234  56.587  1.00  0.00    -0.247 N 
HETATM   10  C   UNL     1       7.893  28.715  57.630  1.00  0.00     0.237 C 
HETATM   11  O   UNL     1       7.847  27.560  58.047  1.00  0.00    -0.272 OA
HETATM   12  H   UNL     1       7.454  30.096  56.152  1.00  0.00     0.192 HD
BRANCH  10  13
HETATM   13  C   UNL     1       8.833  29.735  58.244  1.00  0.00     0.105 C 
BRANCH  13  14
HETATM   14  C   UNL     1       8.323  30.275  59.580  1.00  0.00     0.014 C 
BRANCH  14  15
HETATM   15  C   UNL     1       9.320  31.157  60.367  1.00  0.00    -0.014 C 
HETATM   16  C   UNL     1       8.884  32.628  60.496  1.00  0.00     0.004 C 
HETATM   17  C   UNL     1       7.681  32.814  61.419  1.00  0.00     0.000 C 
HETATM   18  C   UNL     1       7.932  32.210  62.797  1.00  0.00     0.000 C 
HETATM   19  C   UNL     1       8.378  30.753  62.714  1.00  0.00     0.000 C 
HETATM   20  C   UNL     1       9.568  30.576  61.773  1.00  0.00     0.004 C 
ENDBRANCH  14  15
ENDBRANCH  13  14
ENDBRANCH  10  13
ENDBRANCH   8   9
ENDBRANCH   6   7
BRANCH   1  21
HETATM   21  C   UNL     1       6.643  24.535  54.048  1.00  0.00    -0.002 A 
HETATM   22  C   UNL     1       7.069  24.357  55.374  1.00  0.00     0.053 A 
HETATM   23  C   UNL     1       7.991  23.357  55.710  1.00  0.00     0.102 A 
HETATM   24  C   UNL     1       8.488  22.504  54.706  1.00  0.00     0.101 A 
HETATM   25  C   UNL     1       8.076  22.687  53.383  1.00  0.00     0.040 A 
HETATM   26  C   UNL     1       7.169  23.701  53.055  1.00  0.00     0.017 A 
BRANCH  23  27
HETATM   27  O   UNL     1       8.454  23.130  56.983  1.00  0.00    -0.353 OA
HETATM   28  C   UNL     1       8.917  24.254  57.718  1.00  0.00     0.210 C 
ENDBRANCH  23  27
BRANCH  24  29
HETATM   29  O   UNL     1       9.381  21.544  55.116  1.00  0.00    -0.353 OA
HETATM   30  C   UNL     1       8.909  20.210  55.232  1.00  0.00     0.210 C 
ENDBRANCH  24  29
ENDBRANCH   1  21
TORSDOF 8
ENDMDL
MODEL 3
REMARK VINA RESULT:      -9.1      1.130      1.880
REMARK  8 active torsions:
REMARK  status: ('A' for Active; 'I' for Inactive)
REMARK    1  A    between atoms: O_2  and  C_3 
REMARK    2  A    between atoms: C_4  and  O_5 
REMARK    3  A    between atoms: C_8  and  C_9 
REMARK    4  A    between atoms: C_14  and  C_15 
REMARK    5  A    between atoms: N_16  and  N_17 
REMARK       I    between atoms: N_17  and  C_18 
REMARK    6  A    between atoms: C_18  and  C_19 
REMARK    7  A    between atoms: C_19  and  C_20 
REMARK    8  A    between atoms: C_20  and  C_21 
ROOT
HETATM    1  C   UNL     1       8.924  31.155  58.672  1.00  0.00     0.100 A 
HETATM    2  N   UNL     1      10.001  31.951  58.544  1.00  0.00    -0.174 NA
HETATM    3  N   UNL     1      10.857  31.250  57.793  1.00  0.00    -0.288 N 
HETATM    4  H   UNL     1      11.757  31.665  57.577  1.00  0.00     0.188 HD
HETATM    5  C   UNL     1      10.379  30.039  57.412  1.00  0.00     0.124 A 
HETATM    6  C   UNL     1       9.109  29.934  57.944  1.00  0.00     0.031 A 
ENDROOT
BRANCH   6   7
HETATM    7  C   UNL     1       8.205  28.818  57.762  1.00  0.00     0.154 C 
HETATM    8  N   UNL     1       8.405  28.020  56.760  1.00  0.00    -0.184 NA
BRANCH   8   9
HETATM    9  N   UNL     1       7.557  26.956  56.577  1.00  0.00    -0.247 N 
HETATM   10  C   UNL     1       7.601  25.750  57.265  1.00  0.00     0.237 C 
HETATM   11  O   UNL     1       8.423  25.441  58.123  1.00  0.00    -0.272 OA
HETATM   12  H   UNL     1       6.691  27.208  56.111  1.00  0.00     0.192 HD
BRANCH  10  13
HETATM   13  C   UNL     1       6.493  24.798  56.857  1.00  0.00     0.105 C 
BRANCH  13  14
HETATM   14  C   UNL     1       6.759  24.130  55.508  1.00  0.00     0.014 C 
BRANCH  14  15
HETATM   15  C   UNL     1       8.180  23.551  55.319  1.00  0.00    -0.014 C 
HETATM   16  C   UNL     1       8.458  22.294  56.162  1.00  0.00     0.004 C 
HETATM   17  C   UNL     1       7.679  21.070  55.683  1.00  0.00     0.000 C 
HETATM   18  C   UNL     1       7.932  20.787  54.206  1.00  0.00     0.000 C 
HETATM   19  C   UNL     1       7.677  22.013  53.333  1.00  0.00     0.000 C 
HETATM   20  C   UNL     1       8.445  23.235  53.834  1.00  0.00     0.004 C 
ENDBRANCH  14  15
ENDBRANCH  13  14
ENDBRANCH  10  13
ENDBRANCH   8   9
ENDBRANCH   6   7
BRANCH   1  21
HETATM   21  C   UNL     1       7.786  31.598  59.487  1.00  0.00    -0.002 A 
HETATM   22  C   UNL     1       7.881  31.575  60.887  1.00  0.00     0.053 A 
HETATM   23  C   UNL     1       6.801  31.962  61.692  1.00  0.00     0.102 A 
HETATM   24  C   UNL     1       5.606  32.399  61.089  1.00  0.00     0.101 A 
HETATM   25  C   UNL     1       5.505  32.411  59.695  1.00  0.00     0.040 A 
HETATM   26  C   UNL     1       6.583  32.004  58.901  1.00  0.00     0.017 A 
BRANCH  23  27
HETATM   27  O   UNL     1       6.822  31.960  63.065  1.00  0.00    -0.353 OA
HETATM   28  C   UNL     1       7.811  32.755  63.703  1.00  0.00     0.210 C 
ENDBRANCH  23  27
BRANCH  24  29
HETATM   29  O   UNL     1       4.598  32.770  61.945  1.00  0.00    -0.353 OA
HETATM   30  C   UNL     1       4.294  34.153  62.047  1.00  0.00     0.210 C 
ENDBRANCH  24  29
ENDBRANCH   1  21
TORSDOF 8
ENDMDL
MODEL 4
REMARK VINA RESULT:      -8.8      2.812     10.056
REMARK  8 active torsions:
REMARK  status: ('A' for Active; 'I' for Inactive)
REMARK    1  A    between atoms: O_2  and  C_3 
REMARK    2  A    between atoms: C_4  and  O_5 
REMARK    3  A    between atoms: C_8  and  C_9 
REMARK    4  A    between atoms: C_14  and  C_15 
REMARK    5  A    between atoms: N_16  and  N_17 
REMARK       I    between atoms: N_17  and  C_18 
REMARK    6  A    between atoms: C_18  and  C_19 
REMARK    7  A    between atoms: C_19  and  C_20 
REMARK    8  A    between atoms: C_20  and  C_21 
ROOT
HETATM    1  C   UNL     1       5.831  25.673  53.690  1.00  0.00     0.100 A 
HETATM    2  N   UNL     1       4.920  25.311  52.768  1.00  0.00    -0.174 NA
HETATM    3  N   UNL     1       4.290  26.446  52.445  1.00  0.00    -0.288 N 
HETATM    4  H   UNL     1       3.543  26.401  51.760  1.00  0.00     0.188 HD
HETATM    5  C   UNL     1       4.761  27.534  53.103  1.00  0.00     0.124 A 
HETATM    6  C   UNL     1       5.784  27.087  53.916  1.00  0.00     0.031 A 
ENDROOT
BRANCH   6   7
HETATM    7  C   UNL     1       6.602  27.914  54.778  1.00  0.00     0.154 C 
HETATM    8  N   UNL     1       6.162  28.191  55.966  1.00  0.00    -0.184 NA
BRANCH   8   9
HETATM    9  N   UNL     1       6.928  28.972  56.795  1.00  0.00    -0.247 N 
HETATM   10  C   UNL     1       7.999  28.539  57.564  1.00  0.00     0.237 C 
HETATM   11  O   UNL     1       8.408  27.383  57.643  1.00  0.00    -0.272 OA
HETATM   12  H   UNL     1       6.859  29.964  56.588  1.00  0.00     0.192 HD
BRANCH  10  13
HETATM   13  C   UNL     1       8.664  29.662  58.337  1.00  0.00     0.105 C 
BRANCH  13  14
HETATM   14  C   UNL     1       7.676  30.453  59.193  1.00  0.00     0.014 C 
BRANCH  14  15
HETATM   15  C   UNL     1       8.092  31.906  59.522  1.00  0.00    -0.014 C 
HETATM   16  C   UNL     1       7.109  32.640  60.451  1.00  0.00     0.004 C 
HETATM   17  C   UNL     1       7.122  32.099  61.880  1.00  0.00     0.000 C 
HETATM   18  C   UNL     1       8.528  32.115  62.473  1.00  0.00     0.000 C 
HETATM   19  C   UNL     1       9.538  31.405  61.576  1.00  0.00     0.000 C 
HETATM   20  C   UNL     1       9.501  31.940  60.145  1.00  0.00     0.004 C 
ENDBRANCH  14  15
ENDBRANCH  13  14
ENDBRANCH  10  13
ENDBRANCH   8   9
ENDBRANCH   6   7
BRANCH   1  21
HETATM   21  C   UNL     1       6.685  24.651  54.307  1.00  0.00    -0.002 A 
HETATM   22  C   UNL     1       7.332  23.703  53.500  1.00  0.00     0.053 A 
HETATM   23  C   UNL     1       8.129  22.697  54.062  1.00  0.00     0.102 A 
HETATM   24  C   UNL     1       8.298  22.642  55.458  1.00  0.00     0.101 A 
HETATM   25  C   UNL     1       7.644  23.577  56.266  1.00  0.00     0.040 A 
HETATM   26  C   UNL     1       6.835  24.567  55.695  1.00  0.00     0.017 A 
BRANCH  23  27
HETATM   27  O   UNL     1       8.786  21.735  53.334  1.00  0.00    -0.353 OA
HETATM   28  C   UNL     1       8.025  20.623  52.887  1.00  0.00     0.210 C 
ENDBRANCH  23  27
BRANCH  24  29
HETATM   29  O   UNL     1       9.099  21.633  55.932  1.00  0.00    -0.353 OA
HETATM   30  C   UNL     1       8.486  20.607  56.698  1.00  0.00     0.210 C 
ENDBRANCH  24  29
ENDBRANCH   1  21
TORSDOF 8
ENDMDL
MODEL 5
REMARK VINA RESULT:      -8.5      1.671      2.797
REMARK  8 active torsions:
REMARK  status: ('A' for Active; 'I' for Inactive)
REMARK    1  A    between atoms: O_2  and  C_3 
REMARK    2  A    between atoms: C_4  and  O_5 
REMARK    3  A    between atoms: C_8  and  C_9 
REMARK    4  A    between atoms: C_14  and  C_15 
REMARK    5  A    between atoms: N_16  and  N_17 
REMARK       I    between atoms: N_17  and  C_18 
REMARK    6  A    between atoms: C_18  and  C_19 
REMARK    7  A    between atoms: C_19  and  C_20 
REMARK    8  A    between atoms: C_20  and  C_21 
ROOT
HETATM    1  C   UNL     1       8.734  31.418  59.010  1.00  0.00     0.100 A 
HETATM    2  N   UNL     1       9.823  32.208  58.962  1.00  0.00    -0.174 NA
HETATM    3  N   UNL     1      10.685  31.554  58.176  1.00  0.00    -0.288 N 
HETATM    4  H   UNL     1      11.593  31.972  58.007  1.00  0.00     0.188 HD
HETATM    5  C   UNL     1      10.199  30.381  57.695  1.00  0.00     0.124 A 
HETATM    6  C   UNL     1       8.918  30.254  58.196  1.00  0.00     0.031 A 
ENDROOT
BRANCH   6   7
HETATM    7  C   UNL     1       8.005  29.167  57.915  1.00  0.00     0.154 C 
HETATM    8  N   UNL     1       8.073  28.589  56.756  1.00  0.00    -0.184 NA
BRANCH   8   9
HETATM    9  N   UNL     1       7.214  27.554  56.477  1.00  0.00    -0.247 N 
HETATM   10  C   UNL     1       7.267  26.280  57.025  1.00  0.00     0.237 C 
HETATM   11  O   UNL     1       8.107  25.874  57.823  1.00  0.00    -0.272 OA
HETATM   12  H   UNL     1       6.339  27.860  56.063  1.00  0.00     0.192 HD
BRANCH  10  13
HETATM   13  C   UNL     1       6.144  25.382  56.541  1.00  0.00     0.105 C 
BRANCH  13  14
HETATM   14  C   UNL     1       5.678  25.732  55.128  1.00  0.00     0.014 C 
BRANCH  14  15
HETATM   15  C   UNL     1       5.590  24.545  54.141  1.00  0.00    -0.014 C 
HETATM   16  C   UNL     1       5.205  24.953  52.708  1.00  0.00     0.004 C 
HETATM   17  C   UNL     1       6.311  25.727  51.991  1.00  0.00     0.000 C 
HETATM   18  C   UNL     1       7.626  24.953  51.990  1.00  0.00     0.000 C 
HETATM   19  C   UNL     1       8.039  24.519  53.393  1.00  0.00     0.000 C 
HETATM   20  C   UNL     1       6.919  23.765  54.108  1.00  0.00     0.004 C 
ENDBRANCH  14  15
ENDBRANCH  13  14
ENDBRANCH  10  13
ENDBRANCH   8   9
ENDBRANCH   6   7
BRANCH   1  21
HETATM   21  C   UNL     1       7.587  31.814  59.836  1.00  0.00    -0.002 A 
HETATM   22  C   UNL     1       7.694  31.790  61.235  1.00  0.00     0.053 A 
HETATM   23  C   UNL     1       6.607  32.133  62.050  1.00  0.00     0.102 A 
HETATM   24  C   UNL     1       5.391  32.524  61.459  1.00  0.00     0.101 A 
HETATM   25  C   UNL     1       5.278  32.538  60.066  1.00  0.00     0.040 A 
HETATM   26  C   UNL     1       6.364  32.176  59.261  1.00  0.00     0.017 A 
BRANCH  23  27
HETATM   27  O   UNL     1       6.639  32.126  63.424  1.00  0.00    -0.353 OA
HETATM   28  C   UNL     1       7.545  33.016  64.058  1.00  0.00     0.210 C 
ENDBRANCH  23  27
BRANCH  24  29
HETATM   29  O   UNL     1       4.376  32.853  62.325  1.00  0.00    -0.353 OA
HETATM   30  C   UNL     1       4.099  34.231  62.524  1.00  0.00     0.210 C 
ENDBRANCH  24  29
ENDBRANCH   1  21
TORSDOF 8
ENDMDL
MODEL 6
REMARK VINA RESULT:      -8.4      2.888      9.608
REMARK  8 active torsions:
REMARK  status: ('A' for Active; 'I' for Inactive)
REMARK    1  A    between atoms: O_2  and  C_3 
REMARK    2  A    between atoms: C_4  and  O_5 
REMARK    3  A    between atoms: C_8  and  C_9 
REMARK    4  A    between atoms: C_14  and  C_15 
REMARK    5  A    between atoms: N_16  and  N_17 
REMARK       I    between atoms: N_17  and  C_18 
REMARK    6  A    between atoms: C_18  and  C_19 
REMARK    7  A    between atoms: C_19  and  C_20 
REMARK    8  A    between atoms: C_20  and  C_21 
ROOT
HETATM    1  C   UNL     1       7.692  24.450  55.502  1.00  0.00     0.100 A 
HETATM    2  N   UNL     1       7.841  23.126  55.693  1.00  0.00    -0.174 NA
HETATM    3  N   UNL     1       8.478  23.018  56.864  1.00  0.00    -0.288 N 
HETATM    4  H   UNL     1       8.705  22.089  57.203  1.00  0.00     0.188 HD
HETATM    5  C   UNL     1       8.736  24.213  57.453  1.00  0.00     0.124 A 
HETATM    6  C   UNL     1       8.225  25.182  56.613  1.00  0.00     0.031 A 
ENDROOT
BRANCH   6   7
HETATM    7  C   UNL     1       8.242  26.608  56.858  1.00  0.00     0.154 C 
HETATM    8  N   UNL     1       7.560  27.070  57.859  1.00  0.00    -0.184 NA
BRANCH   8   9
HETATM    9  N   UNL     1       7.569  28.421  58.105  1.00  0.00    -0.247 N 
HETATM   10  C   UNL     1       6.642  29.342  57.635  1.00  0.00     0.237 C 
HETATM   11  O   UNL     1       5.687  29.093  56.904  1.00  0.00    -0.272 OA
HETATM   12  H   UNL     1       8.133  28.679  58.909  1.00  0.00     0.192 HD
BRANCH  10  13
HETATM   13  C   UNL     1       6.911  30.752  58.124  1.00  0.00     0.105 C 
BRANCH  13  14
HETATM   14  C   UNL     1       7.858  30.788  59.323  1.00  0.00     0.014 C 
BRANCH  14  15
HETATM   15  C   UNL     1       8.108  32.187  59.934  1.00  0.00    -0.014 C 
HETATM   16  C   UNL     1       6.972  32.679  60.848  1.00  0.00     0.004 C 
HETATM   17  C   UNL     1       6.881  31.902  62.160  1.00  0.00     0.000 C 
HETATM   18  C   UNL     1       8.210  31.911  62.910  1.00  0.00     0.000 C 
HETATM   19  C   UNL     1       9.367  31.438  62.035  1.00  0.00     0.000 C 
HETATM   20  C   UNL     1       9.435  32.209  60.718  1.00  0.00     0.004 C 
ENDBRANCH  14  15
ENDBRANCH  13  14
ENDBRANCH  10  13
ENDBRANCH   8   9
ENDBRANCH   6   7
BRANCH   1  21
HETATM   21  C   UNL     1       7.061  24.939  54.271  1.00  0.00    -0.002 A 
HETATM   22  C   UNL     1       5.859  25.660  54.342  1.00  0.00     0.053 A 
HETATM   23  C   UNL     1       5.216  26.113  53.183  1.00  0.00     0.102 A 
HETATM   24  C   UNL     1       5.792  25.857  51.924  1.00  0.00     0.101 A 
HETATM   25  C   UNL     1       6.982  25.128  51.849  1.00  0.00     0.040 A 
HETATM   26  C   UNL     1       7.606  24.664  53.012  1.00  0.00     0.017 A 
BRANCH  23  27
HETATM   27  O   UNL     1       4.038  26.818  53.178  1.00  0.00    -0.353 OA
HETATM   28  C   UNL     1       4.047  28.106  53.778  1.00  0.00     0.210 C 
ENDBRANCH  23  27
BRANCH  24  29
HETATM   29  O   UNL     1       5.107  26.340  50.836  1.00  0.00    -0.353 OA
HETATM   30  C   UNL     1       5.501  27.601  50.315  1.00  0.00     0.210 C 
ENDBRANCH  24  29
ENDBRANCH   1  21
TORSDOF 8
ENDMDL
MODEL 7
REMARK VINA RESULT:      -8.3      1.464      1.978
REMARK  8 active torsions:
REMARK  status: ('A' for Active; 'I' for Inactive)
REMARK    1  A    between atoms: O_2  and  C_3 
REMARK    2  A    between atoms: C_4  and  O_5 
REMARK    3  A    between atoms: C_8  and  C_9 
REMARK    4  A    between atoms: C_14  and  C_15 
REMARK    5  A    between atoms: N_16  and  N_17 
REMARK       I    between atoms: N_17  and  C_18 
REMARK    6  A    between atoms: C_18  and  C_19 
REMARK    7  A    between atoms: C_19  and  C_20 
REMARK    8  A    between atoms: C_20  and  C_21 
ROOT
HETATM    1  C   UNL     1       8.523  31.108  58.540  1.00  0.00     0.100 A 
HETATM    2  N   UNL     1       9.542  31.986  58.525  1.00  0.00    -0.174 NA
HETATM    3  N   UNL     1      10.580  31.298  58.037  1.00  0.00    -0.288 N 
HETATM    4  H   UNL     1      11.471  31.773  57.947  1.00  0.00     0.188 HD
HETATM    5  C   UNL     1      10.278  30.014  57.717  1.00  0.00     0.124 A 
HETATM    6  C   UNL     1       8.939  29.844  58.009  1.00  0.00     0.031 A 
ENDROOT
BRANCH   6   7
HETATM    7  C   UNL     1       8.174  28.634  57.793  1.00  0.00     0.154 C 
HETATM    8  N   UNL     1       7.921  28.274  56.573  1.00  0.00    -0.184 NA
BRANCH   8   9
HETATM    9  N   UNL     1       7.199  27.127  56.354  1.00  0.00    -0.247 N 
HETATM   10  C   UNL     1       6.526  26.798  55.184  1.00  0.00     0.237 C 
HETATM   11  O   UNL     1       6.450  27.496  54.177  1.00  0.00    -0.272 OA
HETATM   12  H   UNL     1       7.430  26.377  56.998  1.00  0.00     0.192 HD
BRANCH  10  13
HETATM   13  C   UNL     1       5.861  25.436  55.249  1.00  0.00     0.105 C 
BRANCH  13  14
HETATM   14  C   UNL     1       6.339  24.495  54.144  1.00  0.00     0.014 C 
BRANCH  14  15
HETATM   15  C   UNL     1       7.840  24.126  54.186  1.00  0.00    -0.014 C 
HETATM   16  C   UNL     1       8.276  23.437  55.491  1.00  0.00     0.004 C 
HETATM   17  C   UNL     1       7.719  22.022  55.635  1.00  0.00     0.000 C 
HETATM   18  C   UNL     1       8.074  21.155  54.431  1.00  0.00     0.000 C 
HETATM   19  C   UNL     1       7.667  21.807  53.113  1.00  0.00     0.000 C 
HETATM   20  C   UNL     1       8.213  23.229  52.989  1.00  0.00     0.004 C 
ENDBRANCH  14  15
ENDBRANCH  13  14
ENDBRANCH  10  13
ENDBRANCH   8   9
ENDBRANCH   6   7
BRANCH   1  21
HETATM   21  C   UNL     1       7.217  31.520  59.068  1.00  0.00    -0.002 A 
HETATM   22  C   UNL     1       6.084  31.473  58.241  1.00  0.00     0.053 A 
HETATM   23  C   UNL     1       4.830  31.890  58.707  1.00  0.00     0.102 A 
HETATM   24  C   UNL     1       4.698  32.349  60.032  1.00  0.00     0.101 A 
HETATM   25  C   UNL     1       5.827  32.409  60.853  1.00  0.00     0.040 A 
HETATM   26  C   UNL     1       7.078  32.008  60.372  1.00  0.00     0.017 A 
BRANCH  23  27
HETATM   27  O   UNL     1       3.682  31.876  57.953  1.00  0.00    -0.353 OA
HETATM   28  C   UNL     1       3.347  30.660  57.300  1.00  0.00     0.210 C 
ENDBRANCH  23  27
BRANCH  24  29
HETATM   29  O   UNL     1       3.436  32.731  60.416  1.00  0.00    -0.353 OA
HETATM   30  C   UNL     1       3.199  34.115  60.622  1.00  0.00     0.210 C 
ENDBRANCH  24  29
ENDBRANCH   1  21
TORSDOF 8
ENDMDL
MODEL 8
REMARK VINA RESULT:      -8.2      1.872      3.214
REMARK  8 active torsions:
REMARK  status: ('A' for Active; 'I' for Inactive)
REMARK    1  A    between atoms: O_2  and  C_3 
REMARK    2  A    between atoms: C_4  and  O_5 
REMARK    3  A    between atoms: C_8  and  C_9 
REMARK    4  A    between atoms: C_14  and  C_15 
REMARK    5  A    between atoms: N_16  and  N_17 
REMARK       I    between atoms: N_17  and  C_18 
REMARK    6  A    between atoms: C_18  and  C_19 
REMARK    7  A    between atoms: C_19  and  C_20 
REMARK    8  A    between atoms: C_20  and  C_21 
ROOT
HETATM    1  C   UNL     1       7.418  31.872  60.685  1.00  0.00     0.100 A 
HETATM    2  N   UNL     1       8.201  32.397  61.645  1.00  0.00    -0.174 NA
HETATM    3  N   UNL     1       9.346  31.709  61.566  1.00  0.00    -0.288 N 
HETATM    4  H   UNL     1      10.089  31.937  62.218  1.00  0.00     0.188 HD
HETATM    5  C   UNL     1       9.349  30.770  60.586  1.00  0.00     0.124 A 
HETATM    6  C   UNL     1       8.117  30.849  59.966  1.00  0.00     0.031 A 
ENDROOT
BRANCH   6   7
HETATM    7  C   UNL     1       7.688  30.054  58.834  1.00  0.00     0.154 C 
HETATM    8  N   UNL     1       8.500  29.157  58.368  1.00  0.00    -0.184 NA
BRANCH   8   9
HETATM    9  N   UNL     1       8.105  28.395  57.297  1.00  0.00    -0.247 N 
HETATM   10  C   UNL     1       7.754  27.052  57.336  1.00  0.00     0.237 C 
HETATM   11  O   UNL     1       7.771  26.333  58.332  1.00  0.00    -0.272 OA
HETATM   12  H   UNL     1       7.790  28.948  56.505  1.00  0.00     0.192 HD
BRANCH  10  13
HETATM   13  C   UNL     1       7.321  26.515  55.985  1.00  0.00     0.105 C 
BRANCH  13  14
HETATM   14  C   UNL     1       7.928  25.147  55.674  1.00  0.00     0.014 C 
BRANCH  14  15
HETATM   15  C   UNL     1       6.925  24.058  55.227  1.00  0.00    -0.014 C 
HETATM   16  C   UNL     1       6.541  24.139  53.739  1.00  0.00     0.004 C 
HETATM   17  C   UNL     1       7.686  23.752  52.805  1.00  0.00     0.000 C 
HETATM   18  C   UNL     1       8.238  22.369  53.138  1.00  0.00     0.000 C 
HETATM   19  C   UNL     1       8.623  22.243  54.609  1.00  0.00     0.000 C 
HETATM   20  C   UNL     1       7.477  22.652  55.533  1.00  0.00     0.004 C 
ENDBRANCH  14  15
ENDBRANCH  13  14
ENDBRANCH  10  13
ENDBRANCH   8   9
ENDBRANCH   6   7
BRANCH   1  21
HETATM   21  C   UNL     1       6.047  32.369  60.515  1.00  0.00    -0.002 A 
HETATM   22  C   UNL     1       5.211  32.503  61.634  1.00  0.00     0.053 A 
HETATM   23  C   UNL     1       3.888  32.945  61.500  1.00  0.00     0.102 A 
HETATM   24  C   UNL     1       3.391  33.278  60.226  1.00  0.00     0.101 A 
HETATM   25  C   UNL     1       4.218  33.134  59.108  1.00  0.00     0.040 A 
HETATM   26  C   UNL     1       5.532  32.673  59.250  1.00  0.00     0.017 A 
BRANCH  23  27
HETATM   27  O   UNL     1       3.014  33.095  62.549  1.00  0.00    -0.353 OA
HETATM   28  C   UNL     1       3.348  34.051  63.545  1.00  0.00     0.210 C 
ENDBRANCH  23  27
BRANCH  24  29
HETATM   29  O   UNL     1       2.089  33.711  60.178  1.00  0.00    -0.353 OA
HETATM   30  C   UNL     1       1.862  35.097  59.972  1.00  0.00     0.210 C 
ENDBRANCH  24  29
ENDBRANCH   1  21
TORSDOF 8
ENDMDL
MODEL 9
REMARK VINA RESULT:      -8.1      5.952      9.874
REMARK  8 active torsions:
REMARK  status: ('A' for Active; 'I' for Inactive)
REMARK    1  A    between atoms: O_2  and  C_3 
REMARK    2  A    between atoms: C_4  and  O_5 
REMARK    3  A    between atoms: C_8  and  C_9 
REMARK    4  A    between atoms: C_14  and  C_15 
REMARK    5  A    between atoms: N_16  and  N_17 
REMARK       I    between atoms: N_17  and  C_18 
REMARK    6  A    between atoms: C_18  and  C_19 
REMARK    7  A    between atoms: C_19  and  C_20 
REMARK    8  A    between atoms: C_20  and  C_21 
ROOT
HETATM    1  C   UNL     1       5.716  25.652  55.555  1.00  0.00     0.100 A 
HETATM    2  N   UNL     1       5.150  25.479  56.763  1.00  0.00    -0.174 NA
HETATM    3  N   UNL     1       4.528  26.636  57.018  1.00  0.00    -0.288 N 
HETATM    4  H   UNL     1       4.034  26.731  57.899  1.00  0.00     0.188 HD
HETATM    5  C   UNL     1       4.649  27.548  56.021  1.00  0.00     0.124 A 
HETATM    6  C   UNL     1       5.401  26.948  55.031  1.00  0.00     0.031 A 
ENDROOT
BRANCH   6   7
HETATM    7  C   UNL     1       5.753  27.543  53.759  1.00  0.00     0.154 C 
HETATM    8  N   UNL     1       4.944  28.413  53.240  1.00  0.00    -0.184 NA
BRANCH   8   9
HETATM    9  N   UNL     1       5.266  28.986  52.035  1.00  0.00    -0.247 N 
HETATM   10  C   UNL     1       4.754  30.177  51.536  1.00  0.00     0.237 C 
HETATM   11  O   UNL     1       3.914  30.885  52.084  1.00  0.00    -0.272 OA
HETATM   12  H   UNL     1       6.138  28.641  51.647  1.00  0.00     0.192 HD
BRANCH  10  13
HETATM   13  C   UNL     1       5.349  30.558  50.193  1.00  0.00     0.105 C 
BRANCH  13  14
HETATM   14  C   UNL     1       5.744  29.340  49.358  1.00  0.00     0.014 C 
BRANCH  14  15
HETATM   15  C   UNL     1       4.961  29.155  48.037  1.00  0.00    -0.014 C 
HETATM   16  C   UNL     1       5.269  27.834  47.311  1.00  0.00     0.004 C 
HETATM   17  C   UNL     1       4.721  26.609  48.041  1.00  0.00     0.000 C 
HETATM   18  C   UNL     1       3.223  26.736  48.303  1.00  0.00     0.000 C 
HETATM   19  C   UNL     1       2.872  28.040  49.014  1.00  0.00     0.000 C 
HETATM   20  C   UNL     1       3.443  29.256  48.286  1.00  0.00     0.004 C 
ENDBRANCH  14  15
ENDBRANCH  13  14
ENDBRANCH  10  13
ENDBRANCH   8   9
ENDBRANCH   6   7
BRANCH   1  21
HETATM   21  C   UNL     1       6.531  24.578  54.975  1.00  0.00    -0.002 A 
HETATM   22  C   UNL     1       7.347  23.795  55.807  1.00  0.00     0.053 A 
HETATM   23  C   UNL     1       8.160  22.783  55.279  1.00  0.00     0.102 A 
HETATM   24  C   UNL     1       8.147  22.532  53.894  1.00  0.00     0.101 A 
HETATM   25  C   UNL     1       7.345  23.318  53.062  1.00  0.00     0.040 A 
HETATM   26  C   UNL     1       6.551  24.339  53.597  1.00  0.00     0.017 A 
BRANCH  23  27
HETATM   27  O   UNL     1       8.985  21.984  56.032  1.00  0.00    -0.353 OA
HETATM   28  C   UNL     1       8.376  20.946  56.786  1.00  0.00     0.210 C 
ENDBRANCH  23  27
BRANCH  24  29
HETATM   29  O   UNL     1       8.963  21.519  53.455  1.00  0.00    -0.353 OA
HETATM   30  C   UNL     1       8.347  20.380  52.873  1.00  0.00     0.210 C 
ENDBRANCH  24  29
ENDBRANCH   1  21
TORSDOF 8
ENDMDL
MODEL 10
REMARK VINA RESULT:      -8.0      1.821      2.626
REMARK  8 active torsions:
REMARK  status: ('A' for Active; 'I' for Inactive)
REMARK    1  A    between atoms: O_2  and  C_3 
REMARK    2  A    between atoms: C_4  and  O_5 
REMARK    3  A    between atoms: C_8  and  C_9 
REMARK    4  A    between atoms: C_14  and  C_15 
REMARK    5  A    between atoms: N_16  and  N_17 
REMARK       I    between atoms: N_17  and  C_18 
REMARK    6  A    between atoms: C_18  and  C_19 
REMARK    7  A    between atoms: C_19  and  C_20 
REMARK    8  A    between atoms: C_20  and  C_21 
ROOT
HETATM    1  C   UNL     1       8.870  31.365  58.572  1.00  0.00     0.100 A 
HETATM    2  N   UNL     1       9.947  32.134  58.818  1.00  0.00    -0.174 NA
HETATM    3  N   UNL     1      10.944  31.550  58.144  1.00  0.00    -0.288 N 
HETATM    4  H   UNL     1      11.868  31.966  58.198  1.00  0.00     0.188 HD
HETATM    5  C   UNL     1      10.561  30.444  57.456  1.00  0.00     0.124 A 
HETATM    6  C   UNL     1       9.208  30.291  57.687  1.00  0.00     0.031 A 
ENDROOT
BRANCH   6   7
HETATM    7  C   UNL     1       8.366  29.257  57.121  1.00  0.00     0.154 C 
HETATM    8  N   UNL     1       8.072  28.231  57.857  1.00  0.00    -0.184 NA
BRANCH   8   9
HETATM    9  N   UNL     1       7.272  27.245  57.334  1.00  0.00    -0.247 N 
HETATM   10  C   UNL     1       7.498  25.878  57.426  1.00  0.00     0.237 C 
HETATM   11  O   UNL     1       8.463  25.342  57.965  1.00  0.00    -0.272 OA
HETATM   12  H   UNL     1       6.330  27.560  57.126  1.00  0.00     0.192 HD
BRANCH  10  13
HETATM   13  C   UNL     1       6.401  25.054  56.780  1.00  0.00     0.105 C 
BRANCH  13  14
HETATM   14  C   UNL     1       6.057  25.533  55.370  1.00  0.00     0.014 C 
BRANCH  14  15
HETATM   15  C   UNL     1       5.770  24.418  54.337  1.00  0.00    -0.014 C 
HETATM   16  C   UNL     1       5.237  24.939  52.991  1.00  0.00     0.004 C 
HETATM   17  C   UNL     1       6.291  25.693  52.183  1.00  0.00     0.000 C 
HETATM   18  C   UNL     1       7.544  24.848  51.968  1.00  0.00     0.000 C 
HETATM   19  C   UNL     1       8.101  24.303  53.280  1.00  0.00     0.000 C 
HETATM   20  C   UNL     1       7.032  23.569  54.089  1.00  0.00     0.004 C 
ENDBRANCH  14  15
ENDBRANCH  13  14
ENDBRANCH  10  13
ENDBRANCH   8   9
ENDBRANCH   6   7
BRANCH   1  21
HETATM   21  C   UNL     1       7.585  31.694  59.202  1.00  0.00    -0.002 A 
HETATM   22  C   UNL     1       6.398  31.584  58.462  1.00  0.00     0.053 A 
HETATM   23  C   UNL     1       5.160  31.921  59.026  1.00  0.00     0.102 A 
HETATM   24  C   UNL     1       5.101  32.361  60.362  1.00  0.00     0.101 A 
HETATM   25  C   UNL     1       6.284  32.484  61.097  1.00  0.00     0.040 A 
HETATM   26  C   UNL     1       7.517  32.163  60.518  1.00  0.00     0.017 A 
BRANCH  23  27
HETATM   27  O   UNL     1       3.961  31.843  58.361  1.00  0.00    -0.353 OA
HETATM   28  C   UNL     1       3.833  30.838  57.365  1.00  0.00     0.210 C 
ENDBRANCH  23  27
BRANCH  24  29
HETATM   29  O   UNL     1       3.851  32.663  60.845  1.00  0.00    -0.353 OA
HETATM   30  C   UNL     1       3.640  33.969  61.360  1.00  0.00     0.210 C 
ENDBRANCH  24  29
ENDBRANCH   1  21
TORSDOF 8
ENDMDL
