MODEL 1
REMARK VINA RESULT:     -10.5      0.000      0.000
REMARK  5 active torsions:
REMARK  status: ('A' for Active; 'I' for Inactive)
REMARK    1  A    between atoms: C_2  and  O_3 
REMARK    2  A    between atoms: O_3  and  C_4 
REMARK    3  A    between atoms: C_7  and  C_8 
REMARK       I    between atoms: N_11  and  C_12 
REMARK    4  A    between atoms: C_12  and  C_13 
REMARK    5  A    between atoms: C_15  and  C_16 
ROOT
HETATM    1  C   UNL     1       7.180  27.672  56.849  1.00  0.00    -0.049 C 
HETATM    2  C   UNL     1       6.149  28.667  56.371  1.00  0.00     0.059 C 
HETATM    3  C   UNL     1       6.554  30.108  56.666  1.00  0.00     0.131 C 
HETATM    4  N   UNL     1       7.037  30.272  58.035  1.00  0.00    -0.344 N 
HETATM    5  C   UNL     1       6.812  31.523  58.620  1.00  0.00     0.254 C 
HETATM    6  O   UNL     1       6.129  32.401  58.097  1.00  0.00    -0.267 OA
HETATM    7  C   UNL     1       8.147  29.407  58.427  1.00  0.00     0.154 C 
HETATM    8  C   UNL     1       8.071  28.046  57.788  1.00  0.00     0.001 C 
ENDROOT
BRANCH   5   9
HETATM    9  C   UNL     1       7.434  31.850  59.921  1.00  0.00     0.033 A 
HETATM   10  C   UNL     1       6.594  32.218  60.979  1.00  0.00     0.032 A 
HETATM   11  C   UNL     1       7.124  32.475  62.250  1.00  0.00     0.014 A 
HETATM   12  C   UNL     1       8.509  32.356  62.440  1.00  0.00     0.015 A 
HETATM   13  C   UNL     1       9.346  31.967  61.390  1.00  0.00     0.002 A 
HETATM   14  C   UNL     1       8.808  31.698  60.131  1.00  0.00     0.017 A 
BRANCH  11  15
HETATM   15  C   UNL     1       6.250  32.836  63.364  1.00  0.00     0.181 A 
HETATM   16  N   UNL     1       4.940  32.550  63.414  1.00  0.00    -0.152 NA
HETATM   17  N   UNL     1       4.589  33.036  64.611  1.00  0.00    -0.263 N 
HETATM   18  H   UNL     1       3.630  32.941  64.923  1.00  0.00     0.190 HD
HETATM   19  C   UNL     1       5.650  33.608  65.249  1.00  0.00     0.118 A 
HETATM   20  C   UNL     1       5.552  34.231  66.584  1.00  0.00     0.093 C 
HETATM   21  N   UNL     1       6.711  33.504  64.480  1.00  0.00    -0.212 NA
ENDBRANCH  11  15
ENDBRANCH   5   9
BRANCH   1  22
HETATM   22  C   UNL     1       7.155  26.307  56.259  1.00  0.00    -0.030 A 
HETATM   23  C   UNL     1       6.414  26.038  55.097  1.00  0.00     0.014 A 
HETATM   24  C   UNL     1       6.423  24.770  54.497  1.00  0.00     0.037 A 
HETATM   25  C   UNL     1       7.174  23.738  55.052  1.00  0.00     0.068 A 
HETATM   26  C   UNL     1       7.902  23.984  56.215  1.00  0.00     0.037 A 
HETATM   27  C   UNL     1       7.901  25.254  56.806  1.00  0.00     0.014 A 
BRANCH  25  28
HETATM   28  O   UNL     1       7.273  22.464  54.566  1.00  0.00    -0.352 OA
BRANCH  28  29
HETATM   29  C   UNL     1       7.993  22.295  53.346  1.00  0.00     0.171 C 
HETATM   30  C   UNL     1       8.056  20.808  53.041  1.00  0.00     0.034 C 
ENDBRANCH  28  29
ENDBRANCH  25  28
ENDBRANCH   1  22
TORSDOF 5
ENDMDL
MODEL 2
REMARK VINA RESULT:     -10.3      3.240     10.565
REMARK  5 active torsions:
REMARK  status: ('A' for Active; 'I' for Inactive)
REMARK    1  A    between atoms: C_2  and  O_3 
REMARK    2  A    between atoms: O_3  and  C_4 
REMARK    3  A    between atoms: C_7  and  C_8 
REMARK       I    between atoms: N_11  and  C_12 
REMARK    4  A    between atoms: C_12  and  C_13 
REMARK    5  A    between atoms: C_15  and  C_16 
ROOT
HETATM    1  C   UNL     1       7.911  32.073  60.837  1.00  0.00    -0.049 C 
HETATM    2  C   UNL     1       9.399  31.908  60.641  1.00  0.00     0.059 C 
HETATM    3  C   UNL     1       9.765  31.632  59.185  1.00  0.00     0.131 C 
HETATM    4  N   UNL     1       8.908  30.610  58.591  1.00  0.00    -0.344 N 
HETATM    5  C   UNL     1       9.493  29.823  57.591  1.00  0.00     0.254 C 
HETATM    6  O   UNL     1      10.689  29.867  57.310  1.00  0.00    -0.267 OA
HETATM    7  C   UNL     1       7.471  30.870  58.648  1.00  0.00     0.154 C 
HETATM    8  C   UNL     1       7.065  31.585  59.909  1.00  0.00     0.001 C 
ENDROOT
BRANCH   5   9
HETATM    9  C   UNL     1       8.655  28.901  56.795  1.00  0.00     0.033 A 
HETATM   10  C   UNL     1       8.783  27.526  57.029  1.00  0.00     0.032 A 
HETATM   11  C   UNL     1       7.969  26.611  56.349  1.00  0.00     0.014 A 
HETATM   12  C   UNL     1       7.024  27.100  55.435  1.00  0.00     0.015 A 
HETATM   13  C   UNL     1       6.879  28.474  55.218  1.00  0.00     0.002 A 
HETATM   14  C   UNL     1       7.684  29.379  55.909  1.00  0.00     0.017 A 
BRANCH  11  15
HETATM   15  C   UNL     1       8.082  25.178  56.606  1.00  0.00     0.181 A 
HETATM   16  N   UNL     1       8.491  24.653  57.772  1.00  0.00    -0.152 NA
HETATM   17  N   UNL     1       8.396  23.338  57.539  1.00  0.00    -0.263 N 
HETATM   18  H   UNL     1       8.636  22.686  58.277  1.00  0.00     0.190 HD
HETATM   19  C   UNL     1       7.961  23.083  56.273  1.00  0.00     0.118 A 
HETATM   20  C   UNL     1       7.769  21.720  55.740  1.00  0.00     0.093 C 
HETATM   21  N   UNL     1       7.762  24.228  55.657  1.00  0.00    -0.212 NA
ENDBRANCH  11  15
ENDBRANCH   5   9
BRANCH   1  22
HETATM   22  C   UNL     1       7.444  32.769  62.066  1.00  0.00    -0.030 A 
HETATM   23  C   UNL     1       6.432  33.740  62.004  1.00  0.00     0.014 A 
HETATM   24  C   UNL     1       5.943  34.367  63.159  1.00  0.00     0.037 A 
HETATM   25  C   UNL     1       6.460  34.036  64.408  1.00  0.00     0.068 A 
HETATM   26  C   UNL     1       7.477  33.085  64.486  1.00  0.00     0.037 A 
HETATM   27  C   UNL     1       7.956  32.452  63.332  1.00  0.00     0.014 A 
BRANCH  25  28
HETATM   28  O   UNL     1       6.070  34.564  65.607  1.00  0.00    -0.352 OA
BRANCH  28  29
HETATM   29  C   UNL     1       4.859  34.060  66.169  1.00  0.00     0.171 C 
HETATM   30  C   UNL     1       3.887  35.220  66.305  1.00  0.00     0.034 C 
ENDBRANCH  28  29
ENDBRANCH  25  28
ENDBRANCH   1  22
TORSDOF 5
ENDMDL
MODEL 3
REMARK VINA RESULT:     -10.1      1.999      2.482
REMARK  5 active torsions:
REMARK  status: ('A' for Active; 'I' for Inactive)
REMARK    1  A    between atoms: C_2  and  O_3 
REMARK    2  A    between atoms: O_3  and  C_4 
REMARK    3  A    between atoms: C_7  and  C_8 
REMARK       I    between atoms: N_11  and  C_12 
REMARK    4  A    between atoms: C_12  and  C_13 
REMARK    5  A    between atoms: C_15  and  C_16 
ROOT
HETATM    1  C   UNL     1       8.153  28.192  56.572  1.00  0.00    -0.049 C 
HETATM    2  C   UNL     1       9.043  29.276  56.013  1.00  0.00     0.059 C 
HETATM    3  C   UNL     1       9.791  30.034  57.107  1.00  0.00     0.131 C 
HETATM    4  N   UNL     1       8.910  30.412  58.209  1.00  0.00    -0.344 N 
HETATM    5  C   UNL     1       9.247  31.589  58.888  1.00  0.00     0.254 C 
HETATM    6  O   UNL     1      10.134  32.354  58.515  1.00  0.00    -0.267 OA
HETATM    7  C   UNL     1       8.178  29.319  58.844  1.00  0.00     0.154 C 
HETATM    8  C   UNL     1       7.779  28.248  57.865  1.00  0.00     0.001 C 
ENDROOT
BRANCH   5   9
HETATM    9  C   UNL     1       8.539  31.949  60.135  1.00  0.00     0.033 A 
HETATM   10  C   UNL     1       7.175  32.253  60.053  1.00  0.00     0.032 A 
HETATM   11  C   UNL     1       6.440  32.538  61.212  1.00  0.00     0.014 A 
HETATM   12  C   UNL     1       7.097  32.509  62.451  1.00  0.00     0.015 A 
HETATM   13  C   UNL     1       8.455  32.182  62.536  1.00  0.00     0.002 A 
HETATM   14  C   UNL     1       9.175  31.886  61.379  1.00  0.00     0.017 A 
BRANCH  11  15
HETATM   15  C   UNL     1       5.012  32.833  61.136  1.00  0.00     0.181 A 
HETATM   16  N   UNL     1       4.188  32.324  60.206  1.00  0.00    -0.152 NA
HETATM   17  N   UNL     1       3.005  32.843  60.561  1.00  0.00    -0.263 N 
HETATM   18  H   UNL     1       2.179  32.606  60.024  1.00  0.00     0.190 HD
HETATM   19  C   UNL     1       3.120  33.647  61.656  1.00  0.00     0.118 A 
HETATM   20  C   UNL     1       1.976  34.356  62.264  1.00  0.00     0.093 C 
HETATM   21  N   UNL     1       4.379  33.666  62.035  1.00  0.00    -0.212 NA
ENDBRANCH  11  15
ENDBRANCH   5   9
BRANCH   1  22
HETATM   22  C   UNL     1       7.719  27.105  55.653  1.00  0.00    -0.030 A 
HETATM   23  C   UNL     1       7.635  27.325  54.269  1.00  0.00     0.014 A 
HETATM   24  C   UNL     1       7.280  26.297  53.383  1.00  0.00     0.037 A 
HETATM   25  C   UNL     1       6.996  25.022  53.866  1.00  0.00     0.068 A 
HETATM   26  C   UNL     1       7.059  24.793  55.239  1.00  0.00     0.037 A 
HETATM   27  C   UNL     1       7.425  25.817  56.121  1.00  0.00     0.014 A 
BRANCH  25  28
HETATM   28  O   UNL     1       6.645  23.936  53.114  1.00  0.00    -0.352 OA
BRANCH  28  29
HETATM   29  C   UNL     1       7.709  23.126  52.618  1.00  0.00     0.171 C 
HETATM   30  C   UNL     1       7.792  21.879  53.482  1.00  0.00     0.034 C 
ENDBRANCH  28  29
ENDBRANCH  25  28
ENDBRANCH   1  22
TORSDOF 5
ENDMDL
MODEL 4
REMARK VINA RESULT:      -9.5      2.418      3.437
REMARK  5 active torsions:
REMARK  status: ('A' for Active; 'I' for Inactive)
REMARK    1  A    between atoms: C_2  and  O_3 
REMARK    2  A    between atoms: O_3  and  C_4 
REMARK    3  A    between atoms: C_7  and  C_8 
REMARK       I    between atoms: N_11  and  C_12 
REMARK    4  A    between atoms: C_12  and  C_13 
REMARK    5  A    between atoms: C_15  and  C_16 
ROOT
HETATM    1  C   UNL     1       7.334  27.118  56.841  1.00  0.00    -0.049 C 
HETATM    2  C   UNL     1       8.533  27.960  57.207  1.00  0.00     0.059 C 
HETATM    3  C   UNL     1       8.177  29.085  58.175  1.00  0.00     0.131 C 
HETATM    4  N   UNL     1       6.974  29.802  57.762  1.00  0.00    -0.344 N 
HETATM    5  C   UNL     1       6.913  31.155  58.117  1.00  0.00     0.254 C 
HETATM    6  O   UNL     1       7.856  31.766  58.615  1.00  0.00    -0.267 OA
HETATM    7  C   UNL     1       5.778  28.984  57.570  1.00  0.00     0.154 C 
HETATM    8  C   UNL     1       6.096  27.620  57.019  1.00  0.00     0.001 C 
ENDROOT
BRANCH   5   9
HETATM    9  C   UNL     1       5.658  31.913  57.920  1.00  0.00     0.033 A 
HETATM   10  C   UNL     1       4.949  32.319  59.056  1.00  0.00     0.032 A 
HETATM   11  C   UNL     1       3.789  33.094  58.930  1.00  0.00     0.014 A 
HETATM   12  C   UNL     1       3.356  33.454  57.645  1.00  0.00     0.015 A 
HETATM   13  C   UNL     1       4.076  33.068  56.510  1.00  0.00     0.002 A 
HETATM   14  C   UNL     1       5.239  32.309  56.646  1.00  0.00     0.017 A 
BRANCH  11  15
HETATM   15  C   UNL     1       3.057  33.541  60.113  1.00  0.00     0.181 A 
HETATM   16  N   UNL     1       1.772  33.925  60.100  1.00  0.00    -0.152 NA
HETATM   17  N   UNL     1       1.546  34.202  61.391  1.00  0.00    -0.263 N 
HETATM   18  H   UNL     1       0.624  34.509  61.678  1.00  0.00     0.190 HD
HETATM   19  C   UNL     1       2.663  34.006  62.147  1.00  0.00     0.118 A 
HETATM   20  C   UNL     1       2.706  34.239  63.604  1.00  0.00     0.093 C 
HETATM   21  N   UNL     1       3.636  33.596  61.364  1.00  0.00    -0.212 NA
ENDBRANCH  11  15
ENDBRANCH   5   9
BRANCH   1  22
HETATM   22  C   UNL     1       7.581  25.760  56.286  1.00  0.00    -0.030 A 
HETATM   23  C   UNL     1       8.320  24.810  57.010  1.00  0.00     0.014 A 
HETATM   24  C   UNL     1       8.517  23.509  56.525  1.00  0.00     0.037 A 
HETATM   25  C   UNL     1       7.979  23.129  55.299  1.00  0.00     0.068 A 
HETATM   26  C   UNL     1       7.256  24.065  54.561  1.00  0.00     0.037 A 
HETATM   27  C   UNL     1       7.051  25.360  55.051  1.00  0.00     0.014 A 
BRANCH  25  28
HETATM   28  O   UNL     1       8.091  21.896  54.718  1.00  0.00    -0.352 OA
BRANCH  28  29
HETATM   29  C   UNL     1       7.881  21.827  53.309  1.00  0.00     0.171 C 
HETATM   30  C   UNL     1       8.372  20.473  52.827  1.00  0.00     0.034 C 
ENDBRANCH  28  29
ENDBRANCH  25  28
ENDBRANCH   1  22
TORSDOF 5
ENDMDL
MODEL 5
REMARK VINA RESULT:      -9.4      3.099     10.807
REMARK  5 active torsions:
REMARK  status: ('A' for Active; 'I' for Inactive)
REMARK    1  A    between atoms: C_2  and  O_3 
REMARK    2  A    between atoms: O_3  and  C_4 
REMARK    3  A    between atoms: C_7  and  C_8 
REMARK       I    between atoms: N_11  and  C_12 
REMARK    4  A    between atoms: C_12  and  C_13 
REMARK    5  A    between atoms: C_15  and  C_16 
ROOT
HETATM    1  C   UNL     1       7.752  31.819  60.598  1.00  0.00    -0.049 C 
HETATM    2  C   UNL     1       9.161  31.282  60.497  1.00  0.00     0.059 C 
HETATM    3  C   UNL     1       9.560  30.969  59.057  1.00  0.00     0.131 C 
HETATM    4  N   UNL     1       8.522  30.222  58.352  1.00  0.00    -0.344 N 
HETATM    5  C   UNL     1       8.966  29.345  57.355  1.00  0.00     0.254 C 
HETATM    6  O   UNL     1      10.152  29.088  57.160  1.00  0.00    -0.267 OA
HETATM    7  C   UNL     1       7.198  30.842  58.323  1.00  0.00     0.154 C 
HETATM    8  C   UNL     1       6.888  31.595  59.588  1.00  0.00     0.001 C 
ENDROOT
BRANCH   5   9
HETATM    9  C   UNL     1       7.987  28.697  56.455  1.00  0.00     0.033 A 
HETATM   10  C   UNL     1       8.114  27.321  56.226  1.00  0.00     0.032 A 
HETATM   11  C   UNL     1       7.178  26.644  55.435  1.00  0.00     0.014 A 
HETATM   12  C   UNL     1       6.113  27.370  54.880  1.00  0.00     0.015 A 
HETATM   13  C   UNL     1       5.973  28.739  55.127  1.00  0.00     0.002 A 
HETATM   14  C   UNL     1       6.902  29.403  55.929  1.00  0.00     0.017 A 
BRANCH  11  15
HETATM   15  C   UNL     1       7.291  25.205  55.211  1.00  0.00     0.181 A 
HETATM   16  N   UNL     1       6.998  24.276  56.134  1.00  0.00    -0.152 NA
HETATM   17  N   UNL     1       7.217  23.135  55.468  1.00  0.00    -0.263 N 
HETATM   18  H   UNL     1       7.055  22.250  55.934  1.00  0.00     0.190 HD
HETATM   19  C   UNL     1       7.643  23.373  54.195  1.00  0.00     0.118 A 
HETATM   20  C   UNL     1       7.967  22.299  53.235  1.00  0.00     0.093 C 
HETATM   21  N   UNL     1       7.708  24.673  54.008  1.00  0.00    -0.212 NA
ENDBRANCH  11  15
ENDBRANCH   5   9
BRANCH   1  22
HETATM   22  C   UNL     1       7.381  32.570  61.826  1.00  0.00    -0.030 A 
HETATM   23  C   UNL     1       8.026  32.316  63.048  1.00  0.00     0.014 A 
HETATM   24  C   UNL     1       7.726  33.052  64.204  1.00  0.00     0.037 A 
HETATM   25  C   UNL     1       6.766  34.060  64.163  1.00  0.00     0.068 A 
HETATM   26  C   UNL     1       6.105  34.313  62.963  1.00  0.00     0.037 A 
HETATM   27  C   UNL     1       6.415  33.585  61.807  1.00  0.00     0.014 A 
BRANCH  25  28
HETATM   28  O   UNL     1       6.386  34.851  65.210  1.00  0.00    -0.352 OA
BRANCH  28  29
HETATM   29  C   UNL     1       4.985  34.963  65.457  1.00  0.00     0.171 C 
HETATM   30  C   UNL     1       4.617  33.960  66.538  1.00  0.00     0.034 C 
ENDBRANCH  28  29
ENDBRANCH  25  28
ENDBRANCH   1  22
TORSDOF 5
ENDMDL
MODEL 6
REMARK VINA RESULT:      -9.3      8.178     11.621
REMARK  5 active torsions:
REMARK  status: ('A' for Active; 'I' for Inactive)
REMARK    1  A    between atoms: C_2  and  O_3 
REMARK    2  A    between atoms: O_3  and  C_4 
REMARK    3  A    between atoms: C_7  and  C_8 
REMARK       I    between atoms: N_11  and  C_12 
REMARK    4  A    between atoms: C_12  and  C_13 
REMARK    5  A    between atoms: C_15  and  C_16 
ROOT
HETATM    1  C   UNL     1       6.321  25.342  52.932  1.00  0.00    -0.049 C 
HETATM    2  C   UNL     1       5.767  26.429  53.823  1.00  0.00     0.059 C 
HETATM    3  C   UNL     1       4.518  27.079  53.234  1.00  0.00     0.131 C 
HETATM    4  N   UNL     1       4.688  27.411  51.822  1.00  0.00    -0.344 N 
HETATM    5  C   UNL     1       3.973  28.524  51.362  1.00  0.00     0.254 C 
HETATM    6  O   UNL     1       3.349  29.280  52.104  1.00  0.00    -0.267 OA
HETATM    7  C   UNL     1       5.068  26.304  50.948  1.00  0.00     0.154 C 
HETATM    8  C   UNL     1       5.981  25.320  51.629  1.00  0.00     0.001 C 
ENDROOT
BRANCH   5   9
HETATM    9  C   UNL     1       3.923  28.821  49.915  1.00  0.00     0.033 A 
HETATM   10  C   UNL     1       2.764  28.471  49.211  1.00  0.00     0.032 A 
HETATM   11  C   UNL     1       2.636  28.786  47.852  1.00  0.00     0.014 A 
HETATM   12  C   UNL     1       3.690  29.459  47.214  1.00  0.00     0.015 A 
HETATM   13  C   UNL     1       4.838  29.828  47.922  1.00  0.00     0.002 A 
HETATM   14  C   UNL     1       4.951  29.523  49.278  1.00  0.00     0.017 A 
BRANCH  11  15
HETATM   15  C   UNL     1       1.420  28.446  47.118  1.00  0.00     0.181 A 
HETATM   16  N   UNL     1       1.162  27.229  46.615  1.00  0.00    -0.152 NA
HETATM   17  N   UNL     1      -0.053  27.396  46.078  1.00  0.00    -0.263 N 
HETATM   18  H   UNL     1      -0.509  26.610  45.630  1.00  0.00     0.190 HD
HETATM   19  C   UNL     1      -0.500  28.674  46.239  1.00  0.00     0.118 A 
HETATM   20  C   UNL     1      -1.807  29.144  45.739  1.00  0.00     0.093 C 
HETATM   21  N   UNL     1       0.415  29.362  46.885  1.00  0.00    -0.212 NA
ENDBRANCH  11  15
ENDBRANCH   5   9
BRANCH   1  22
HETATM   22  C   UNL     1       7.234  24.340  53.544  1.00  0.00    -0.030 A 
HETATM   23  C   UNL     1       7.674  24.483  54.871  1.00  0.00     0.014 A 
HETATM   24  C   UNL     1       8.492  23.520  55.481  1.00  0.00     0.037 A 
HETATM   25  C   UNL     1       8.892  22.390  54.772  1.00  0.00     0.068 A 
HETATM   26  C   UNL     1       8.478  22.242  53.450  1.00  0.00     0.037 A 
HETATM   27  C   UNL     1       7.652  23.199  52.846  1.00  0.00     0.014 A 
BRANCH  25  28
HETATM   28  O   UNL     1       9.679  21.379  55.248  1.00  0.00    -0.352 OA
BRANCH  28  29
HETATM   29  C   UNL     1       9.159  20.616  56.336  1.00  0.00     0.171 C 
HETATM   30  C   UNL     1       7.689  20.348  56.061  1.00  0.00     0.034 C 
ENDBRANCH  28  29
ENDBRANCH  25  28
ENDBRANCH   1  22
TORSDOF 5
ENDMDL
MODEL 7
REMARK VINA RESULT:      -9.3      3.526     10.546
REMARK  5 active torsions:
REMARK  status: ('A' for Active; 'I' for Inactive)
REMARK    1  A    between atoms: C_2  and  O_3 
REMARK    2  A    between atoms: O_3  and  C_4 
REMARK    3  A    between atoms: C_7  and  C_8 
REMARK       I    between atoms: N_11  and  C_12 
REMARK    4  A    between atoms: C_12  and  C_13 
REMARK    5  A    between atoms: C_15  and  C_16 
ROOT
HETATM    1  C   UNL     1       7.839  31.800  60.578  1.00  0.00    -0.049 C 
HETATM    2  C   UNL     1       9.313  31.700  60.265  1.00  0.00     0.059 C 
HETATM    3  C   UNL     1       9.572  31.344  58.804  1.00  0.00     0.131 C 
HETATM    4  N   UNL     1       8.730  30.239  58.353  1.00  0.00    -0.344 N 
HETATM    5  C   UNL     1       9.275  29.417  57.359  1.00  0.00     0.254 C 
HETATM    6  O   UNL     1      10.439  29.504  56.974  1.00  0.00    -0.267 OA
HETATM    7  C   UNL     1       7.290  30.427  58.518  1.00  0.00     0.154 C 
HETATM    8  C   UNL     1       6.949  31.205  59.759  1.00  0.00     0.001 C 
ENDROOT
BRANCH   5   9
HETATM    9  C   UNL     1       8.429  28.399  56.699  1.00  0.00     0.033 A 
HETATM   10  C   UNL     1       7.625  28.806  55.628  1.00  0.00     0.032 A 
HETATM   11  C   UNL     1       6.853  27.872  54.925  1.00  0.00     0.014 A 
HETATM   12  C   UNL     1       6.904  26.525  55.316  1.00  0.00     0.015 A 
HETATM   13  C   UNL     1       7.725  26.115  56.371  1.00  0.00     0.002 A 
HETATM   14  C   UNL     1       8.502  27.049  57.056  1.00  0.00     0.017 A 
BRANCH  11  15
HETATM   15  C   UNL     1       6.030  28.286  53.792  1.00  0.00     0.181 A 
HETATM   16  N   UNL     1       4.709  28.514  53.866  1.00  0.00    -0.152 NA
HETATM   17  N   UNL     1       4.417  28.893  52.616  1.00  0.00    -0.263 N 
HETATM   18  H   UNL     1       3.463  29.148  52.385  1.00  0.00     0.190 HD
HETATM   19  C   UNL     1       5.521  28.878  51.816  1.00  0.00     0.118 A 
HETATM   20  C   UNL     1       5.492  29.245  50.387  1.00  0.00     0.093 C 
HETATM   21  N   UNL     1       6.554  28.489  52.531  1.00  0.00    -0.212 NA
ENDBRANCH  11  15
ENDBRANCH   5   9
BRANCH   1  22
HETATM   22  C   UNL     1       7.435  32.553  61.796  1.00  0.00    -0.030 A 
HETATM   23  C   UNL     1       8.115  32.373  63.012  1.00  0.00     0.014 A 
HETATM   24  C   UNL     1       7.783  33.114  64.155  1.00  0.00     0.037 A 
HETATM   25  C   UNL     1       6.757  34.053  64.108  1.00  0.00     0.068 A 
HETATM   26  C   UNL     1       6.062  34.233  62.914  1.00  0.00     0.037 A 
HETATM   27  C   UNL     1       6.402  33.500  61.769  1.00  0.00     0.014 A 
BRANCH  25  28
HETATM   28  O   UNL     1       6.340  34.842  65.144  1.00  0.00    -0.352 OA
BRANCH  28  29
HETATM   29  C   UNL     1       5.949  34.176  66.344  1.00  0.00     0.171 C 
HETATM   30  C   UNL     1       4.432  34.107  66.370  1.00  0.00     0.034 C 
ENDBRANCH  28  29
ENDBRANCH  25  28
ENDBRANCH   1  22
TORSDOF 5
ENDMDL
MODEL 8
REMARK VINA RESULT:      -9.3      3.926     10.457
REMARK  5 active torsions:
REMARK  status: ('A' for Active; 'I' for Inactive)
REMARK    1  A    between atoms: C_2  and  O_3 
REMARK    2  A    between atoms: O_3  and  C_4 
REMARK    3  A    between atoms: C_7  and  C_8 
REMARK       I    between atoms: N_11  and  C_12 
REMARK    4  A    between atoms: C_12  and  C_13 
REMARK    5  A    between atoms: C_15  and  C_16 
ROOT
HETATM    1  C   UNL     1       6.516  29.619  57.435  1.00  0.00    -0.049 C 
HETATM    2  C   UNL     1       5.470  30.078  56.446  1.00  0.00     0.059 C 
HETATM    3  C   UNL     1       4.842  28.913  55.686  1.00  0.00     0.131 C 
HETATM    4  N   UNL     1       5.847  27.978  55.189  1.00  0.00    -0.344 N 
HETATM    5  C   UNL     1       5.528  27.304  54.004  1.00  0.00     0.254 C 
HETATM    6  O   UNL     1       4.538  27.566  53.324  1.00  0.00    -0.267 OA
HETATM    7  C   UNL     1       6.750  27.419  56.194  1.00  0.00     0.154 C 
HETATM    8  C   UNL     1       7.077  28.403  57.285  1.00  0.00     0.001 C 
ENDROOT
BRANCH   5   9
HETATM    9  C   UNL     1       6.388  26.198  53.531  1.00  0.00     0.033 A 
HETATM   10  C   UNL     1       6.764  25.215  54.455  1.00  0.00     0.032 A 
HETATM   11  C   UNL     1       7.524  24.111  54.047  1.00  0.00     0.014 A 
HETATM   12  C   UNL     1       7.897  24.011  52.698  1.00  0.00     0.015 A 
HETATM   13  C   UNL     1       7.501  24.980  51.770  1.00  0.00     0.002 A 
HETATM   14  C   UNL     1       6.732  26.068  52.183  1.00  0.00     0.017 A 
BRANCH  11  15
HETATM   15  C   UNL     1       7.901  23.071  55.001  1.00  0.00     0.181 A 
HETATM   16  N   UNL     1       8.092  23.287  56.312  1.00  0.00    -0.152 NA
HETATM   17  N   UNL     1       8.378  22.059  56.763  1.00  0.00    -0.263 N 
HETATM   18  H   UNL     1       8.558  21.924  57.750  1.00  0.00     0.190 HD
HETATM   19  C   UNL     1       8.374  21.142  55.754  1.00  0.00     0.118 A 
HETATM   20  C   UNL     1       8.661  19.709  55.961  1.00  0.00     0.093 C 
HETATM   21  N   UNL     1       8.083  21.755  54.627  1.00  0.00    -0.212 NA
ENDBRANCH  11  15
ENDBRANCH   5   9
BRANCH   1  22
HETATM   22  C   UNL     1       6.888  30.548  58.535  1.00  0.00    -0.030 A 
HETATM   23  C   UNL     1       6.090  31.665  58.835  1.00  0.00     0.014 A 
HETATM   24  C   UNL     1       6.396  32.521  59.903  1.00  0.00     0.037 A 
HETATM   25  C   UNL     1       7.514  32.279  60.696  1.00  0.00     0.068 A 
HETATM   26  C   UNL     1       8.325  31.184  60.402  1.00  0.00     0.037 A 
HETATM   27  C   UNL     1       8.012  30.324  59.342  1.00  0.00     0.014 A 
BRANCH  25  28
HETATM   28  O   UNL     1       7.920  33.027  61.766  1.00  0.00    -0.352 OA
BRANCH  28  29
HETATM   29  C   UNL     1       8.219  32.322  62.969  1.00  0.00     0.171 C 
HETATM   30  C   UNL     1       7.637  33.108  64.131  1.00  0.00     0.034 C 
ENDBRANCH  28  29
ENDBRANCH  25  28
ENDBRANCH   1  22
TORSDOF 5
ENDMDL
MODEL 9
REMARK VINA RESULT:      -8.9      3.165     10.943
REMARK  5 active torsions:
REMARK  status: ('A' for Active; 'I' for Inactive)
REMARK    1  A    between atoms: C_2  and  O_3 
REMARK    2  A    between atoms: O_3  and  C_4 
REMARK    3  A    between atoms: C_7  and  C_8 
REMARK       I    between atoms: N_11  and  C_12 
REMARK    4  A    between atoms: C_12  and  C_13 
REMARK    5  A    between atoms: C_15  and  C_16 
ROOT
HETATM    1  C   UNL     1       7.070  32.057  61.837  1.00  0.00    -0.049 C 
HETATM    2  C   UNL     1       8.305  31.193  61.741  1.00  0.00     0.059 C 
HETATM    3  C   UNL     1       8.815  31.069  60.308  1.00  0.00     0.131 C 
HETATM    4  N   UNL     1       7.737  30.778  59.367  1.00  0.00    -0.344 N 
HETATM    5  C   UNL     1       8.090  30.023  58.242  1.00  0.00     0.254 C 
HETATM    6  O   UNL     1       9.193  29.501  58.098  1.00  0.00    -0.267 OA
HETATM    7  C   UNL     1       6.621  31.722  59.363  1.00  0.00     0.154 C 
HETATM    8  C   UNL     1       6.329  32.273  60.733  1.00  0.00     0.001 C 
ENDROOT
BRANCH   5   9
HETATM    9  C   UNL     1       7.120  29.847  57.139  1.00  0.00     0.033 A 
HETATM   10  C   UNL     1       7.147  28.642  56.426  1.00  0.00     0.032 A 
HETATM   11  C   UNL     1       6.210  28.395  55.414  1.00  0.00     0.014 A 
HETATM   12  C   UNL     1       5.246  29.376  55.134  1.00  0.00     0.015 A 
HETATM   13  C   UNL     1       5.204  30.570  55.862  1.00  0.00     0.002 A 
HETATM   14  C   UNL     1       6.132  30.801  56.878  1.00  0.00     0.017 A 
BRANCH  11  15
HETATM   15  C   UNL     1       6.217  27.132  54.681  1.00  0.00     0.181 A 
HETATM   16  N   UNL     1       7.153  26.182  54.833  1.00  0.00    -0.152 NA
HETATM   17  N   UNL     1       6.723  25.226  54.000  1.00  0.00    -0.263 N 
HETATM   18  H   UNL     1       7.248  24.362  53.924  1.00  0.00     0.190 HD
HETATM   19  C   UNL     1       5.579  25.597  53.359  1.00  0.00     0.118 A 
HETATM   20  C   UNL     1       4.884  24.740  52.378  1.00  0.00     0.093 C 
HETATM   21  N   UNL     1       5.240  26.802  53.764  1.00  0.00    -0.212 NA
ENDBRANCH  11  15
ENDBRANCH   5   9
BRANCH   1  22
HETATM   22  C   UNL     1       6.723  32.629  63.166  1.00  0.00    -0.030 A 
HETATM   23  C   UNL     1       7.721  33.130  64.017  1.00  0.00     0.014 A 
HETATM   24  C   UNL     1       7.406  33.721  65.249  1.00  0.00     0.037 A 
HETATM   25  C   UNL     1       6.080  33.820  65.661  1.00  0.00     0.068 A 
HETATM   26  C   UNL     1       5.079  33.312  64.835  1.00  0.00     0.037 A 
HETATM   27  C   UNL     1       5.394  32.733  63.600  1.00  0.00     0.014 A 
BRANCH  25  28
HETATM   28  O   UNL     1       5.639  34.376  66.829  1.00  0.00    -0.352 OA
BRANCH  28  29
HETATM   29  C   UNL     1       4.230  34.548  66.969  1.00  0.00     0.171 C 
HETATM   30  C   UNL     1       3.915  36.020  66.768  1.00  0.00     0.034 C 
ENDBRANCH  28  29
ENDBRANCH  25  28
ENDBRANCH   1  22
TORSDOF 5
ENDMDL
MODEL 10
REMARK VINA RESULT:      -8.8      4.368      6.155
REMARK  5 active torsions:
REMARK  status: ('A' for Active; 'I' for Inactive)
REMARK    1  A    between atoms: C_2  and  O_3 
REMARK    2  A    between atoms: O_3  and  C_4 
REMARK    3  A    between atoms: C_7  and  C_8 
REMARK       I    between atoms: N_11  and  C_12 
REMARK    4  A    between atoms: C_12  and  C_13 
REMARK    5  A    between atoms: C_15  and  C_16 
ROOT
HETATM    1  C   UNL     1       6.392  25.940  53.293  1.00  0.00    -0.049 C 
HETATM    2  C   UNL     1       5.220  25.727  52.364  1.00  0.00     0.059 C 
HETATM    3  C   UNL     1       4.760  27.025  51.705  1.00  0.00     0.131 C 
HETATM    4  N   UNL     1       4.644  28.116  52.667  1.00  0.00    -0.344 N 
HETATM    5  C   UNL     1       3.670  29.083  52.386  1.00  0.00     0.254 C 
HETATM    6  O   UNL     1       2.852  28.973  51.475  1.00  0.00    -0.267 OA
HETATM    7  C   UNL     1       5.845  28.413  53.444  1.00  0.00     0.154 C 
HETATM    8  C   UNL     1       6.643  27.177  53.765  1.00  0.00     0.001 C 
ENDROOT
BRANCH   5   9
HETATM    9  C   UNL     1       3.610  30.323  53.189  1.00  0.00     0.033 A 
HETATM   10  C   UNL     1       3.575  30.204  54.584  1.00  0.00     0.032 A 
HETATM   11  C   UNL     1       3.582  31.346  55.394  1.00  0.00     0.014 A 
HETATM   12  C   UNL     1       3.628  32.608  54.781  1.00  0.00     0.015 A 
HETATM   13  C   UNL     1       3.686  32.727  53.389  1.00  0.00     0.002 A 
HETATM   14  C   UNL     1       3.693  31.584  52.590  1.00  0.00     0.017 A 
BRANCH  11  15
HETATM   15  C   UNL     1       3.570  31.229  56.850  1.00  0.00     0.181 A 
HETATM   16  N   UNL     1       3.743  30.074  57.512  1.00  0.00    -0.152 NA
HETATM   17  N   UNL     1       3.687  30.468  58.790  1.00  0.00    -0.263 N 
HETATM   18  H   UNL     1       3.806  29.783  59.526  1.00  0.00     0.190 HD
HETATM   19  C   UNL     1       3.473  31.811  58.890  1.00  0.00     0.118 A 
HETATM   20  C   UNL     1       3.362  32.520  60.181  1.00  0.00     0.093 C 
HETATM   21  N   UNL     1       3.386  32.316  57.679  1.00  0.00    -0.212 NA
ENDBRANCH  11  15
ENDBRANCH   5   9
BRANCH   1  22
HETATM   22  C   UNL     1       7.218  24.757  53.652  1.00  0.00    -0.030 A 
HETATM   23  C   UNL     1       7.870  24.685  54.894  1.00  0.00     0.014 A 
HETATM   24  C   UNL     1       8.608  23.554  55.271  1.00  0.00     0.037 A 
HETATM   25  C   UNL     1       8.715  22.467  54.409  1.00  0.00     0.068 A 
HETATM   26  C   UNL     1       8.088  22.529  53.166  1.00  0.00     0.037 A 
HETATM   27  C   UNL     1       7.341  23.655  52.795  1.00  0.00     0.014 A 
BRANCH  25  28
HETATM   28  O   UNL     1       9.395  21.307  54.655  1.00  0.00    -0.352 OA
BRANCH  28  29
HETATM   29  C   UNL     1       8.615  20.124  54.815  1.00  0.00     0.171 C 
HETATM   30  C   UNL     1       7.876  20.224  56.139  1.00  0.00     0.034 C 
ENDBRANCH  28  29
ENDBRANCH  25  28
ENDBRANCH   1  22
TORSDOF 5
ENDMDL
