MODEL 1
REMARK VINA RESULT:      -8.3      0.000      0.000
REMARK  9 active torsions:
REMARK  status: ('A' for Active; 'I' for Inactive)
REMARK    1  A    between atoms: C_2  and  N_3 
REMARK       I    between atoms: N_3  and  C_4 
REMARK    2  A    between atoms: C_4  and  C_5 
REMARK    3  A    between atoms: C_5  and  S_6 
REMARK    4  A    between atoms: S_6  and  C_7 
REMARK    5  A    between atoms: N_8  and  C_9 
REMARK    6  A    between atoms: C_9  and  C_10 
REMARK    7  A    between atoms: C_10  and  C_11 
REMARK    8  A    between atoms: C_17  and  C_18 
REMARK    9  A    between atoms: C_19  and  O_20 
ROOT
HETATM    1  C   UNL     1       6.401  28.666  56.487  1.00  0.00     0.192 A 
HETATM    2  N   UNL     1       6.661  27.747  55.504  1.00  0.00    -0.307 N 
HETATM    3  C   UNL     1       5.569  27.800  54.655  1.00  0.00     0.167 A 
HETATM    4  N   UNL     1       4.754  28.752  55.082  1.00  0.00    -0.128 NA
HETATM    5  N   UNL     1       5.283  29.299  56.220  1.00  0.00    -0.122 NA
ENDROOT
BRANCH   1   6
HETATM    6  S   UNL     1       7.380  28.908  57.889  1.00  0.00    -0.081 SA
BRANCH   6   7
HETATM    7  C   UNL     1       7.104  30.668  58.229  1.00  0.00     0.185 C 
BRANCH   7   8
HETATM    8  C   UNL     1       8.116  31.209  59.226  1.00  0.00     0.227 C 
HETATM    9  N   UNL     1       8.141  30.536  60.431  1.00  0.00    -0.361 N 
HETATM   10  H   UNL     1       7.794  29.574  60.417  1.00  0.00     0.162 HD
HETATM   11  O   UNL     1       8.826  32.182  58.979  1.00  0.00    -0.273 OA
BRANCH   9  12
HETATM   12  C   UNL     1       9.071  30.876  61.484  1.00  0.00     0.118 C 
HETATM   13  C   UNL     1       8.467  31.846  62.482  1.00  0.00     0.026 C 
ENDBRANCH   9  12
ENDBRANCH   7   8
ENDBRANCH   6   7
ENDBRANCH   1   6
BRANCH   2  14
HETATM   14  C   UNL     1       7.823  26.890  55.372  1.00  0.00     0.137 C 
BRANCH  14  15
HETATM   15  C   UNL     1       7.683  25.503  56.007  1.00  0.00     0.059 C 
BRANCH  15  16
HETATM   16  C   UNL     1       7.755  24.369  55.016  1.00  0.00    -0.057 A 
HETATM   17  C   UNL     1       8.002  24.620  53.661  1.00  0.00     0.007 A 
HETATM   18  C   UNL     1       8.075  23.565  52.749  1.00  0.00     0.001 A 
HETATM   19  C   UNL     1       7.896  22.253  53.181  1.00  0.00     0.000 A 
HETATM   20  C   UNL     1       7.641  21.993  54.526  1.00  0.00     0.001 A 
HETATM   21  C   UNL     1       7.570  23.045  55.439  1.00  0.00     0.007 A 
ENDBRANCH  15  16
ENDBRANCH  14  15
ENDBRANCH   2  14
BRANCH   3  22
HETATM   22  C   UNL     1       5.350  26.973  53.471  1.00  0.00     0.045 A 
HETATM   23  C   UNL     1       5.676  27.442  52.189  1.00  0.00     0.082 A 
HETATM   24  C   UNL     1       5.503  26.632  51.063  1.00  0.00     0.038 A 
HETATM   25  C   UNL     1       4.960  25.358  51.202  1.00  0.00     0.003 A 
HETATM   26  C   UNL     1       4.594  24.892  52.464  1.00  0.00     0.001 A 
HETATM   27  C   UNL     1       4.783  25.696  53.591  1.00  0.00     0.018 A 
BRANCH  23  28
HETATM   28  O   UNL     1       6.259  28.674  52.027  1.00  0.00    -0.355 OA
HETATM   29  C   UNL     1       5.467  29.481  51.152  1.00  0.00     0.210 C 
ENDBRANCH  23  28
ENDBRANCH   3  22
TORSDOF 9
ENDMDL
MODEL 2
REMARK VINA RESULT:      -8.2      3.333      7.501
REMARK  9 active torsions:
REMARK  status: ('A' for Active; 'I' for Inactive)
REMARK    1  A    between atoms: C_2  and  N_3 
REMARK       I    between atoms: N_3  and  C_4 
REMARK    2  A    between atoms: C_4  and  C_5 
REMARK    3  A    between atoms: C_5  and  S_6 
REMARK    4  A    between atoms: S_6  and  C_7 
REMARK    5  A    between atoms: N_8  and  C_9 
REMARK    6  A    between atoms: C_9  and  C_10 
REMARK    7  A    between atoms: C_10  and  C_11 
REMARK    8  A    between atoms: C_17  and  C_18 
REMARK    9  A    between atoms: C_19  and  O_20 
ROOT
HETATM    1  C   UNL     1       5.193  27.585  52.043  1.00  0.00     0.192 A 
HETATM    2  N   UNL     1       6.002  26.846  52.865  1.00  0.00    -0.307 N 
HETATM    3  C   UNL     1       5.616  27.177  54.153  1.00  0.00     0.167 A 
HETATM    4  N   UNL     1       4.587  28.006  54.080  1.00  0.00    -0.128 NA
HETATM    5  N   UNL     1       4.317  28.250  52.761  1.00  0.00    -0.122 NA
ENDROOT
BRANCH   1   6
HETATM    6  S   UNL     1       5.345  27.661  50.324  1.00  0.00    -0.081 SA
BRANCH   6   7
HETATM    7  C   UNL     1       4.515  26.131  49.815  1.00  0.00     0.185 C 
BRANCH   7   8
HETATM    8  C   UNL     1       3.939  26.249  48.413  1.00  0.00     0.227 C 
HETATM    9  N   UNL     1       2.564  26.360  48.372  1.00  0.00    -0.361 N 
HETATM   10  H   UNL     1       2.116  26.719  49.218  1.00  0.00     0.162 HD
HETATM   11  O   UNL     1       4.645  26.219  47.407  1.00  0.00    -0.273 OA
BRANCH   9  12
HETATM   12  C   UNL     1       1.840  26.530  47.133  1.00  0.00     0.118 C 
HETATM   13  C   UNL     1       0.620  27.416  47.305  1.00  0.00     0.026 C 
ENDBRANCH   9  12
ENDBRANCH   7   8
ENDBRANCH   6   7
ENDBRANCH   1   6
BRANCH   2  14
HETATM   14  C   UNL     1       7.049  25.918  52.483  1.00  0.00     0.137 C 
BRANCH  14  15
HETATM   15  C   UNL     1       6.633  24.444  52.456  1.00  0.00     0.059 C 
BRANCH  15  16
HETATM   16  C   UNL     1       7.532  23.541  53.262  1.00  0.00    -0.057 A 
HETATM   17  C   UNL     1       8.181  24.019  54.407  1.00  0.00     0.007 A 
HETATM   18  C   UNL     1       9.008  23.177  55.154  1.00  0.00     0.001 A 
HETATM   19  C   UNL     1       9.197  21.854  54.760  1.00  0.00     0.000 A 
HETATM   20  C   UNL     1       8.563  21.371  53.617  1.00  0.00     0.001 A 
HETATM   21  C   UNL     1       7.734  22.211  52.871  1.00  0.00     0.007 A 
ENDBRANCH  15  16
ENDBRANCH  14  15
ENDBRANCH   2  14
BRANCH   3  22
HETATM   22  C   UNL     1       6.213  26.682  55.391  1.00  0.00     0.045 A 
HETATM   23  C   UNL     1       7.397  27.239  55.898  1.00  0.00     0.082 A 
HETATM   24  C   UNL     1       7.942  26.790  57.105  1.00  0.00     0.038 A 
HETATM   25  C   UNL     1       7.332  25.746  57.795  1.00  0.00     0.003 A 
HETATM   26  C   UNL     1       6.178  25.154  57.284  1.00  0.00     0.001 A 
HETATM   27  C   UNL     1       5.624  25.615  56.086  1.00  0.00     0.018 A 
BRANCH  23  28
HETATM   28  O   UNL     1       7.992  28.302  55.266  1.00  0.00    -0.355 OA
HETATM   29  C   UNL     1       7.862  29.482  56.062  1.00  0.00     0.210 C 
ENDBRANCH  23  28
ENDBRANCH   3  22
TORSDOF 9
ENDMDL
MODEL 3
REMARK VINA RESULT:      -7.8      2.007      4.505
REMARK  9 active torsions:
REMARK  status: ('A' for Active; 'I' for Inactive)
REMARK    1  A    between atoms: C_2  and  N_3 
REMARK       I    between atoms: N_3  and  C_4 
REMARK    2  A    between atoms: C_4  and  C_5 
REMARK    3  A    between atoms: C_5  and  S_6 
REMARK    4  A    between atoms: S_6  and  C_7 
REMARK    5  A    between atoms: N_8  and  C_9 
REMARK    6  A    between atoms: C_9  and  C_10 
REMARK    7  A    between atoms: C_10  and  C_11 
REMARK    8  A    between atoms: C_17  and  C_18 
REMARK    9  A    between atoms: C_19  and  O_20 
ROOT
HETATM    1  C   UNL     1       7.290  27.069  57.081  1.00  0.00     0.192 A 
HETATM    2  N   UNL     1       6.890  26.260  56.049  1.00  0.00    -0.307 N 
HETATM    3  C   UNL     1       7.843  25.258  55.981  1.00  0.00     0.167 A 
HETATM    4  N   UNL     1       8.706  25.434  56.967  1.00  0.00    -0.128 NA
HETATM    5  N   UNL     1       8.352  26.560  57.660  1.00  0.00    -0.122 NA
ENDROOT
BRANCH   1   6
HETATM    6  S   UNL     1       6.531  28.560  57.511  1.00  0.00    -0.081 SA
BRANCH   6   7
HETATM    7  C   UNL     1       7.959  29.667  57.663  1.00  0.00     0.185 C 
BRANCH   7   8
HETATM    8  C   UNL     1       7.753  30.696  58.763  1.00  0.00     0.227 C 
HETATM    9  N   UNL     1       8.127  30.265  60.020  1.00  0.00    -0.361 N 
HETATM   10  H   UNL     1       8.815  29.508  60.050  1.00  0.00     0.162 HD
HETATM   11  O   UNL     1       7.268  31.805  58.545  1.00  0.00    -0.273 OA
BRANCH   9  12
HETATM   12  C   UNL     1       8.051  31.120  61.183  1.00  0.00     0.118 C 
HETATM   13  C   UNL     1       9.389  31.759  61.506  1.00  0.00     0.026 C 
ENDBRANCH   9  12
ENDBRANCH   7   8
ENDBRANCH   6   7
ENDBRANCH   1   6
BRANCH   2  14
HETATM   14  C   UNL     1       5.727  26.413  55.199  1.00  0.00     0.137 C 
BRANCH  14  15
HETATM   15  C   UNL     1       5.815  27.550  54.175  1.00  0.00     0.059 C 
BRANCH  15  16
HETATM   16  C   UNL     1       5.489  27.128  52.765  1.00  0.00    -0.057 A 
HETATM   17  C   UNL     1       5.581  28.040  51.707  1.00  0.00     0.007 A 
HETATM   18  C   UNL     1       5.286  27.642  50.402  1.00  0.00     0.001 A 
HETATM   19  C   UNL     1       4.890  26.331  50.144  1.00  0.00     0.000 A 
HETATM   20  C   UNL     1       4.787  25.417  51.191  1.00  0.00     0.001 A 
HETATM   21  C   UNL     1       5.085  25.813  52.495  1.00  0.00     0.007 A 
ENDBRANCH  15  16
ENDBRANCH  14  15
ENDBRANCH   2  14
BRANCH   3  22
HETATM   22  C   UNL     1       7.885  24.168  55.008  1.00  0.00     0.045 A 
HETATM   23  C   UNL     1       7.947  22.829  55.423  1.00  0.00     0.082 A 
HETATM   24  C   UNL     1       7.946  21.788  54.489  1.00  0.00     0.038 A 
HETATM   25  C   UNL     1       7.929  22.078  53.127  1.00  0.00     0.003 A 
HETATM   26  C   UNL     1       7.908  23.404  52.699  1.00  0.00     0.001 A 
HETATM   27  C   UNL     1       7.891  24.444  53.633  1.00  0.00     0.018 A 
BRANCH  23  28
HETATM   28  O   UNL     1       7.915  22.512  56.757  1.00  0.00    -0.355 OA
HETATM   29  C   UNL     1       8.325  21.156  56.950  1.00  0.00     0.210 C 
ENDBRANCH  23  28
ENDBRANCH   3  22
TORSDOF 9
ENDMDL
MODEL 4
REMARK VINA RESULT:      -7.7      2.313      3.126
REMARK  9 active torsions:
REMARK  status: ('A' for Active; 'I' for Inactive)
REMARK    1  A    between atoms: C_2  and  N_3 
REMARK       I    between atoms: N_3  and  C_4 
REMARK    2  A    between atoms: C_4  and  C_5 
REMARK    3  A    between atoms: C_5  and  S_6 
REMARK    4  A    between atoms: S_6  and  C_7 
REMARK    5  A    between atoms: N_8  and  C_9 
REMARK    6  A    between atoms: C_9  and  C_10 
REMARK    7  A    between atoms: C_10  and  C_11 
REMARK    8  A    between atoms: C_17  and  C_18 
REMARK    9  A    between atoms: C_19  and  O_20 
ROOT
HETATM    1  C   UNL     1       5.218  27.353  54.412  1.00  0.00     0.192 A 
HETATM    2  N   UNL     1       5.704  27.040  53.169  1.00  0.00    -0.307 N 
HETATM    3  C   UNL     1       4.829  27.631  52.275  1.00  0.00     0.167 A 
HETATM    4  N   UNL     1       3.926  28.312  52.962  1.00  0.00    -0.128 NA
HETATM    5  N   UNL     1       4.178  28.146  54.296  1.00  0.00    -0.122 NA
ENDROOT
BRANCH   1   6
HETATM    6  S   UNL     1       5.855  26.745  55.898  1.00  0.00    -0.081 SA
BRANCH   6   7
HETATM    7  C   UNL     1       6.108  28.273  56.840  1.00  0.00     0.185 C 
BRANCH   7   8
HETATM    8  C   UNL     1       7.496  28.324  57.459  1.00  0.00     0.227 C 
HETATM    9  N   UNL     1       8.160  29.519  57.263  1.00  0.00    -0.361 N 
HETATM   10  H   UNL     1       7.573  30.336  57.079  1.00  0.00     0.162 HD
HETATM   11  O   UNL     1       7.985  27.368  58.057  1.00  0.00    -0.273 OA
BRANCH   9  12
HETATM   12  C   UNL     1       9.470  29.772  57.819  1.00  0.00     0.118 C 
HETATM   13  C   UNL     1      10.564  29.638  56.775  1.00  0.00     0.026 C 
ENDBRANCH   9  12
ENDBRANCH   7   8
ENDBRANCH   6   7
ENDBRANCH   1   6
BRANCH   2  14
HETATM   14  C   UNL     1       6.878  26.255  52.846  1.00  0.00     0.137 C 
BRANCH  14  15
HETATM   15  C   UNL     1       6.612  24.770  52.571  1.00  0.00     0.059 C 
BRANCH  15  16
HETATM   16  C   UNL     1       7.471  23.836  53.386  1.00  0.00    -0.057 A 
HETATM   17  C   UNL     1       7.968  24.230  54.634  1.00  0.00     0.007 A 
HETATM   18  C   UNL     1       8.757  23.358  55.387  1.00  0.00     0.001 A 
HETATM   19  C   UNL     1       9.061  22.090  54.897  1.00  0.00     0.000 A 
HETATM   20  C   UNL     1       8.579  21.692  53.652  1.00  0.00     0.001 A 
HETATM   21  C   UNL     1       7.788  22.561  52.899  1.00  0.00     0.007 A 
ENDBRANCH  15  16
ENDBRANCH  14  15
ENDBRANCH   2  14
BRANCH   3  22
HETATM   22  C   UNL     1       4.893  27.550  50.817  1.00  0.00     0.045 A 
HETATM   23  C   UNL     1       5.424  28.601  50.055  1.00  0.00     0.082 A 
HETATM   24  C   UNL     1       5.521  28.502  48.664  1.00  0.00     0.038 A 
HETATM   25  C   UNL     1       5.046  27.365  48.015  1.00  0.00     0.003 A 
HETATM   26  C   UNL     1       4.479  26.328  48.755  1.00  0.00     0.001 A 
HETATM   27  C   UNL     1       4.398  26.421  50.147  1.00  0.00     0.018 A 
BRANCH  23  28
HETATM   28  O   UNL     1       5.945  29.712  50.670  1.00  0.00    -0.355 OA
HETATM   29  C   UNL     1       5.735  30.868  49.856  1.00  0.00     0.210 C 
ENDBRANCH  23  28
ENDBRANCH   3  22
TORSDOF 9
ENDMDL
MODEL 5
REMARK VINA RESULT:      -7.7      3.625      7.835
REMARK  9 active torsions:
REMARK  status: ('A' for Active; 'I' for Inactive)
REMARK    1  A    between atoms: C_2  and  N_3 
REMARK       I    between atoms: N_3  and  C_4 
REMARK    2  A    between atoms: C_4  and  C_5 
REMARK    3  A    between atoms: C_5  and  S_6 
REMARK    4  A    between atoms: S_6  and  C_7 
REMARK    5  A    between atoms: N_8  and  C_9 
REMARK    6  A    between atoms: C_9  and  C_10 
REMARK    7  A    between atoms: C_10  and  C_11 
REMARK    8  A    between atoms: C_17  and  C_18 
REMARK    9  A    between atoms: C_19  and  O_20 
ROOT
HETATM    1  C   UNL     1       5.093  27.311  51.701  1.00  0.00     0.192 A 
HETATM    2  N   UNL     1       6.033  26.918  52.618  1.00  0.00    -0.307 N 
HETATM    3  C   UNL     1       5.888  27.787  53.685  1.00  0.00     0.167 A 
HETATM    4  N   UNL     1       4.869  28.592  53.433  1.00  0.00    -0.128 NA
HETATM    5  N   UNL     1       4.367  28.285  52.198  1.00  0.00    -0.122 NA
ENDROOT
BRANCH   1   6
HETATM    6  S   UNL     1       4.933  26.649  50.114  1.00  0.00    -0.081 SA
BRANCH   6   7
HETATM    7  C   UNL     1       3.915  27.906  49.294  1.00  0.00     0.185 C 
BRANCH   7   8
HETATM    8  C   UNL     1       3.285  27.370  48.019  1.00  0.00     0.227 C 
HETATM    9  N   UNL     1       1.905  27.345  48.036  1.00  0.00    -0.361 N 
HETATM   10  H   UNL     1       1.450  27.994  48.682  1.00  0.00     0.162 HD
HETATM   11  O   UNL     1       3.957  26.970  47.070  1.00  0.00    -0.273 OA
BRANCH   9  12
HETATM   12  C   UNL     1       1.128  26.913  46.896  1.00  0.00     0.118 C 
HETATM   13  C   UNL     1       0.157  27.984  46.433  1.00  0.00     0.026 C 
ENDBRANCH   9  12
ENDBRANCH   7   8
ENDBRANCH   6   7
ENDBRANCH   1   6
BRANCH   2  14
HETATM   14  C   UNL     1       6.987  25.833  52.505  1.00  0.00     0.137 C 
BRANCH  14  15
HETATM   15  C   UNL     1       6.454  24.454  52.909  1.00  0.00     0.059 C 
BRANCH  15  16
HETATM   16  C   UNL     1       7.468  23.592  53.617  1.00  0.00    -0.057 A 
HETATM   17  C   UNL     1       8.051  24.017  54.818  1.00  0.00     0.007 A 
HETATM   18  C   UNL     1       8.984  23.212  55.473  1.00  0.00     0.001 A 
HETATM   19  C   UNL     1       9.347  21.979  54.934  1.00  0.00     0.000 A 
HETATM   20  C   UNL     1       8.779  21.551  53.735  1.00  0.00     0.001 A 
HETATM   21  C   UNL     1       7.844  22.353  53.080  1.00  0.00     0.007 A 
ENDBRANCH  15  16
ENDBRANCH  14  15
ENDBRANCH   2  14
BRANCH   3  22
HETATM   22  C   UNL     1       6.696  27.807  54.903  1.00  0.00     0.045 A 
HETATM   23  C   UNL     1       6.296  27.104  56.049  1.00  0.00     0.082 A 
HETATM   24  C   UNL     1       7.092  27.092  57.198  1.00  0.00     0.038 A 
HETATM   25  C   UNL     1       8.278  27.822  57.227  1.00  0.00     0.003 A 
HETATM   26  C   UNL     1       8.669  28.558  56.110  1.00  0.00     0.001 A 
HETATM   27  C   UNL     1       7.881  28.555  54.956  1.00  0.00     0.018 A 
BRANCH  23  28
HETATM   28  O   UNL     1       5.159  26.336  56.033  1.00  0.00    -0.355 OA
HETATM   29  C   UNL     1       5.275  25.266  56.974  1.00  0.00     0.210 C 
ENDBRANCH  23  28
ENDBRANCH   3  22
TORSDOF 9
ENDMDL
MODEL 6
REMARK VINA RESULT:      -7.6      2.773      6.746
REMARK  9 active torsions:
REMARK  status: ('A' for Active; 'I' for Inactive)
REMARK    1  A    between atoms: C_2  and  N_3 
REMARK       I    between atoms: N_3  and  C_4 
REMARK    2  A    between atoms: C_4  and  C_5 
REMARK    3  A    between atoms: C_5  and  S_6 
REMARK    4  A    between atoms: S_6  and  C_7 
REMARK    5  A    between atoms: N_8  and  C_9 
REMARK    6  A    between atoms: C_9  and  C_10 
REMARK    7  A    between atoms: C_10  and  C_11 
REMARK    8  A    between atoms: C_17  and  C_18 
REMARK    9  A    between atoms: C_19  and  O_20 
ROOT
HETATM    1  C   UNL     1       5.407  26.891  53.625  1.00  0.00     0.192 A 
HETATM    2  N   UNL     1       6.591  26.925  54.315  1.00  0.00    -0.307 N 
HETATM    3  C   UNL     1       6.667  28.200  54.847  1.00  0.00     0.167 A 
HETATM    4  N   UNL     1       5.552  28.846  54.545  1.00  0.00    -0.128 NA
HETATM    5  N   UNL     1       4.762  28.022  53.791  1.00  0.00    -0.122 NA
ENDROOT
BRANCH   1   6
HETATM    6  S   UNL     1       4.879  25.570  52.644  1.00  0.00    -0.081 SA
BRANCH   6   7
HETATM    7  C   UNL     1       5.655  25.962  51.053  1.00  0.00     0.185 C 
BRANCH   7   8
HETATM    8  C   UNL     1       4.668  26.611  50.095  1.00  0.00     0.227 C 
HETATM    9  N   UNL     1       4.042  27.733  50.600  1.00  0.00    -0.361 N 
HETATM   10  H   UNL     1       4.533  28.223  51.352  1.00  0.00     0.162 HD
HETATM   11  O   UNL     1       4.435  26.151  48.979  1.00  0.00    -0.273 OA
BRANCH   9  12
HETATM   12  C   UNL     1       3.108  28.512  49.820  1.00  0.00     0.118 C 
HETATM   13  C   UNL     1       2.021  29.126  50.683  1.00  0.00     0.026 C 
ENDBRANCH   9  12
ENDBRANCH   7   8
ENDBRANCH   6   7
ENDBRANCH   1   6
BRANCH   2  14
HETATM   14  C   UNL     1       7.567  25.864  54.458  1.00  0.00     0.137 C 
BRANCH  14  15
HETATM   15  C   UNL     1       7.153  24.721  55.391  1.00  0.00     0.059 C 
BRANCH  15  16
HETATM   16  C   UNL     1       7.455  23.348  54.845  1.00  0.00    -0.057 A 
HETATM   17  C   UNL     1       7.649  23.153  53.472  1.00  0.00     0.007 A 
HETATM   18  C   UNL     1       7.936  21.881  52.973  1.00  0.00     0.001 A 
HETATM   19  C   UNL     1       8.025  20.794  53.839  1.00  0.00     0.000 A 
HETATM   20  C   UNL     1       7.825  20.975  55.206  1.00  0.00     0.001 A 
HETATM   21  C   UNL     1       7.541  22.246  55.707  1.00  0.00     0.007 A 
ENDBRANCH  15  16
ENDBRANCH  14  15
ENDBRANCH   2  14
BRANCH   3  22
HETATM   22  C   UNL     1       7.770  28.746  55.634  1.00  0.00     0.045 A 
HETATM   23  C   UNL     1       7.610  29.045  56.996  1.00  0.00     0.082 A 
HETATM   24  C   UNL     1       8.680  29.529  57.755  1.00  0.00     0.038 A 
HETATM   25  C   UNL     1       9.911  29.762  57.148  1.00  0.00     0.003 A 
HETATM   26  C   UNL     1      10.075  29.508  55.787  1.00  0.00     0.001 A 
HETATM   27  C   UNL     1       9.009  29.008  55.033  1.00  0.00     0.018 A 
BRANCH  23  28
HETATM   28  O   UNL     1       6.423  28.779  57.632  1.00  0.00    -0.355 OA
HETATM   29  C   UNL     1       5.719  29.996  57.887  1.00  0.00     0.210 C 
ENDBRANCH  23  28
ENDBRANCH   3  22
TORSDOF 9
ENDMDL
MODEL 7
REMARK VINA RESULT:      -7.3      3.455      7.656
REMARK  9 active torsions:
REMARK  status: ('A' for Active; 'I' for Inactive)
REMARK    1  A    between atoms: C_2  and  N_3 
REMARK       I    between atoms: N_3  and  C_4 
REMARK    2  A    between atoms: C_4  and  C_5 
REMARK    3  A    between atoms: C_5  and  S_6 
REMARK    4  A    between atoms: S_6  and  C_7 
REMARK    5  A    between atoms: N_8  and  C_9 
REMARK    6  A    between atoms: C_9  and  C_10 
REMARK    7  A    between atoms: C_10  and  C_11 
REMARK    8  A    between atoms: C_17  and  C_18 
REMARK    9  A    between atoms: C_19  and  O_20 
ROOT
HETATM    1  C   UNL     1       6.931  26.095  53.714  1.00  0.00     0.192 A 
HETATM    2  N   UNL     1       6.779  25.168  54.711  1.00  0.00    -0.307 N 
HETATM    3  C   UNL     1       7.689  24.166  54.422  1.00  0.00     0.167 A 
HETATM    4  N   UNL     1       8.385  24.530  53.356  1.00  0.00    -0.128 NA
HETATM    5  N   UNL     1       7.917  25.740  52.924  1.00  0.00    -0.122 NA
ENDROOT
BRANCH   1   6
HETATM    6  S   UNL     1       5.935  27.492  53.510  1.00  0.00    -0.081 SA
BRANCH   6   7
HETATM    7  C   UNL     1       4.614  26.847  52.449  1.00  0.00     0.185 C 
BRANCH   7   8
HETATM    8  C   UNL     1       4.868  27.167  50.984  1.00  0.00     0.227 C 
HETATM    9  N   UNL     1       4.304  26.268  50.101  1.00  0.00    -0.361 N 
HETATM   10  H   UNL     1       3.506  25.733  50.451  1.00  0.00     0.162 HD
HETATM   11  O   UNL     1       5.542  28.132  50.629  1.00  0.00    -0.273 OA
BRANCH   9  12
HETATM   12  C   UNL     1       4.398  26.433  48.669  1.00  0.00     0.118 C 
HETATM   13  C   UNL     1       3.109  26.973  48.075  1.00  0.00     0.026 C 
ENDBRANCH   9  12
ENDBRANCH   7   8
ENDBRANCH   6   7
ENDBRANCH   1   6
BRANCH   2  14
HETATM   14  C   UNL     1       5.859  25.209  55.831  1.00  0.00     0.137 C 
BRANCH  14  15
HETATM   15  C   UNL     1       6.484  25.613  57.171  1.00  0.00     0.059 C 
BRANCH  15  16
HETATM   16  C   UNL     1       7.027  27.020  57.190  1.00  0.00    -0.057 A 
HETATM   17  C   UNL     1       6.160  28.118  57.256  1.00  0.00     0.007 A 
HETATM   18  C   UNL     1       6.669  29.418  57.281  1.00  0.00     0.001 A 
HETATM   19  C   UNL     1       8.044  29.632  57.235  1.00  0.00     0.000 A 
HETATM   20  C   UNL     1       8.915  28.547  57.160  1.00  0.00     0.001 A 
HETATM   21  C   UNL     1       8.409  27.247  57.138  1.00  0.00     0.007 A 
ENDBRANCH  15  16
ENDBRANCH  14  15
ENDBRANCH   2  14
BRANCH   3  22
HETATM   22  C   UNL     1       7.882  22.927  55.171  1.00  0.00     0.045 A 
HETATM   23  C   UNL     1       7.740  21.676  54.551  1.00  0.00     0.082 A 
HETATM   24  C   UNL     1       7.965  20.493  55.262  1.00  0.00     0.038 A 
HETATM   25  C   UNL     1       8.292  20.549  56.615  1.00  0.00     0.003 A 
HETATM   26  C   UNL     1       8.397  21.783  57.255  1.00  0.00     0.001 A 
HETATM   27  C   UNL     1       8.188  22.965  56.539  1.00  0.00     0.018 A 
BRANCH  23  28
HETATM   28  O   UNL     1       7.468  21.591  53.209  1.00  0.00    -0.355 OA
HETATM   29  C   UNL     1       8.230  20.536  52.619  1.00  0.00     0.210 C 
ENDBRANCH  23  28
ENDBRANCH   3  22
TORSDOF 9
ENDMDL
MODEL 8
REMARK VINA RESULT:      -7.3      3.583      7.415
REMARK  9 active torsions:
REMARK  status: ('A' for Active; 'I' for Inactive)
REMARK    1  A    between atoms: C_2  and  N_3 
REMARK       I    between atoms: N_3  and  C_4 
REMARK    2  A    between atoms: C_4  and  C_5 
REMARK    3  A    between atoms: C_5  and  S_6 
REMARK    4  A    between atoms: S_6  and  C_7 
REMARK    5  A    between atoms: N_8  and  C_9 
REMARK    6  A    between atoms: C_9  and  C_10 
REMARK    7  A    between atoms: C_10  and  C_11 
REMARK    8  A    between atoms: C_17  and  C_18 
REMARK    9  A    between atoms: C_19  and  O_20 
ROOT
HETATM    1  C   UNL     1       6.583  26.383  53.184  1.00  0.00     0.192 A 
HETATM    2  N   UNL     1       6.529  25.189  53.856  1.00  0.00    -0.307 N 
HETATM    3  C   UNL     1       7.595  24.449  53.373  1.00  0.00     0.167 A 
HETATM    4  N   UNL     1       8.275  25.202  52.523  1.00  0.00    -0.128 NA
HETATM    5  N   UNL     1       7.647  26.413  52.416  1.00  0.00    -0.122 NA
ENDROOT
BRANCH   1   6
HETATM    6  S   UNL     1       5.395  27.631  53.302  1.00  0.00    -0.081 SA
BRANCH   6   7
HETATM    7  C   UNL     1       5.732  28.598  51.805  1.00  0.00     0.185 C 
BRANCH   7   8
HETATM    8  C   UNL     1       4.851  28.158  50.646  1.00  0.00     0.227 C 
HETATM    9  N   UNL     1       5.336  27.072  49.947  1.00  0.00    -0.361 N 
HETATM   10  H   UNL     1       5.981  26.461  50.454  1.00  0.00     0.162 HD
HETATM   11  O   UNL     1       3.812  28.745  50.350  1.00  0.00    -0.273 OA
BRANCH   9  12
HETATM   12  C   UNL     1       4.614  26.480  48.844  1.00  0.00     0.118 C 
HETATM   13  C   UNL     1       4.987  27.115  47.517  1.00  0.00     0.026 C 
ENDBRANCH   9  12
ENDBRANCH   7   8
ENDBRANCH   6   7
ENDBRANCH   1   6
BRANCH   2  14
HETATM   14  C   UNL     1       5.563  24.774  54.854  1.00  0.00     0.137 C 
BRANCH  14  15
HETATM   15  C   UNL     1       6.022  24.931  56.308  1.00  0.00     0.059 C 
BRANCH  15  16
HETATM   16  C   UNL     1       6.241  26.363  56.726  1.00  0.00    -0.057 A 
HETATM   17  C   UNL     1       7.532  26.842  56.982  1.00  0.00     0.007 A 
HETATM   18  C   UNL     1       7.729  28.171  57.362  1.00  0.00     0.001 A 
HETATM   19  C   UNL     1       6.640  29.030  57.494  1.00  0.00     0.000 A 
HETATM   20  C   UNL     1       5.351  28.561  57.250  1.00  0.00     0.001 A 
HETATM   21  C   UNL     1       5.152  27.234  56.867  1.00  0.00     0.007 A 
ENDBRANCH  15  16
ENDBRANCH  14  15
ENDBRANCH   2  14
BRANCH   3  22
HETATM   22  C   UNL     1       7.940  23.080  53.750  1.00  0.00     0.045 A 
HETATM   23  C   UNL     1       8.684  22.813  54.909  1.00  0.00     0.082 A 
HETATM   24  C   UNL     1       8.977  21.500  55.287  1.00  0.00     0.038 A 
HETATM   25  C   UNL     1       8.567  20.439  54.483  1.00  0.00     0.003 A 
HETATM   26  C   UNL     1       7.861  20.690  53.307  1.00  0.00     0.001 A 
HETATM   27  C   UNL     1       7.554  22.003  52.940  1.00  0.00     0.018 A 
BRANCH  23  28
HETATM   28  O   UNL     1       9.059  23.834  55.746  1.00  0.00    -0.355 OA
HETATM   29  C   UNL     1       8.811  23.471  57.105  1.00  0.00     0.210 C 
ENDBRANCH  23  28
ENDBRANCH   3  22
TORSDOF 9
ENDMDL
MODEL 9
REMARK VINA RESULT:      -7.1      2.700      3.706
REMARK  9 active torsions:
REMARK  status: ('A' for Active; 'I' for Inactive)
REMARK    1  A    between atoms: C_2  and  N_3 
REMARK       I    between atoms: N_3  and  C_4 
REMARK    2  A    between atoms: C_4  and  C_5 
REMARK    3  A    between atoms: C_5  and  S_6 
REMARK    4  A    between atoms: S_6  and  C_7 
REMARK    5  A    between atoms: N_8  and  C_9 
REMARK    6  A    between atoms: C_9  and  C_10 
REMARK    7  A    between atoms: C_10  and  C_11 
REMARK    8  A    between atoms: C_17  and  C_18 
REMARK    9  A    between atoms: C_19  and  O_20 
ROOT
HETATM    1  C   UNL     1       4.900  27.699  53.914  1.00  0.00     0.192 A 
HETATM    2  N   UNL     1       5.454  27.295  52.727  1.00  0.00    -0.307 N 
HETATM    3  C   UNL     1       4.667  27.867  51.743  1.00  0.00     0.167 A 
HETATM    4  N   UNL     1       3.752  28.623  52.327  1.00  0.00    -0.128 NA
HETATM    5  N   UNL     1       3.907  28.525  53.683  1.00  0.00    -0.122 NA
ENDROOT
BRANCH   1   6
HETATM    6  S   UNL     1       5.410  27.154  55.472  1.00  0.00    -0.081 SA
BRANCH   6   7
HETATM    7  C   UNL     1       6.750  28.317  55.846  1.00  0.00     0.185 C 
BRANCH   7   8
HETATM    8  C   UNL     1       6.225  29.576  56.518  1.00  0.00     0.227 C 
HETATM    9  N   UNL     1       5.607  30.461  55.658  1.00  0.00    -0.361 N 
HETATM   10  H   UNL     1       5.234  30.063  54.793  1.00  0.00     0.162 HD
HETATM   11  O   UNL     1       6.370  29.789  57.720  1.00  0.00    -0.273 OA
BRANCH   9  12
HETATM   12  C   UNL     1       5.003  31.690  56.120  1.00  0.00     0.118 C 
HETATM   13  C   UNL     1       4.696  32.637  54.974  1.00  0.00     0.026 C 
ENDBRANCH   9  12
ENDBRANCH   7   8
ENDBRANCH   6   7
ENDBRANCH   1   6
BRANCH   2  14
HETATM   14  C   UNL     1       6.611  26.445  52.530  1.00  0.00     0.137 C 
BRANCH  14  15
HETATM   15  C   UNL     1       6.309  24.944  52.448  1.00  0.00     0.059 C 
BRANCH  15  16
HETATM   16  C   UNL     1       7.228  24.091  53.286  1.00  0.00    -0.057 A 
HETATM   17  C   UNL     1       7.713  22.872  52.796  1.00  0.00     0.007 A 
HETATM   18  C   UNL     1       8.569  22.090  53.573  1.00  0.00     0.001 A 
HETATM   19  C   UNL     1       8.943  22.515  54.846  1.00  0.00     0.000 A 
HETATM   20  C   UNL     1       8.459  23.722  55.346  1.00  0.00     0.001 A 
HETATM   21  C   UNL     1       7.605  24.507  54.570  1.00  0.00     0.007 A 
ENDBRANCH  15  16
ENDBRANCH  14  15
ENDBRANCH   2  14
BRANCH   3  22
HETATM   22  C   UNL     1       4.825  27.698  50.300  1.00  0.00     0.045 A 
HETATM   23  C   UNL     1       5.451  28.681  49.519  1.00  0.00     0.082 A 
HETATM   24  C   UNL     1       5.636  28.496  48.146  1.00  0.00     0.038 A 
HETATM   25  C   UNL     1       5.155  27.343  47.530  1.00  0.00     0.003 A 
HETATM   26  C   UNL     1       4.495  26.375  48.285  1.00  0.00     0.001 A 
HETATM   27  C   UNL     1       4.326  26.553  49.661  1.00  0.00     0.018 A 
BRANCH  23  28
HETATM   28  O   UNL     1       5.979  29.803  50.106  1.00  0.00    -0.355 OA
HETATM   29  C   UNL     1       5.367  30.975  49.563  1.00  0.00     0.210 C 
ENDBRANCH  23  28
ENDBRANCH   3  22
TORSDOF 9
ENDMDL
MODEL 10
REMARK VINA RESULT:      -7.0      2.918      7.390
REMARK  9 active torsions:
REMARK  status: ('A' for Active; 'I' for Inactive)
REMARK    1  A    between atoms: C_2  and  N_3 
REMARK       I    between atoms: N_3  and  C_4 
REMARK    2  A    between atoms: C_4  and  C_5 
REMARK    3  A    between atoms: C_5  and  S_6 
REMARK    4  A    between atoms: S_6  and  C_7 
REMARK    5  A    between atoms: N_8  and  C_9 
REMARK    6  A    between atoms: C_9  and  C_10 
REMARK    7  A    between atoms: C_10  and  C_11 
REMARK    8  A    between atoms: C_17  and  C_18 
REMARK    9  A    between atoms: C_19  and  O_20 
ROOT
HETATM    1  C   UNL     1       6.899  25.108  54.894  1.00  0.00     0.192 A 
HETATM    2  N   UNL     1       7.221  26.438  54.976  1.00  0.00    -0.307 N 
HETATM    3  C   UNL     1       7.413  26.685  56.324  1.00  0.00     0.167 A 
HETATM    4  N   UNL     1       7.284  25.543  56.981  1.00  0.00    -0.128 NA
HETATM    5  N   UNL     1       6.974  24.558  56.084  1.00  0.00    -0.122 NA
ENDROOT
BRANCH   1   6
HETATM    6  S   UNL     1       6.418  24.301  53.445  1.00  0.00    -0.081 SA
BRANCH   6   7
HETATM    7  C   UNL     1       7.931  23.402  53.007  1.00  0.00     0.185 C 
BRANCH   7   8
HETATM    8  C   UNL     1       7.917  21.985  53.558  1.00  0.00     0.227 C 
HETATM    9  N   UNL     1       7.811  21.913  54.932  1.00  0.00    -0.361 N 
HETATM   10  H   UNL     1       7.392  22.722  55.395  1.00  0.00     0.162 HD
HETATM   11  O   UNL     1       8.020  20.997  52.834  1.00  0.00    -0.273 OA
BRANCH   9  12
HETATM   12  C   UNL     1       7.734  20.652  55.634  1.00  0.00     0.118 C 
HETATM   13  C   UNL     1       9.058  20.279  56.277  1.00  0.00     0.026 C 
ENDBRANCH   9  12
ENDBRANCH   7   8
ENDBRANCH   6   7
ENDBRANCH   1   6
BRANCH   2  14
HETATM   14  C   UNL     1       7.332  27.394  53.893  1.00  0.00     0.137 C 
BRANCH  14  15
HETATM   15  C   UNL     1       6.048  28.169  53.576  1.00  0.00     0.059 C 
BRANCH  15  16
HETATM   16  C   UNL     1       5.657  28.131  52.120  1.00  0.00    -0.057 A 
HETATM   17  C   UNL     1       5.599  29.309  51.366  1.00  0.00     0.007 A 
HETATM   18  C   UNL     1       5.243  29.267  50.016  1.00  0.00     0.001 A 
HETATM   19  C   UNL     1       4.938  28.050  49.411  1.00  0.00     0.000 A 
HETATM   20  C   UNL     1       4.985  26.873  50.155  1.00  0.00     0.001 A 
HETATM   21  C   UNL     1       5.342  26.913  51.503  1.00  0.00     0.007 A 
ENDBRANCH  15  16
ENDBRANCH  14  15
ENDBRANCH   2  14
BRANCH   3  22
HETATM   22  C   UNL     1       7.733  27.975  56.932  1.00  0.00     0.045 A 
HETATM   23  C   UNL     1       6.721  28.826  57.400  1.00  0.00     0.082 A 
HETATM   24  C   UNL     1       7.034  30.041  58.017  1.00  0.00     0.038 A 
HETATM   25  C   UNL     1       8.364  30.438  58.133  1.00  0.00     0.003 A 
HETATM   26  C   UNL     1       9.379  29.621  57.637  1.00  0.00     0.001 A 
HETATM   27  C   UNL     1       9.066  28.399  57.035  1.00  0.00     0.018 A 
BRANCH  23  28
HETATM   28  O   UNL     1       5.406  28.440  57.344  1.00  0.00    -0.355 OA
HETATM   29  C   UNL     1       4.595  29.521  56.880  1.00  0.00     0.210 C 
ENDBRANCH  23  28
ENDBRANCH   3  22
TORSDOF 9
ENDMDL
