MODEL 1
REMARK VINA RESULT:      -9.5      0.000      0.000
REMARK  9 active torsions:
REMARK  status: ('A' for Active; 'I' for Inactive)
REMARK    1  A    between atoms: C_4  and  N_5 
REMARK    2  A    between atoms: C_6  and  S_7 
REMARK    3  A    between atoms: S_7  and  C_8 
REMARK    4  A    between atoms: C_8  and  C_9 
REMARK       I    between atoms: C_9  and  N_10 
REMARK    5  A    between atoms: N_10  and  C_11 
REMARK    6  A    between atoms: C_12  and  C_13 
REMARK       I    between atoms: C_13  and  N_14 
REMARK    7  A    between atoms: N_14  and  C_15 
REMARK    8  A    between atoms: C_26  and  C_27 
REMARK    9  A    between atoms: C_27  and  N_28 
ROOT
HETATM    1  S   UNL     1       8.655  29.042  55.847  1.00  0.00    -0.080 SA
ENDROOT
BRANCH   1   2
HETATM    2  C   UNL     1       7.989  27.610  56.551  1.00  0.00     0.196 C 
HETATM    3  N   UNL     1       7.210  26.664  55.906  1.00  0.00    -0.274 N 
HETATM    4  C   UNL     1       7.101  25.650  56.848  1.00  0.00     0.161 C 
HETATM    5  N   UNL     1       7.532  26.071  58.017  1.00  0.00    -0.132 NA
HETATM    6  N   UNL     1       8.075  27.304  57.827  1.00  0.00    -0.122 NA
BRANCH   3   7
HETATM    7  C   UNL     1       6.608  26.666  54.621  1.00  0.00     0.043 A 
HETATM    8  C   UNL     1       5.256  26.963  54.441  1.00  0.00     0.030 A 
HETATM    9  C   UNL     1       4.702  26.934  53.157  1.00  0.00     0.002 A 
HETATM   10  C   UNL     1       5.490  26.600  52.056  1.00  0.00     0.000 A 
HETATM   11  C   UNL     1       6.837  26.297  52.230  1.00  0.00     0.002 A 
HETATM   12  C   UNL     1       7.399  26.331  53.507  1.00  0.00     0.030 A 
ENDBRANCH   3   7
BRANCH   4  13
HETATM   13  C   UNL     1       6.774  24.233  56.547  1.00  0.00     0.315 C 
BRANCH  13  14
HETATM   14  N   UNL     1       7.988  23.494  56.027  1.00  0.00    -0.064 N 
HETATM   15  H   UNL     1       8.748  24.195  56.022  1.00  0.00     0.280 HD
HETATM   16  C   UNL     1       7.876  23.018  54.584  1.00  0.00     0.235 C 
HETATM   17  C   UNL     1       7.935  21.506  54.694  1.00  0.00     0.029 C 
HETATM   18  C   UNL     1       8.861  21.278  55.871  1.00  0.00     0.029 C 
HETATM   19  C   UNL     1       8.400  22.317  56.873  1.00  0.00     0.235 C 
ENDBRANCH  13  14
ENDBRANCH   4  13
ENDBRANCH   1   2
BRANCH   1  20
HETATM   20  C   UNL     1      10.116  29.328  56.877  1.00  0.00     0.185 C 
BRANCH  20  21
HETATM   21  C   UNL     1       9.897  30.435  57.903  1.00  0.00     0.231 C 
HETATM   22  N   UNL     1       8.942  30.117  58.854  1.00  0.00    -0.326 N 
HETATM   23  H   UNL     1       8.353  29.319  58.649  1.00  0.00     0.169 HD
HETATM   24  O   UNL     1      10.459  31.522  57.806  1.00  0.00    -0.272 OA
BRANCH  22  25
HETATM   25  C   UNL     1       8.490  30.959  59.893  1.00  0.00     0.050 A 
HETATM   26  C   UNL     1       7.257  31.624  59.949  1.00  0.00     0.058 A 
HETATM   27  C   UNL     1       6.911  32.368  61.093  1.00  0.00     0.019 A 
HETATM   28  C   UNL     1       7.794  32.471  62.167  1.00  0.00     0.001 A 
HETATM   29  C   UNL     1       9.043  31.865  62.091  1.00  0.00     0.002 A 
HETATM   30  C   UNL     1       9.392  31.128  60.958  1.00  0.00     0.030 A 
BRANCH  26  31
HETATM   31  C   UNL     1       6.350  31.811  58.792  1.00  0.00     0.254 C 
HETATM   32  N   UNL     1       5.683  30.666  58.414  1.00  0.00    -0.352 N 
HETATM   33  H   UNL     1       6.155  29.790  58.630  1.00  0.00     0.163 HD
HETATM   34  O   UNL     1       6.172  32.936  58.330  1.00  0.00    -0.268 OA
BRANCH  32  35
HETATM   35  C   UNL     1       4.642  30.629  57.440  1.00  0.00     0.084 A 
HETATM   36  C   UNL     1       4.905  30.535  55.964  1.00  0.00     0.027 A 
HETATM   37  C   UNL     1       4.358  29.349  56.699  1.00  0.00     0.027 A 
ENDBRANCH  32  35
ENDBRANCH  26  31
ENDBRANCH  22  25
ENDBRANCH  20  21
ENDBRANCH   1  20
TORSDOF 9
ENDMDL
MODEL 2
REMARK VINA RESULT:      -9.4      1.719      2.382
REMARK  9 active torsions:
REMARK  status: ('A' for Active; 'I' for Inactive)
REMARK    1  A    between atoms: C_4  and  N_5 
REMARK    2  A    between atoms: C_6  and  S_7 
REMARK    3  A    between atoms: S_7  and  C_8 
REMARK    4  A    between atoms: C_8  and  C_9 
REMARK       I    between atoms: C_9  and  N_10 
REMARK    5  A    between atoms: N_10  and  C_11 
REMARK    6  A    between atoms: C_12  and  C_13 
REMARK       I    between atoms: C_13  and  N_14 
REMARK    7  A    between atoms: N_14  and  C_15 
REMARK    8  A    between atoms: C_26  and  C_27 
REMARK    9  A    between atoms: C_27  and  N_28 
ROOT
HETATM    1  S   UNL     1       6.986  27.860  57.111  1.00  0.00    -0.080 SA
ENDROOT
BRANCH   1   2
HETATM    2  C   UNL     1       7.626  26.255  57.084  1.00  0.00     0.196 C 
HETATM    3  N   UNL     1       7.629  25.391  56.000  1.00  0.00    -0.274 N 
HETATM    4  C   UNL     1       8.409  24.332  56.444  1.00  0.00     0.161 C 
HETATM    5  N   UNL     1       8.611  24.431  57.740  1.00  0.00    -0.132 NA
HETATM    6  N   UNL     1       8.107  25.632  58.137  1.00  0.00    -0.122 NA
BRANCH   3   7
HETATM    7  C   UNL     1       6.995  25.475  54.734  1.00  0.00     0.043 A 
HETATM    8  C   UNL     1       7.594  26.124  53.652  1.00  0.00     0.030 A 
HETATM    9  C   UNL     1       6.922  26.199  52.428  1.00  0.00     0.002 A 
HETATM   10  C   UNL     1       5.654  25.638  52.283  1.00  0.00     0.000 A 
HETATM   11  C   UNL     1       5.050  24.995  53.360  1.00  0.00     0.002 A 
HETATM   12  C   UNL     1       5.716  24.909  54.583  1.00  0.00     0.030 A 
ENDBRANCH   3   7
BRANCH   4  13
HETATM   13  C   UNL     1       9.112  23.360  55.569  1.00  0.00     0.315 C 
BRANCH  13  14
HETATM   14  N   UNL     1       8.153  22.318  55.036  1.00  0.00    -0.064 N 
HETATM   15  H   UNL     1       7.217  22.628  55.348  1.00  0.00     0.280 HD
HETATM   16  C   UNL     1       8.329  20.926  55.629  1.00  0.00     0.235 C 
HETATM   17  C   UNL     1       8.735  20.073  54.443  1.00  0.00     0.029 C 
HETATM   18  C   UNL     1       7.984  20.702  53.287  1.00  0.00     0.029 C 
HETATM   19  C   UNL     1       8.160  22.186  53.535  1.00  0.00     0.235 C 
ENDBRANCH  13  14
ENDBRANCH   4  13
ENDBRANCH   1   2
BRANCH   1  20
HETATM   20  C   UNL     1       8.412  28.847  56.592  1.00  0.00     0.185 C 
BRANCH  20  21
HETATM   21  C   UNL     1       8.853  29.840  57.662  1.00  0.00     0.231 C 
HETATM   22  N   UNL     1       8.029  29.847  58.775  1.00  0.00    -0.326 N 
HETATM   23  H   UNL     1       7.135  29.381  58.673  1.00  0.00     0.169 HD
HETATM   24  O   UNL     1       9.793  30.609  57.478  1.00  0.00    -0.272 OA
BRANCH  22  25
HETATM   25  C   UNL     1       8.153  30.693  59.897  1.00  0.00     0.050 A 
HETATM   26  C   UNL     1       7.278  31.725  60.263  1.00  0.00     0.058 A 
HETATM   27  C   UNL     1       7.488  32.434  61.461  1.00  0.00     0.019 A 
HETATM   28  C   UNL     1       8.576  32.136  62.281  1.00  0.00     0.001 A 
HETATM   29  C   UNL     1       9.482  31.156  61.892  1.00  0.00     0.002 A 
HETATM   30  C   UNL     1       9.279  30.450  60.704  1.00  0.00     0.030 A 
BRANCH  26  31
HETATM   31  C   UNL     1       6.250  32.311  59.370  1.00  0.00     0.254 C 
HETATM   32  N   UNL     1       5.203  32.907  60.039  1.00  0.00    -0.352 N 
HETATM   33  H   UNL     1       5.005  32.537  60.967  1.00  0.00     0.163 HD
HETATM   34  O   UNL     1       6.433  32.326  58.155  1.00  0.00    -0.268 OA
BRANCH  32  35
HETATM   35  C   UNL     1       4.182  33.677  59.407  1.00  0.00     0.084 A 
HETATM   36  C   UNL     1       2.860  33.971  60.056  1.00  0.00     0.027 A 
HETATM   37  C   UNL     1       3.875  35.064  59.906  1.00  0.00     0.027 A 
ENDBRANCH  32  35
ENDBRANCH  26  31
ENDBRANCH  22  25
ENDBRANCH  20  21
ENDBRANCH   1  20
TORSDOF 9
ENDMDL
MODEL 3
REMARK VINA RESULT:      -9.1      1.746      3.711
REMARK  9 active torsions:
REMARK  status: ('A' for Active; 'I' for Inactive)
REMARK    1  A    between atoms: C_4  and  N_5 
REMARK    2  A    between atoms: C_6  and  S_7 
REMARK    3  A    between atoms: S_7  and  C_8 
REMARK    4  A    between atoms: C_8  and  C_9 
REMARK       I    between atoms: C_9  and  N_10 
REMARK    5  A    between atoms: N_10  and  C_11 
REMARK    6  A    between atoms: C_12  and  C_13 
REMARK       I    between atoms: C_13  and  N_14 
REMARK    7  A    between atoms: N_14  and  C_15 
REMARK    8  A    between atoms: C_26  and  C_27 
REMARK    9  A    between atoms: C_27  and  N_28 
ROOT
HETATM    1  S   UNL     1       4.178  28.317  55.549  1.00  0.00    -0.080 SA
ENDROOT
BRANCH   1   2
HETATM    2  C   UNL     1       5.162  26.935  55.880  1.00  0.00     0.196 C 
HETATM    3  N   UNL     1       5.735  26.091  54.942  1.00  0.00    -0.274 N 
HETATM    4  C   UNL     1       6.558  25.278  55.710  1.00  0.00     0.161 C 
HETATM    5  N   UNL     1       6.289  25.440  56.987  1.00  0.00    -0.132 NA
HETATM    6  N   UNL     1       5.405  26.470  57.086  1.00  0.00    -0.122 NA
BRANCH   3   7
HETATM    7  C   UNL     1       5.556  25.994  53.538  1.00  0.00     0.043 A 
HETATM    8  C   UNL     1       6.111  26.926  52.658  1.00  0.00     0.030 A 
HETATM    9  C   UNL     1       5.892  26.800  51.283  1.00  0.00     0.002 A 
HETATM   10  C   UNL     1       5.114  25.755  50.785  1.00  0.00     0.000 A 
HETATM   11  C   UNL     1       4.555  24.826  51.658  1.00  0.00     0.002 A 
HETATM   12  C   UNL     1       4.775  24.940  53.031  1.00  0.00     0.030 A 
ENDBRANCH   3   7
BRANCH   4  13
HETATM   13  C   UNL     1       7.725  24.516  55.200  1.00  0.00     0.315 C 
BRANCH  13  14
HETATM   14  N   UNL     1       7.321  23.118  54.783  1.00  0.00    -0.064 N 
HETATM   15  H   UNL     1       6.298  23.080  54.927  1.00  0.00     0.280 HD
HETATM   16  C   UNL     1       7.887  22.004  55.655  1.00  0.00     0.235 C 
HETATM   17  C   UNL     1       8.776  21.219  54.709  1.00  0.00     0.029 C 
HETATM   18  C   UNL     1       8.060  21.335  53.380  1.00  0.00     0.029 C 
HETATM   19  C   UNL     1       7.637  22.790  53.347  1.00  0.00     0.235 C 
ENDBRANCH  13  14
ENDBRANCH   4  13
ENDBRANCH   1   2
BRANCH   1  20
HETATM   20  C   UNL     1       4.568  29.404  56.944  1.00  0.00     0.185 C 
BRANCH  20  21
HETATM   21  C   UNL     1       5.912  30.103  56.779  1.00  0.00     0.231 C 
HETATM   22  N   UNL     1       6.932  29.505  57.502  1.00  0.00    -0.326 N 
HETATM   23  H   UNL     1       6.648  28.837  58.209  1.00  0.00     0.169 HD
HETATM   24  O   UNL     1       6.022  31.146  56.140  1.00  0.00    -0.272 OA
BRANCH  22  25
HETATM   25  C   UNL     1       8.266  29.956  57.588  1.00  0.00     0.050 A 
HETATM   26  C   UNL     1       8.784  30.847  58.538  1.00  0.00     0.058 A 
HETATM   27  C   UNL     1      10.160  31.142  58.548  1.00  0.00     0.019 A 
HETATM   28  C   UNL     1      11.016  30.573  57.605  1.00  0.00     0.001 A 
HETATM   29  C   UNL     1      10.497  29.739  56.622  1.00  0.00     0.002 A 
HETATM   30  C   UNL     1       9.132  29.444  56.606  1.00  0.00     0.030 A 
BRANCH  26  31
HETATM   31  C   UNL     1       7.960  31.709  59.418  1.00  0.00     0.254 C 
HETATM   32  N   UNL     1       8.384  31.736  60.729  1.00  0.00    -0.352 N 
HETATM   33  H   UNL     1       8.879  30.905  61.050  1.00  0.00     0.163 HD
HETATM   34  O   UNL     1       7.064  32.396  58.935  1.00  0.00    -0.268 OA
BRANCH  32  35
HETATM   35  C   UNL     1       7.857  32.612  61.724  1.00  0.00     0.084 A 
HETATM   36  C   UNL     1       6.629  32.292  62.528  1.00  0.00     0.027 A 
HETATM   37  C   UNL     1       7.978  32.246  63.180  1.00  0.00     0.027 A 
ENDBRANCH  32  35
ENDBRANCH  26  31
ENDBRANCH  22  25
ENDBRANCH  20  21
ENDBRANCH   1  20
TORSDOF 9
ENDMDL
MODEL 4
REMARK VINA RESULT:      -9.0      1.836      3.642
REMARK  9 active torsions:
REMARK  status: ('A' for Active; 'I' for Inactive)
REMARK    1  A    between atoms: C_4  and  N_5 
REMARK    2  A    between atoms: C_6  and  S_7 
REMARK    3  A    between atoms: S_7  and  C_8 
REMARK    4  A    between atoms: C_8  and  C_9 
REMARK       I    between atoms: C_9  and  N_10 
REMARK    5  A    between atoms: N_10  and  C_11 
REMARK    6  A    between atoms: C_12  and  C_13 
REMARK       I    between atoms: C_13  and  N_14 
REMARK    7  A    between atoms: N_14  and  C_15 
REMARK    8  A    between atoms: C_26  and  C_27 
REMARK    9  A    between atoms: C_27  and  N_28 
ROOT
HETATM    1  S   UNL     1       7.060  27.957  56.623  1.00  0.00    -0.080 SA
ENDROOT
BRANCH   1   2
HETATM    2  C   UNL     1       7.667  26.343  56.736  1.00  0.00     0.196 C 
HETATM    3  N   UNL     1       7.637  25.383  55.738  1.00  0.00    -0.274 N 
HETATM    4  C   UNL     1       8.404  24.353  56.268  1.00  0.00     0.161 C 
HETATM    5  N   UNL     1       8.627  24.568  57.546  1.00  0.00    -0.132 NA
HETATM    6  N   UNL     1       8.153  25.810  57.836  1.00  0.00    -0.122 NA
BRANCH   3   7
HETATM    7  C   UNL     1       6.986  25.364  54.477  1.00  0.00     0.043 A 
HETATM    8  C   UNL     1       7.647  25.723  53.301  1.00  0.00     0.030 A 
HETATM    9  C   UNL     1       6.959  25.706  52.084  1.00  0.00     0.002 A 
HETATM   10  C   UNL     1       5.613  25.343  52.039  1.00  0.00     0.000 A 
HETATM   11  C   UNL     1       4.948  24.989  53.210  1.00  0.00     0.002 A 
HETATM   12  C   UNL     1       5.629  24.996  54.427  1.00  0.00     0.030 A 
ENDBRANCH   3   7
BRANCH   4  13
HETATM   13  C   UNL     1       9.073  23.291  55.477  1.00  0.00     0.315 C 
BRANCH  13  14
HETATM   14  N   UNL     1       8.080  22.241  55.026  1.00  0.00    -0.064 N 
HETATM   15  H   UNL     1       7.159  22.593  55.337  1.00  0.00     0.280 HD
HETATM   16  C   UNL     1       8.236  20.884  55.701  1.00  0.00     0.235 C 
HETATM   17  C   UNL     1       8.598  19.951  54.560  1.00  0.00     0.029 C 
HETATM   18  C   UNL     1       7.838  20.527  53.383  1.00  0.00     0.029 C 
HETATM   19  C   UNL     1       8.054  22.019  53.536  1.00  0.00     0.235 C 
ENDBRANCH  13  14
ENDBRANCH   4  13
ENDBRANCH   1   2
BRANCH   1  20
HETATM   20  C   UNL     1       7.697  28.711  58.141  1.00  0.00     0.185 C 
BRANCH  20  21
HETATM   21  C   UNL     1       7.373  30.198  58.234  1.00  0.00     0.231 C 
HETATM   22  N   UNL     1       6.030  30.478  58.041  1.00  0.00    -0.326 N 
HETATM   23  H   UNL     1       5.468  29.730  57.652  1.00  0.00     0.169 HD
HETATM   24  O   UNL     1       8.255  31.042  58.369  1.00  0.00    -0.272 OA
BRANCH  22  25
HETATM   25  C   UNL     1       5.443  31.760  58.016  1.00  0.00     0.050 A 
HETATM   26  C   UNL     1       5.239  32.605  59.117  1.00  0.00     0.058 A 
HETATM   27  C   UNL     1       4.713  33.896  58.925  1.00  0.00     0.019 A 
HETATM   28  C   UNL     1       4.369  34.340  57.649  1.00  0.00     0.001 A 
HETATM   29  C   UNL     1       4.510  33.485  56.562  1.00  0.00     0.002 A 
HETATM   30  C   UNL     1       5.030  32.202  56.747  1.00  0.00     0.030 A 
BRANCH  26  31
HETATM   31  C   UNL     1       5.316  32.172  60.533  1.00  0.00     0.254 C 
HETATM   32  N   UNL     1       6.600  31.954  60.982  1.00  0.00    -0.352 N 
HETATM   33  H   UNL     1       7.277  31.687  60.269  1.00  0.00     0.163 HD
HETATM   34  O   UNL     1       4.296  32.139  61.217  1.00  0.00    -0.268 OA
BRANCH  32  35
HETATM   35  C   UNL     1       6.941  31.692  62.342  1.00  0.00     0.084 A 
HETATM   36  C   UNL     1       8.211  31.000  62.748  1.00  0.00     0.027 A 
HETATM   37  C   UNL     1       8.052  32.470  62.997  1.00  0.00     0.027 A 
ENDBRANCH  32  35
ENDBRANCH  26  31
ENDBRANCH  22  25
ENDBRANCH  20  21
ENDBRANCH   1  20
TORSDOF 9
ENDMDL
MODEL 5
REMARK VINA RESULT:      -9.0      2.610      8.613
REMARK  9 active torsions:
REMARK  status: ('A' for Active; 'I' for Inactive)
REMARK    1  A    between atoms: C_4  and  N_5 
REMARK    2  A    between atoms: C_6  and  S_7 
REMARK    3  A    between atoms: S_7  and  C_8 
REMARK    4  A    between atoms: C_8  and  C_9 
REMARK       I    between atoms: C_9  and  N_10 
REMARK    5  A    between atoms: N_10  and  C_11 
REMARK    6  A    between atoms: C_12  and  C_13 
REMARK       I    between atoms: C_13  and  N_14 
REMARK    7  A    between atoms: N_14  and  C_15 
REMARK    8  A    between atoms: C_26  and  C_27 
REMARK    9  A    between atoms: C_27  and  N_28 
ROOT
HETATM    1  S   UNL     1       6.201  27.300  57.078  1.00  0.00    -0.080 SA
ENDROOT
BRANCH   1   2
HETATM    2  C   UNL     1       7.098  28.617  57.748  1.00  0.00     0.196 C 
HETATM    3  N   UNL     1       6.668  29.929  57.864  1.00  0.00    -0.274 N 
HETATM    4  C   UNL     1       7.668  30.522  58.622  1.00  0.00     0.161 C 
HETATM    5  N   UNL     1       8.707  29.721  58.707  1.00  0.00    -0.132 NA
HETATM    6  N   UNL     1       8.349  28.533  58.147  1.00  0.00    -0.122 NA
BRANCH   3   7
HETATM    7  C   UNL     1       5.526  30.588  57.342  1.00  0.00     0.043 A 
HETATM    8  C   UNL     1       4.282  30.515  57.972  1.00  0.00     0.030 A 
HETATM    9  C   UNL     1       3.179  31.167  57.411  1.00  0.00     0.002 A 
HETATM   10  C   UNL     1       3.312  31.881  56.220  1.00  0.00     0.000 A 
HETATM   11  C   UNL     1       4.548  31.952  55.585  1.00  0.00     0.002 A 
HETATM   12  C   UNL     1       5.655  31.311  56.143  1.00  0.00     0.030 A 
ENDBRANCH   3   7
BRANCH   4  13
HETATM   13  C   UNL     1       7.515  31.766  59.418  1.00  0.00     0.315 C 
BRANCH  13  14
HETATM   14  N   UNL     1       7.287  31.451  60.880  1.00  0.00    -0.064 N 
HETATM   15  H   UNL     1       6.931  30.480  60.894  1.00  0.00     0.280 HD
HETATM   16  C   UNL     1       6.200  32.283  61.550  1.00  0.00     0.235 C 
HETATM   17  C   UNL     1       6.947  33.070  62.611  1.00  0.00     0.029 C 
HETATM   18  C   UNL     1       8.045  32.119  63.042  1.00  0.00     0.029 C 
HETATM   19  C   UNL     1       8.529  31.539  61.729  1.00  0.00     0.235 C 
ENDBRANCH  13  14
ENDBRANCH   4  13
ENDBRANCH   1   2
BRANCH   1  20
HETATM   20  C   UNL     1       7.394  25.941  57.169  1.00  0.00     0.185 C 
BRANCH  20  21
HETATM   21  C   UNL     1       6.982  24.747  56.315  1.00  0.00     0.231 C 
HETATM   22  N   UNL     1       8.059  24.028  55.825  1.00  0.00    -0.326 N 
HETATM   23  H   UNL     1       8.965  24.477  55.889  1.00  0.00     0.169 HD
HETATM   24  O   UNL     1       5.806  24.533  56.033  1.00  0.00    -0.272 OA
BRANCH  22  25
HETATM   25  C   UNL     1       7.992  22.910  54.967  1.00  0.00     0.050 A 
HETATM   26  C   UNL     1       7.895  22.938  53.568  1.00  0.00     0.058 A 
HETATM   27  C   UNL     1       7.920  21.735  52.837  1.00  0.00     0.019 A 
HETATM   28  C   UNL     1       8.017  20.508  53.492  1.00  0.00     0.001 A 
HETATM   29  C   UNL     1       8.050  20.471  54.882  1.00  0.00     0.002 A 
HETATM   30  C   UNL     1       8.025  21.661  55.612  1.00  0.00     0.030 A 
BRANCH  26  31
HETATM   31  C   UNL     1       7.530  24.136  52.775  1.00  0.00     0.254 C 
HETATM   32  N   UNL     1       6.229  24.551  52.957  1.00  0.00    -0.352 N 
HETATM   33  H   UNL     1       5.567  23.823  53.225  1.00  0.00     0.163 HD
HETATM   34  O   UNL     1       8.390  24.721  52.122  1.00  0.00    -0.268 OA
BRANCH  32  35
HETATM   35  C   UNL     1       5.693  25.764  52.434  1.00  0.00     0.084 A 
HETATM   36  C   UNL     1       4.576  26.518  53.097  1.00  0.00     0.027 A 
HETATM   37  C   UNL     1       5.970  27.067  53.136  1.00  0.00     0.027 A 
ENDBRANCH  32  35
ENDBRANCH  26  31
ENDBRANCH  22  25
ENDBRANCH  20  21
ENDBRANCH   1  20
TORSDOF 9
ENDMDL
MODEL 6
REMARK VINA RESULT:      -8.9      2.702      4.774
REMARK  9 active torsions:
REMARK  status: ('A' for Active; 'I' for Inactive)
REMARK    1  A    between atoms: C_4  and  N_5 
REMARK    2  A    between atoms: C_6  and  S_7 
REMARK    3  A    between atoms: S_7  and  C_8 
REMARK    4  A    between atoms: C_8  and  C_9 
REMARK       I    between atoms: C_9  and  N_10 
REMARK    5  A    between atoms: N_10  and  C_11 
REMARK    6  A    between atoms: C_12  and  C_13 
REMARK       I    between atoms: C_13  and  N_14 
REMARK    7  A    between atoms: N_14  and  C_15 
REMARK    8  A    between atoms: C_26  and  C_27 
REMARK    9  A    between atoms: C_27  and  N_28 
ROOT
HETATM    1  S   UNL     1       5.234  31.079  56.445  1.00  0.00    -0.080 SA
ENDROOT
BRANCH   1   2
HETATM    2  C   UNL     1       5.477  29.368  56.496  1.00  0.00     0.196 C 
HETATM    3  N   UNL     1       6.667  28.716  56.775  1.00  0.00    -0.274 N 
HETATM    4  C   UNL     1       6.282  27.386  56.872  1.00  0.00     0.161 C 
HETATM    5  N   UNL     1       5.055  27.237  56.425  1.00  0.00    -0.132 NA
HETATM    6  N   UNL     1       4.560  28.481  56.180  1.00  0.00    -0.122 NA
BRANCH   3   7
HETATM    7  C   UNL     1       7.992  29.205  56.911  1.00  0.00     0.043 A 
HETATM    8  C   UNL     1       8.464  29.729  58.116  1.00  0.00     0.030 A 
HETATM    9  C   UNL     1       9.773  30.216  58.197  1.00  0.00     0.002 A 
HETATM   10  C   UNL     1      10.606  30.191  57.079  1.00  0.00     0.000 A 
HETATM   11  C   UNL     1      10.138  29.676  55.874  1.00  0.00     0.002 A 
HETATM   12  C   UNL     1       8.837  29.181  55.786  1.00  0.00     0.030 A 
ENDBRANCH   3   7
BRANCH   4  13
HETATM   13  C   UNL     1       7.039  26.326  57.585  1.00  0.00     0.315 C 
BRANCH  13  14
HETATM   14  N   UNL     1       8.037  25.658  56.665  1.00  0.00    -0.064 N 
HETATM   15  H   UNL     1       8.746  26.383  56.465  1.00  0.00     0.280 HD
HETATM   16  C   UNL     1       7.481  25.259  55.304  1.00  0.00     0.235 C 
HETATM   17  C   UNL     1       7.594  23.746  55.294  1.00  0.00     0.029 C 
HETATM   18  C   UNL     1       8.848  23.485  56.103  1.00  0.00     0.029 C 
HETATM   19  C   UNL     1       8.712  24.451  57.262  1.00  0.00     0.235 C 
ENDBRANCH  13  14
ENDBRANCH   4  13
ENDBRANCH   1   2
BRANCH   1  20
HETATM   20  C   UNL     1       4.621  31.426  58.112  1.00  0.00     0.185 C 
BRANCH  20  21
HETATM   21  C   UNL     1       5.700  32.006  59.020  1.00  0.00     0.231 C 
HETATM   22  N   UNL     1       5.489  31.735  60.362  1.00  0.00    -0.326 N 
HETATM   23  H   UNL     1       4.568  31.395  60.611  1.00  0.00     0.169 HD
HETATM   24  O   UNL     1       6.598  32.718  58.579  1.00  0.00    -0.272 OA
BRANCH  22  25
HETATM   25  C   UNL     1       6.285  32.184  61.437  1.00  0.00     0.050 A 
HETATM   26  C   UNL     1       6.009  33.266  62.284  1.00  0.00     0.058 A 
HETATM   27  C   UNL     1       6.860  33.545  63.369  1.00  0.00     0.019 A 
HETATM   28  C   UNL     1       7.994  32.767  63.601  1.00  0.00     0.001 A 
HETATM   29  C   UNL     1       8.308  31.732  62.727  1.00  0.00     0.002 A 
HETATM   30  C   UNL     1       7.467  31.452  61.648  1.00  0.00     0.030 A 
BRANCH  26  31
HETATM   31  C   UNL     1       5.000  34.315  62.004  1.00  0.00     0.254 C 
HETATM   32  N   UNL     1       5.465  35.600  62.182  1.00  0.00    -0.352 N 
HETATM   33  H   UNL     1       6.222  35.705  62.855  1.00  0.00     0.163 HD
HETATM   34  O   UNL     1       3.902  34.001  61.551  1.00  0.00    -0.268 OA
BRANCH  32  35
HETATM   35  C   UNL     1       4.739  36.773  61.822  1.00  0.00     0.084 A 
HETATM   36  C   UNL     1       3.833  37.499  62.775  1.00  0.00     0.027 A 
HETATM   37  C   UNL     1       5.147  38.107  62.388  1.00  0.00     0.027 A 
ENDBRANCH  32  35
ENDBRANCH  26  31
ENDBRANCH  22  25
ENDBRANCH  20  21
ENDBRANCH   1  20
TORSDOF 9
ENDMDL
MODEL 7
REMARK VINA RESULT:      -8.6      2.352      3.147
REMARK  9 active torsions:
REMARK  status: ('A' for Active; 'I' for Inactive)
REMARK    1  A    between atoms: C_4  and  N_5 
REMARK    2  A    between atoms: C_6  and  S_7 
REMARK    3  A    between atoms: S_7  and  C_8 
REMARK    4  A    between atoms: C_8  and  C_9 
REMARK       I    between atoms: C_9  and  N_10 
REMARK    5  A    between atoms: N_10  and  C_11 
REMARK    6  A    between atoms: C_12  and  C_13 
REMARK       I    between atoms: C_13  and  N_14 
REMARK    7  A    between atoms: N_14  and  C_15 
REMARK    8  A    between atoms: C_26  and  C_27 
REMARK    9  A    between atoms: C_27  and  N_28 
ROOT
HETATM    1  S   UNL     1       8.358  29.392  57.137  1.00  0.00    -0.080 SA
ENDROOT
BRANCH   1   2
HETATM    2  C   UNL     1       7.728  27.782  57.163  1.00  0.00     0.196 C 
HETATM    3  N   UNL     1       6.848  27.230  56.246  1.00  0.00    -0.274 N 
HETATM    4  C   UNL     1       6.813  25.891  56.611  1.00  0.00     0.161 C 
HETATM    5  N   UNL     1       7.389  25.726  57.781  1.00  0.00    -0.132 NA
HETATM    6  N   UNL     1       7.950  26.917  58.127  1.00  0.00    -0.122 NA
BRANCH   3   7
HETATM    7  C   UNL     1       6.103  27.820  55.192  1.00  0.00     0.043 A 
HETATM    8  C   UNL     1       4.793  28.269  55.378  1.00  0.00     0.030 A 
HETATM    9  C   UNL     1       4.091  28.826  54.304  1.00  0.00     0.002 A 
HETATM   10  C   UNL     1       4.687  28.927  53.047  1.00  0.00     0.000 A 
HETATM   11  C   UNL     1       5.990  28.476  52.856  1.00  0.00     0.002 A 
HETATM   12  C   UNL     1       6.700  27.925  53.924  1.00  0.00     0.030 A 
ENDBRANCH   3   7
BRANCH   4  13
HETATM   13  C   UNL     1       6.404  24.773  55.723  1.00  0.00     0.315 C 
BRANCH  13  14
HETATM   14  N   UNL     1       7.611  24.095  55.113  1.00  0.00    -0.064 N 
HETATM   15  H   UNL     1       8.421  24.458  55.644  1.00  0.00     0.280 HD
HETATM   16  C   UNL     1       7.887  24.468  53.662  1.00  0.00     0.235 C 
HETATM   17  C   UNL     1       7.712  23.162  52.911  1.00  0.00     0.029 C 
HETATM   18  C   UNL     1       8.192  22.122  53.902  1.00  0.00     0.029 C 
HETATM   19  C   UNL     1       7.585  22.592  55.209  1.00  0.00     0.235 C 
ENDBRANCH  13  14
ENDBRANCH   4  13
ENDBRANCH   1   2
BRANCH   1  20
HETATM   20  C   UNL     1       7.005  30.341  57.878  1.00  0.00     0.185 C 
BRANCH  20  21
HETATM   21  C   UNL     1       7.486  31.267  58.989  1.00  0.00     0.231 C 
HETATM   22  N   UNL     1       6.679  31.235  60.115  1.00  0.00    -0.326 N 
HETATM   23  H   UNL     1       5.773  30.795  60.005  1.00  0.00     0.169 HD
HETATM   24  O   UNL     1       8.440  32.024  58.830  1.00  0.00    -0.272 OA
BRANCH  22  25
HETATM   25  C   UNL     1       6.841  32.018  61.277  1.00  0.00     0.050 A 
HETATM   26  C   UNL     1       6.011  33.068  61.696  1.00  0.00     0.058 A 
HETATM   27  C   UNL     1       6.253  33.708  62.926  1.00  0.00     0.019 A 
HETATM   28  C   UNL     1       7.326  33.323  63.728  1.00  0.00     0.001 A 
HETATM   29  C   UNL     1       8.189  32.325  63.289  1.00  0.00     0.002 A 
HETATM   30  C   UNL     1       7.955  31.688  62.068  1.00  0.00     0.030 A 
BRANCH  26  31
HETATM   31  C   UNL     1       5.010  33.741  60.835  1.00  0.00     0.254 C 
HETATM   32  N   UNL     1       4.850  35.083  61.107  1.00  0.00    -0.352 N 
HETATM   33  H   UNL     1       5.060  35.366  62.063  1.00  0.00     0.163 HD
HETATM   34  O   UNL     1       4.488  33.126  59.909  1.00  0.00    -0.268 OA
BRANCH  32  35
HETATM   35  C   UNL     1       4.070  35.975  60.314  1.00  0.00     0.084 A 
HETATM   36  C   UNL     1       2.961  36.815  60.879  1.00  0.00     0.027 A 
HETATM   37  C   UNL     1       4.249  37.462  60.469  1.00  0.00     0.027 A 
ENDBRANCH  32  35
ENDBRANCH  26  31
ENDBRANCH  22  25
ENDBRANCH  20  21
ENDBRANCH   1  20
TORSDOF 9
ENDMDL
MODEL 8
REMARK VINA RESULT:      -8.6      3.442      5.979
REMARK  9 active torsions:
REMARK  status: ('A' for Active; 'I' for Inactive)
REMARK    1  A    between atoms: C_4  and  N_5 
REMARK    2  A    between atoms: C_6  and  S_7 
REMARK    3  A    between atoms: S_7  and  C_8 
REMARK    4  A    between atoms: C_8  and  C_9 
REMARK       I    between atoms: C_9  and  N_10 
REMARK    5  A    between atoms: N_10  and  C_11 
REMARK    6  A    between atoms: C_12  and  C_13 
REMARK       I    between atoms: C_13  and  N_14 
REMARK    7  A    between atoms: N_14  and  C_15 
REMARK    8  A    between atoms: C_26  and  C_27 
REMARK    9  A    between atoms: C_27  and  N_28 
ROOT
HETATM    1  S   UNL     1       7.107  28.631  55.852  1.00  0.00    -0.080 SA
ENDROOT
BRANCH   1   2
HETATM    2  C   UNL     1       7.621  27.100  56.468  1.00  0.00     0.196 C 
HETATM    3  N   UNL     1       7.611  25.895  55.784  1.00  0.00    -0.274 N 
HETATM    4  C   UNL     1       8.285  25.039  56.645  1.00  0.00     0.161 C 
HETATM    5  N   UNL     1       8.430  25.604  57.824  1.00  0.00    -0.132 NA
HETATM    6  N   UNL     1       8.001  26.891  57.709  1.00  0.00    -0.122 NA
BRANCH   3   7
HETATM    7  C   UNL     1       7.049  25.533  54.533  1.00  0.00     0.043 A 
HETATM    8  C   UNL     1       5.706  25.173  54.405  1.00  0.00     0.030 A 
HETATM    9  C   UNL     1       5.201  24.806  53.154  1.00  0.00     0.002 A 
HETATM   10  C   UNL     1       6.032  24.787  52.035  1.00  0.00     0.000 A 
HETATM   11  C   UNL     1       7.373  25.140  52.158  1.00  0.00     0.002 A 
HETATM   12  C   UNL     1       7.883  25.515  53.401  1.00  0.00     0.030 A 
ENDBRANCH   3   7
BRANCH   4  13
HETATM   13  C   UNL     1       8.953  23.774  56.246  1.00  0.00     0.315 C 
BRANCH  13  14
HETATM   14  N   UNL     1       7.964  22.629  56.200  1.00  0.00    -0.064 N 
HETATM   15  H   UNL     1       7.080  23.022  56.563  1.00  0.00     0.280 HD
HETATM   16  C   UNL     1       8.293  21.465  57.126  1.00  0.00     0.235 C 
HETATM   17  C   UNL     1       8.535  20.305  56.180  1.00  0.00     0.029 C 
HETATM   18  C   UNL     1       7.580  20.581  55.037  1.00  0.00     0.029 C 
HETATM   19  C   UNL     1       7.733  22.073  54.819  1.00  0.00     0.235 C 
ENDBRANCH  13  14
ENDBRANCH   4  13
ENDBRANCH   1   2
BRANCH   1  20
HETATM   20  C   UNL     1       5.535  28.879  56.716  1.00  0.00     0.185 C 
BRANCH  20  21
HETATM   21  C   UNL     1       4.443  29.413  55.795  1.00  0.00     0.231 C 
HETATM   22  N   UNL     1       4.902  29.723  54.525  1.00  0.00    -0.326 N 
HETATM   23  H   UNL     1       5.907  29.776  54.412  1.00  0.00     0.169 HD
HETATM   24  O   UNL     1       3.304  29.626  56.202  1.00  0.00    -0.272 OA
BRANCH  22  25
HETATM   25  C   UNL     1       4.139  30.282  53.478  1.00  0.00     0.050 A 
HETATM   26  C   UNL     1       3.881  29.697  52.231  1.00  0.00     0.058 A 
HETATM   27  C   UNL     1       3.031  30.343  51.313  1.00  0.00     0.019 A 
HETATM   28  C   UNL     1       2.456  31.575  51.623  1.00  0.00     0.001 A 
HETATM   29  C   UNL     1       2.759  32.189  52.833  1.00  0.00     0.002 A 
HETATM   30  C   UNL     1       3.603  31.554  53.746  1.00  0.00     0.030 A 
BRANCH  26  31
HETATM   31  C   UNL     1       4.621  28.538  51.678  1.00  0.00     0.254 C 
HETATM   32  N   UNL     1       4.005  27.946  50.597  1.00  0.00    -0.352 N 
HETATM   33  H   UNL     1       2.991  28.044  50.559  1.00  0.00     0.163 HD
HETATM   34  O   UNL     1       5.731  28.253  52.121  1.00  0.00    -0.268 OA
BRANCH  32  35
HETATM   35  C   UNL     1       4.596  26.924  49.797  1.00  0.00     0.084 A 
HETATM   36  C   UNL     1       3.813  26.094  48.820  1.00  0.00     0.027 A 
HETATM   37  C   UNL     1       4.763  27.138  48.316  1.00  0.00     0.027 A 
ENDBRANCH  32  35
ENDBRANCH  26  31
ENDBRANCH  22  25
ENDBRANCH  20  21
ENDBRANCH   1  20
TORSDOF 9
ENDMDL
MODEL 9
REMARK VINA RESULT:      -8.5      2.473      4.858
REMARK  9 active torsions:
REMARK  status: ('A' for Active; 'I' for Inactive)
REMARK    1  A    between atoms: C_4  and  N_5 
REMARK    2  A    between atoms: C_6  and  S_7 
REMARK    3  A    between atoms: S_7  and  C_8 
REMARK    4  A    between atoms: C_8  and  C_9 
REMARK       I    between atoms: C_9  and  N_10 
REMARK    5  A    between atoms: N_10  and  C_11 
REMARK    6  A    between atoms: C_12  and  C_13 
REMARK       I    between atoms: C_13  and  N_14 
REMARK    7  A    between atoms: N_14  and  C_15 
REMARK    8  A    between atoms: C_26  and  C_27 
REMARK    9  A    between atoms: C_27  and  N_28 
ROOT
HETATM    1  S   UNL     1       5.161  30.804  56.529  1.00  0.00    -0.080 SA
ENDROOT
BRANCH   1   2
HETATM    2  C   UNL     1       5.513  29.113  56.597  1.00  0.00     0.196 C 
HETATM    3  N   UNL     1       6.746  28.541  56.866  1.00  0.00    -0.274 N 
HETATM    4  C   UNL     1       6.447  27.190  56.984  1.00  0.00     0.161 C 
HETATM    5  N   UNL     1       5.225  26.958  56.557  1.00  0.00    -0.132 NA
HETATM    6  N   UNL     1       4.649  28.166  56.304  1.00  0.00    -0.122 NA
BRANCH   3   7
HETATM    7  C   UNL     1       8.039  29.114  56.977  1.00  0.00     0.043 A 
HETATM    8  C   UNL     1       8.476  29.722  58.155  1.00  0.00     0.030 A 
HETATM    9  C   UNL     1       9.753  30.290  58.212  1.00  0.00     0.002 A 
HETATM   10  C   UNL     1      10.588  30.262  57.095  1.00  0.00     0.000 A 
HETATM   11  C   UNL     1      10.155  29.662  55.917  1.00  0.00     0.002 A 
HETATM   12  C   UNL     1       8.885  29.086  55.854  1.00  0.00     0.030 A 
ENDBRANCH   3   7
BRANCH   4  13
HETATM   13  C   UNL     1       7.278  26.190  57.699  1.00  0.00     0.315 C 
BRANCH  13  14
HETATM   14  N   UNL     1       8.183  25.449  56.737  1.00  0.00    -0.064 N 
HETATM   15  H   UNL     1       8.988  26.080  56.586  1.00  0.00     0.280 HD
HETATM   16  C   UNL     1       7.591  25.220  55.353  1.00  0.00     0.235 C 
HETATM   17  C   UNL     1       7.492  23.710  55.245  1.00  0.00     0.029 C 
HETATM   18  C   UNL     1       8.689  23.225  56.037  1.00  0.00     0.029 C 
HETATM   19  C   UNL     1       8.677  24.124  57.256  1.00  0.00     0.235 C 
ENDBRANCH  13  14
ENDBRANCH   4  13
ENDBRANCH   1   2
BRANCH   1  20
HETATM   20  C   UNL     1       4.386  31.096  58.138  1.00  0.00     0.185 C 
BRANCH  20  21
HETATM   21  C   UNL     1       4.979  32.302  58.860  1.00  0.00     0.231 C 
HETATM   22  N   UNL     1       4.166  32.789  59.870  1.00  0.00    -0.326 N 
HETATM   23  H   UNL     1       3.209  32.455  59.875  1.00  0.00     0.169 HD
HETATM   24  O   UNL     1       6.029  32.820  58.490  1.00  0.00    -0.272 OA
BRANCH  22  25
HETATM   25  C   UNL     1       4.423  33.921  60.672  1.00  0.00     0.050 A 
HETATM   26  C   UNL     1       5.437  34.050  61.630  1.00  0.00     0.058 A 
HETATM   27  C   UNL     1       5.623  35.275  62.298  1.00  0.00     0.019 A 
HETATM   28  C   UNL     1       4.791  36.362  62.032  1.00  0.00     0.001 A 
HETATM   29  C   UNL     1       3.744  36.221  61.129  1.00  0.00     0.002 A 
HETATM   30  C   UNL     1       3.554  35.007  60.465  1.00  0.00     0.030 A 
BRANCH  26  31
HETATM   31  C   UNL     1       6.213  32.917  62.190  1.00  0.00     0.254 C 
HETATM   32  N   UNL     1       7.547  32.929  61.845  1.00  0.00    -0.352 N 
HETATM   33  H   UNL     1       7.770  33.391  60.965  1.00  0.00     0.163 HD
HETATM   34  O   UNL     1       5.677  32.137  62.973  1.00  0.00    -0.268 OA
BRANCH  32  35
HETATM   35  C   UNL     1       8.524  32.043  62.388  1.00  0.00     0.084 A 
HETATM   36  C   UNL     1       8.768  30.663  61.848  1.00  0.00     0.027 A 
HETATM   37  C   UNL     1       9.778  31.746  61.609  1.00  0.00     0.027 A 
ENDBRANCH  32  35
ENDBRANCH  26  31
ENDBRANCH  22  25
ENDBRANCH  20  21
ENDBRANCH   1  20
TORSDOF 9
ENDMDL
MODEL 10
REMARK VINA RESULT:      -8.5      2.176      4.197
REMARK  9 active torsions:
REMARK  status: ('A' for Active; 'I' for Inactive)
REMARK    1  A    between atoms: C_4  and  N_5 
REMARK    2  A    between atoms: C_6  and  S_7 
REMARK    3  A    between atoms: S_7  and  C_8 
REMARK    4  A    between atoms: C_8  and  C_9 
REMARK       I    between atoms: C_9  and  N_10 
REMARK    5  A    between atoms: N_10  and  C_11 
REMARK    6  A    between atoms: C_12  and  C_13 
REMARK       I    between atoms: C_13  and  N_14 
REMARK    7  A    between atoms: N_14  and  C_15 
REMARK    8  A    between atoms: C_26  and  C_27 
REMARK    9  A    between atoms: C_27  and  N_28 
ROOT
HETATM    1  S   UNL     1       7.136  27.825  57.212  1.00  0.00    -0.080 SA
ENDROOT
BRANCH   1   2
HETATM    2  C   UNL     1       6.266  28.207  55.768  1.00  0.00     0.196 C 
HETATM    3  N   UNL     1       6.067  27.368  54.683  1.00  0.00    -0.274 N 
HETATM    4  C   UNL     1       5.169  28.077  53.897  1.00  0.00     0.161 C 
HETATM    5  N   UNL     1       5.067  29.314  54.331  1.00  0.00    -0.132 NA
HETATM    6  N   UNL     1       5.766  29.393  55.496  1.00  0.00    -0.122 NA
BRANCH   3   7
HETATM    7  C   UNL     1       6.625  26.103  54.364  1.00  0.00     0.043 A 
HETATM    8  C   UNL     1       6.323  24.957  55.103  1.00  0.00     0.030 A 
HETATM    9  C   UNL     1       6.912  23.735  54.762  1.00  0.00     0.002 A 
HETATM   10  C   UNL     1       7.806  23.656  53.695  1.00  0.00     0.000 A 
HETATM   11  C   UNL     1       8.115  24.796  52.959  1.00  0.00     0.002 A 
HETATM   12  C   UNL     1       7.526  26.018  53.287  1.00  0.00     0.030 A 
ENDBRANCH   3   7
BRANCH   4  13
HETATM   13  C   UNL     1       4.277  27.484  52.869  1.00  0.00     0.315 C 
BRANCH  13  14
HETATM   14  N   UNL     1       4.845  27.678  51.480  1.00  0.00    -0.064 N 
HETATM   15  H   UNL     1       5.769  28.118  51.626  1.00  0.00     0.280 HD
HETATM   16  C   UNL     1       4.072  28.658  50.606  1.00  0.00     0.235 C 
HETATM   17  C   UNL     1       3.562  27.801  49.462  1.00  0.00     0.029 C 
HETATM   18  C   UNL     1       4.661  26.775  49.279  1.00  0.00     0.029 C 
HETATM   19  C   UNL     1       5.018  26.399  50.702  1.00  0.00     0.235 C 
ENDBRANCH  13  14
ENDBRANCH   4  13
ENDBRANCH   1   2
BRANCH   1  20
HETATM   20  C   UNL     1       8.740  28.607  56.908  1.00  0.00     0.185 C 
BRANCH  20  21
HETATM   21  C   UNL     1       9.036  29.732  57.894  1.00  0.00     0.231 C 
HETATM   22  N   UNL     1       8.141  29.782  58.951  1.00  0.00    -0.326 N 
HETATM   23  H   UNL     1       7.292  29.239  58.845  1.00  0.00     0.169 HD
HETATM   24  O   UNL     1       9.927  30.551  57.689  1.00  0.00    -0.272 OA
BRANCH  22  25
HETATM   25  C   UNL     1       8.128  30.740  59.986  1.00  0.00     0.050 A 
HETATM   26  C   UNL     1       7.186  31.763  60.163  1.00  0.00     0.058 A 
HETATM   27  C   UNL     1       7.257  32.597  61.295  1.00  0.00     0.019 A 
HETATM   28  C   UNL     1       8.272  32.431  62.236  1.00  0.00     0.001 A 
HETATM   29  C   UNL     1       9.246  31.459  62.034  1.00  0.00     0.002 A 
HETATM   30  C   UNL     1       9.181  30.630  60.912  1.00  0.00     0.030 A 
BRANCH  26  31
HETATM   31  C   UNL     1       6.227  32.210  59.125  1.00  0.00     0.254 C 
HETATM   32  N   UNL     1       5.176  32.952  59.618  1.00  0.00    -0.352 N 
HETATM   33  H   UNL     1       4.919  32.764  60.586  1.00  0.00     0.163 HD
HETATM   34  O   UNL     1       6.467  31.998  57.939  1.00  0.00    -0.268 OA
BRANCH  32  35
HETATM   35  C   UNL     1       4.219  33.627  58.804  1.00  0.00     0.084 A 
HETATM   36  C   UNL     1       2.937  34.192  59.346  1.00  0.00     0.027 A 
HETATM   37  C   UNL     1       4.044  35.117  58.935  1.00  0.00     0.027 A 
ENDBRANCH  32  35
ENDBRANCH  26  31
ENDBRANCH  22  25
ENDBRANCH  20  21
ENDBRANCH   1  20
TORSDOF 9
ENDMDL
