MODEL 1
REMARK VINA RESULT:      -7.6      0.000      0.000
REMARK  3 active torsions:
REMARK  status: ('A' for Active; 'I' for Inactive)
REMARK    1  A    between atoms: C_7  and  C_8 
REMARK       I    between atoms: C_8  and  N_9 
REMARK    2  A    between atoms: C_19  and  C_20 
REMARK    3  A    between atoms: C_22  and  O_23 
ROOT
HETATM    1  C   UNL     1       4.848  27.853  49.824  1.00  0.00     0.258 C 
HETATM    2  N   UNL     1       4.758  27.285  51.095  1.00  0.00    -0.340 N 
HETATM    3  C   UNL     1       4.246  27.894  52.318  1.00  0.00     0.123 C 
HETATM    4  C   UNL     1       4.237  26.739  53.362  1.00  0.00     0.221 C 
HETATM    5  N   UNL     1       5.007  27.177  54.613  1.00  0.00    -0.064 N 
HETATM    6  H   UNL     1       5.008  26.409  55.298  1.00  0.00     0.280 HD
HETATM    7  C   UNL     1       6.454  27.593  54.385  1.00  0.00     0.236 C 
HETATM    8  C   UNL     1       6.495  28.592  53.237  1.00  0.00     0.034 C 
HETATM    9  C   UNL     1       5.073  29.068  52.895  1.00  0.00     0.014 C 
HETATM   10  C   UNL     1       4.396  29.536  54.205  1.00  0.00     0.034 C 
HETATM   11  C   UNL     1       4.287  28.382  55.213  1.00  0.00     0.236 C 
HETATM   12  C   UNL     1       4.690  25.445  52.627  1.00  0.00     0.070 C 
HETATM   13  C   UNL     1       4.600  25.840  51.147  1.00  0.00     0.138 C 
HETATM   14  O   UNL     1       5.386  27.258  48.897  1.00  0.00    -0.267 OA
ENDROOT
BRANCH   1  15
HETATM   15  C   UNL     1       4.159  29.098  49.615  1.00  0.00     0.089 C 
HETATM   16  C   UNL     1       2.790  29.275  49.281  1.00  0.00     0.076 C 
HETATM   17  C   UNL     1       1.768  28.230  49.030  1.00  0.00     0.074 C 
HETATM   18  N   UNL     1       2.477  30.571  49.189  1.00  0.00    -0.132 NA
HETATM   19  O   UNL     1       3.670  31.254  49.341  1.00  0.00    -0.217 OA
HETATM   20  C   UNL     1       4.681  30.369  49.555  1.00  0.00     0.092 C 
HETATM   21  C   UNL     1       6.028  30.955  49.675  1.00  0.00     0.080 C 
ENDBRANCH   1  15
BRANCH  12  22
HETATM   22  C   UNL     1       5.983  24.776  53.041  1.00  0.00    -0.048 A 
HETATM   23  C   UNL     1       6.135  24.097  54.265  1.00  0.00     0.044 A 
HETATM   24  C   UNL     1       7.350  23.496  54.585  1.00  0.00     0.066 A 
HETATM   25  C   UNL     1       8.427  23.551  53.712  1.00  0.00     0.036 A 
HETATM   26  C   UNL     1       8.300  24.237  52.507  1.00  0.00     0.003 A 
HETATM   27  C   UNL     1       7.090  24.850  52.175  1.00  0.00     0.008 A 
BRANCH  24  28
HETATM   28  O   UNL     1       7.517  22.823  55.756  1.00  0.00    -0.361 OA
HETATM   29  H   UNL     1       7.055  21.969  55.715  1.00  0.00     0.217 HD
ENDBRANCH  24  28
ENDBRANCH  12  22
TORSDOF 3
ENDMDL
MODEL 2
REMARK VINA RESULT:      -7.3     11.723     14.566
REMARK  3 active torsions:
REMARK  status: ('A' for Active; 'I' for Inactive)
REMARK    1  A    between atoms: C_7  and  C_8 
REMARK       I    between atoms: C_8  and  N_9 
REMARK    2  A    between atoms: C_19  and  C_20 
REMARK    3  A    between atoms: C_22  and  O_23 
ROOT
HETATM    1  C   UNL     1       4.543  33.560  63.673  1.00  0.00     0.258 C 
HETATM    2  N   UNL     1       4.720  34.489  62.647  1.00  0.00    -0.340 N 
HETATM    3  C   UNL     1       5.436  35.758  62.698  1.00  0.00     0.123 C 
HETATM    4  C   UNL     1       5.445  36.268  61.226  1.00  0.00     0.221 C 
HETATM    5  N   UNL     1       4.880  37.692  61.177  1.00  0.00    -0.064 N 
HETATM    6  H   UNL     1       4.877  38.023  60.203  1.00  0.00     0.280 HD
HETATM    7  C   UNL     1       3.470  37.862  61.726  1.00  0.00     0.236 C 
HETATM    8  C   UNL     1       3.401  37.203  63.096  1.00  0.00     0.034 C 
HETATM    9  C   UNL     1       4.815  36.858  63.593  1.00  0.00     0.014 C 
HETATM   10  C   UNL     1       5.689  38.129  63.470  1.00  0.00     0.034 C 
HETATM   11  C   UNL     1       5.792  38.591  62.009  1.00  0.00     0.236 C 
HETATM   12  C   UNL     1       4.772  35.172  60.352  1.00  0.00     0.070 C 
HETATM   13  C   UNL     1       4.727  33.959  61.292  1.00  0.00     0.138 C 
HETATM   14  O   UNL     1       3.838  32.569  63.520  1.00  0.00    -0.267 OA
ENDROOT
BRANCH   1  15
HETATM   15  C   UNL     1       5.332  33.741  64.862  1.00  0.00     0.089 C 
HETATM   16  C   UNL     1       4.907  34.304  66.095  1.00  0.00     0.076 C 
HETATM   17  C   UNL     1       3.578  34.870  66.432  1.00  0.00     0.074 C 
HETATM   18  N   UNL     1       5.892  34.293  66.997  1.00  0.00    -0.132 NA
HETATM   19  O   UNL     1       7.010  33.835  66.324  1.00  0.00    -0.217 OA
HETATM   20  C   UNL     1       6.681  33.544  65.036  1.00  0.00     0.092 C 
HETATM   21  C   UNL     1       7.794  33.100  64.178  1.00  0.00     0.080 C 
ENDBRANCH   1  15
BRANCH  12  22
HETATM   22  C   UNL     1       3.472  35.489  59.643  1.00  0.00    -0.048 A 
HETATM   23  C   UNL     1       2.213  35.112  60.148  1.00  0.00     0.044 A 
HETATM   24  C   UNL     1       1.053  35.440  59.451  1.00  0.00     0.066 A 
HETATM   25  C   UNL     1       1.112  36.140  58.255  1.00  0.00     0.036 A 
HETATM   26  C   UNL     1       2.350  36.501  57.730  1.00  0.00     0.003 A 
HETATM   27  C   UNL     1       3.522  36.175  58.415  1.00  0.00     0.008 A 
BRANCH  24  28
HETATM   28  O   UNL     1      -0.176  35.099  59.926  1.00  0.00    -0.361 OA
HETATM   29  H   UNL     1      -0.106  34.305  60.482  1.00  0.00     0.217 HD
ENDBRANCH  24  28
ENDBRANCH  12  22
TORSDOF 3
ENDMDL
MODEL 3
REMARK VINA RESULT:      -7.0     10.461     11.894
REMARK  3 active torsions:
REMARK  status: ('A' for Active; 'I' for Inactive)
REMARK    1  A    between atoms: C_7  and  C_8 
REMARK       I    between atoms: C_8  and  N_9 
REMARK    2  A    between atoms: C_19  and  C_20 
REMARK    3  A    between atoms: C_22  and  O_23 
ROOT
HETATM    1  C   UNL     1       4.065  35.558  59.043  1.00  0.00     0.258 C 
HETATM    2  N   UNL     1       4.267  34.758  60.168  1.00  0.00    -0.340 N 
HETATM    3  C   UNL     1       3.787  34.981  61.528  1.00  0.00     0.123 C 
HETATM    4  C   UNL     1       4.171  33.685  62.301  1.00  0.00     0.221 C 
HETATM    5  N   UNL     1       4.971  34.059  63.554  1.00  0.00    -0.064 N 
HETATM    6  H   UNL     1       5.233  33.200  64.059  1.00  0.00     0.280 HD
HETATM    7  C   UNL     1       6.245  34.857  63.310  1.00  0.00     0.236 C 
HETATM    8  C   UNL     1       5.914  36.031  62.400  1.00  0.00     0.034 C 
HETATM    9  C   UNL     1       4.389  36.194  62.275  1.00  0.00     0.014 C 
HETATM   10  C   UNL     1       3.793  36.225  63.703  1.00  0.00     0.034 C 
HETATM   11  C   UNL     1       4.076  34.912  64.449  1.00  0.00     0.236 C 
HETATM   12  C   UNL     1       4.811  32.706  61.276  1.00  0.00     0.070 C 
HETATM   13  C   UNL     1       4.450  33.336  59.924  1.00  0.00     0.138 C 
HETATM   14  O   UNL     1       4.604  35.300  57.973  1.00  0.00    -0.267 OA
ENDROOT
BRANCH   1  15
HETATM   15  C   UNL     1       3.091  36.610  59.155  1.00  0.00     0.089 C 
HETATM   16  C   UNL     1       3.343  37.998  59.315  1.00  0.00     0.076 C 
HETATM   17  C   UNL     1       4.653  38.681  59.443  1.00  0.00     0.074 C 
HETATM   18  N   UNL     1       2.204  38.696  59.357  1.00  0.00    -0.132 NA
HETATM   19  O   UNL     1       1.190  37.756  59.350  1.00  0.00    -0.217 OA
HETATM   20  C   UNL     1       1.724  36.507  59.270  1.00  0.00     0.092 C 
HETATM   21  C   UNL     1       0.758  35.395  59.315  1.00  0.00     0.080 C 
ENDBRANCH   1  15
BRANCH  12  22
HETATM   22  C   UNL     1       6.264  32.313  61.440  1.00  0.00    -0.048 A 
HETATM   23  C   UNL     1       7.263  32.678  60.517  1.00  0.00     0.044 A 
HETATM   24  C   UNL     1       8.584  32.291  60.728  1.00  0.00     0.066 A 
HETATM   25  C   UNL     1       8.941  31.545  61.842  1.00  0.00     0.036 A 
HETATM   26  C   UNL     1       7.962  31.157  62.752  1.00  0.00     0.003 A 
HETATM   27  C   UNL     1       6.632  31.533  62.552  1.00  0.00     0.008 A 
BRANCH  24  28
HETATM   28  O   UNL     1       9.570  32.643  59.858  1.00  0.00    -0.361 OA
HETATM   29  H   UNL     1      10.358  32.095  60.013  1.00  0.00     0.217 HD
ENDBRANCH  24  28
ENDBRANCH  12  22
TORSDOF 3
ENDMDL
MODEL 4
REMARK VINA RESULT:      -7.0     10.897     13.602
REMARK  3 active torsions:
REMARK  status: ('A' for Active; 'I' for Inactive)
REMARK    1  A    between atoms: C_7  and  C_8 
REMARK       I    between atoms: C_8  and  N_9 
REMARK    2  A    between atoms: C_19  and  C_20 
REMARK    3  A    between atoms: C_22  and  O_23 
ROOT
HETATM    1  C   UNL     1       3.572  37.383  61.053  1.00  0.00     0.258 C 
HETATM    2  N   UNL     1       4.402  36.437  61.658  1.00  0.00    -0.340 N 
HETATM    3  C   UNL     1       4.977  35.235  61.065  1.00  0.00     0.123 C 
HETATM    4  C   UNL     1       5.940  34.678  62.153  1.00  0.00     0.221 C 
HETATM    5  N   UNL     1       5.598  33.209  62.432  1.00  0.00    -0.064 N 
HETATM    6  H   UNL     1       6.230  32.846  63.159  1.00  0.00     0.280 HD
HETATM    7  C   UNL     1       4.170  32.940  62.886  1.00  0.00     0.236 C 
HETATM    8  C   UNL     1       3.217  33.638  61.925  1.00  0.00     0.034 C 
HETATM    9  C   UNL     1       3.977  34.119  60.677  1.00  0.00     0.014 C 
HETATM   10  C   UNL     1       4.784  32.923  60.117  1.00  0.00     0.034 C 
HETATM   11  C   UNL     1       5.812  32.421  61.142  1.00  0.00     0.236 C 
HETATM   12  C   UNL     1       5.929  35.682  63.341  1.00  0.00     0.070 C 
HETATM   13  C   UNL     1       5.245  36.918  62.741  1.00  0.00     0.138 C 
HETATM   14  O   UNL     1       3.083  38.304  61.697  1.00  0.00    -0.267 OA
ENDROOT
BRANCH   1  15
HETATM   15  C   UNL     1       3.433  37.311  59.624  1.00  0.00     0.089 C 
HETATM   16  C   UNL     1       4.255  37.938  58.650  1.00  0.00     0.076 C 
HETATM   17  C   UNL     1       5.413  38.839  58.873  1.00  0.00     0.074 C 
HETATM   18  N   UNL     1       3.856  37.635  57.412  1.00  0.00    -0.132 NA
HETATM   19  O   UNL     1       2.691  36.905  57.563  1.00  0.00    -0.217 OA
HETATM   20  C   UNL     1       2.419  36.748  58.886  1.00  0.00     0.092 C 
HETATM   21  C   UNL     1       1.166  36.037  59.200  1.00  0.00     0.080 C 
ENDBRANCH   1  15
BRANCH  12  22
HETATM   22  C   UNL     1       5.392  35.231  64.682  1.00  0.00    -0.048 A 
HETATM   23  C   UNL     1       4.117  35.593  65.157  1.00  0.00     0.044 A 
HETATM   24  C   UNL     1       3.678  35.140  66.398  1.00  0.00     0.066 A 
HETATM   25  C   UNL     1       4.479  34.327  67.187  1.00  0.00     0.036 A 
HETATM   26  C   UNL     1       5.751  33.977  66.742  1.00  0.00     0.003 A 
HETATM   27  C   UNL     1       6.208  34.429  65.502  1.00  0.00     0.008 A 
BRANCH  24  28
HETATM   28  O   UNL     1       2.444  35.466  66.872  1.00  0.00    -0.361 OA
HETATM   29  H   UNL     1       2.421  35.353  67.837  1.00  0.00     0.217 HD
ENDBRANCH  24  28
ENDBRANCH  12  22
TORSDOF 3
ENDMDL
MODEL 5
REMARK VINA RESULT:      -6.4      2.596      6.051
REMARK  3 active torsions:
REMARK  status: ('A' for Active; 'I' for Inactive)
REMARK    1  A    between atoms: C_7  and  C_8 
REMARK       I    between atoms: C_8  and  N_9 
REMARK    2  A    between atoms: C_19  and  C_20 
REMARK    3  A    between atoms: C_22  and  O_23 
ROOT
HETATM    1  C   UNL     1       6.236  26.453  53.818  1.00  0.00     0.258 C 
HETATM    2  N   UNL     1       5.877  27.343  52.805  1.00  0.00    -0.340 N 
HETATM    3  C   UNL     1       5.444  28.729  52.937  1.00  0.00     0.123 C 
HETATM    4  C   UNL     1       5.352  29.257  51.476  1.00  0.00     0.221 C 
HETATM    5  N   UNL     1       3.961  29.857  51.237  1.00  0.00    -0.064 N 
HETATM    6  H   UNL     1       3.900  30.196  50.267  1.00  0.00     0.280 HD
HETATM    7  C   UNL     1       2.788  28.915  51.471  1.00  0.00     0.236 C 
HETATM    8  C   UNL     1       2.964  28.251  52.829  1.00  0.00     0.034 C 
HETATM    9  C   UNL     1       4.076  28.954  53.626  1.00  0.00     0.014 C 
HETATM   10  C   UNL     1       3.780  30.473  53.622  1.00  0.00     0.034 C 
HETATM   11  C   UNL     1       3.784  31.034  52.192  1.00  0.00     0.236 C 
HETATM   12  C   UNL     1       5.840  28.116  50.538  1.00  0.00     0.070 C 
HETATM   13  C   UNL     1       6.506  27.132  51.510  1.00  0.00     0.138 C 
HETATM   14  O   UNL     1       6.495  25.280  53.573  1.00  0.00    -0.267 OA
ENDROOT
BRANCH   1  15
HETATM   15  C   UNL     1       6.423  27.002  55.134  1.00  0.00     0.089 C 
HETATM   16  C   UNL     1       7.390  27.964  55.531  1.00  0.00     0.076 C 
HETATM   17  C   UNL     1       8.449  28.592  54.703  1.00  0.00     0.074 C 
HETATM   18  N   UNL     1       7.264  28.272  56.825  1.00  0.00    -0.132 NA
HETATM   19  O   UNL     1       6.292  27.421  57.318  1.00  0.00    -0.217 OA
HETATM   20  C   UNL     1       5.819  26.635  56.313  1.00  0.00     0.092 C 
HETATM   21  C   UNL     1       4.815  25.630  56.706  1.00  0.00     0.080 C 
ENDBRANCH   1  15
BRANCH  12  22
HETATM   22  C   UNL     1       4.864  27.498  49.560  1.00  0.00    -0.048 A 
HETATM   23  C   UNL     1       4.377  26.184  49.692  1.00  0.00     0.044 A 
HETATM   24  C   UNL     1       3.474  25.676  48.760  1.00  0.00     0.066 A 
HETATM   25  C   UNL     1       3.039  26.447  47.692  1.00  0.00     0.036 A 
HETATM   26  C   UNL     1       3.528  27.740  47.534  1.00  0.00     0.003 A 
HETATM   27  C   UNL     1       4.438  28.263  48.457  1.00  0.00     0.008 A 
BRANCH  24  28
HETATM   28  O   UNL     1       2.979  24.413  48.875  1.00  0.00    -0.361 OA
HETATM   29  H   UNL     1       3.482  23.920  49.544  1.00  0.00     0.217 HD
ENDBRANCH  24  28
ENDBRANCH  12  22
TORSDOF 3
ENDMDL
MODEL 6
REMARK VINA RESULT:      -6.4      3.173      4.136
REMARK  3 active torsions:
REMARK  status: ('A' for Active; 'I' for Inactive)
REMARK    1  A    between atoms: C_7  and  C_8 
REMARK       I    between atoms: C_8  and  N_9 
REMARK    2  A    between atoms: C_19  and  C_20 
REMARK    3  A    between atoms: C_22  and  O_23 
ROOT
HETATM    1  C   UNL     1       4.901  30.051  51.734  1.00  0.00     0.258 C 
HETATM    2  N   UNL     1       4.790  29.573  53.041  1.00  0.00    -0.340 N 
HETATM    3  C   UNL     1       3.757  29.877  54.024  1.00  0.00     0.123 C 
HETATM    4  C   UNL     1       4.059  28.929  55.222  1.00  0.00     0.221 C 
HETATM    5  N   UNL     1       4.170  29.756  56.509  1.00  0.00    -0.064 N 
HETATM    6  H   UNL     1       4.380  29.129  57.298  1.00  0.00     0.280 HD
HETATM    7  C   UNL     1       5.225  30.853  56.500  1.00  0.00     0.236 C 
HETATM    8  C   UNL     1       5.053  31.679  55.232  1.00  0.00     0.034 C 
HETATM    9  C   UNL     1       3.719  31.332  54.548  1.00  0.00     0.014 C 
HETATM   10  C   UNL     1       2.597  31.434  55.608  1.00  0.00     0.034 C 
HETATM   11  C   UNL     1       2.824  30.434  56.753  1.00  0.00     0.236 C 
HETATM   12  C   UNL     1       5.260  28.030  54.812  1.00  0.00     0.070 C 
HETATM   13  C   UNL     1       5.360  28.260  53.298  1.00  0.00     0.138 C 
HETATM   14  O   UNL     1       5.876  29.784  51.040  1.00  0.00    -0.267 OA
ENDROOT
BRANCH   1  15
HETATM   15  C   UNL     1       3.765  30.747  51.194  1.00  0.00     0.089 C 
HETATM   16  C   UNL     1       3.599  32.152  51.073  1.00  0.00     0.076 C 
HETATM   17  C   UNL     1       4.528  33.224  51.507  1.00  0.00     0.074 C 
HETATM   18  N   UNL     1       2.430  32.455  50.500  1.00  0.00    -0.132 NA
HETATM   19  O   UNL     1       1.765  31.251  50.353  1.00  0.00    -0.217 OA
HETATM   20  C   UNL     1       2.548  30.236  50.806  1.00  0.00     0.092 C 
HETATM   21  C   UNL     1       1.941  28.894  50.767  1.00  0.00     0.080 C 
ENDBRANCH   1  15
BRANCH  12  22
HETATM   22  C   UNL     1       6.563  28.148  55.572  1.00  0.00    -0.048 A 
HETATM   23  C   UNL     1       7.658  28.897  55.101  1.00  0.00     0.044 A 
HETATM   24  C   UNL     1       8.829  28.972  55.852  1.00  0.00     0.066 A 
HETATM   25  C   UNL     1       8.940  28.316  57.070  1.00  0.00     0.036 A 
HETATM   26  C   UNL     1       7.875  27.554  57.539  1.00  0.00     0.003 A 
HETATM   27  C   UNL     1       6.696  27.465  56.796  1.00  0.00     0.008 A 
BRANCH  24  28
HETATM   28  O   UNL     1       9.896  29.701  55.424  1.00  0.00    -0.361 OA
HETATM   29  H   UNL     1       9.589  30.457  54.897  1.00  0.00     0.217 HD
ENDBRANCH  24  28
ENDBRANCH  12  22
TORSDOF 3
ENDMDL
MODEL 7
REMARK VINA RESULT:      -6.4     16.581     19.853
REMARK  3 active torsions:
REMARK  status: ('A' for Active; 'I' for Inactive)
REMARK    1  A    between atoms: C_7  and  C_8 
REMARK       I    between atoms: C_8  and  N_9 
REMARK    2  A    between atoms: C_19  and  C_20 
REMARK    3  A    between atoms: C_22  and  O_23 
ROOT
HETATM    1  C   UNL     1      14.185   8.441  51.893  1.00  0.00     0.258 C 
HETATM    2  N   UNL     1      13.590   9.589  52.419  1.00  0.00    -0.340 N 
HETATM    3  C   UNL     1      14.220  10.660  53.181  1.00  0.00     0.123 C 
HETATM    4  C   UNL     1      13.109  11.739  53.344  1.00  0.00     0.221 C 
HETATM    5  N   UNL     1      12.949  12.085  54.829  1.00  0.00    -0.064 N 
HETATM    6  H   UNL     1      12.207  12.791  54.935  1.00  0.00     0.280 HD
HETATM    7  C   UNL     1      12.609  10.918  55.746  1.00  0.00     0.236 C 
HETATM    8  C   UNL     1      13.584   9.782  55.464  1.00  0.00     0.034 C 
HETATM    9  C   UNL     1      14.744  10.282  54.588  1.00  0.00     0.014 C 
HETATM   10  C   UNL     1      15.326  11.557  55.244  1.00  0.00     0.034 C 
HETATM   11  C   UNL     1      14.270  12.669  55.323  1.00  0.00     0.236 C 
HETATM   12  C   UNL     1      11.862  11.242  52.559  1.00  0.00     0.070 C 
HETATM   13  C   UNL     1      12.424  10.092  51.710  1.00  0.00     0.138 C 
HETATM   14  O   UNL     1      13.517   7.571  51.347  1.00  0.00    -0.267 OA
ENDROOT
BRANCH   1  15
HETATM   15  C   UNL     1      15.622   8.392  51.894  1.00  0.00     0.089 C 
HETATM   16  C   UNL     1      16.455   7.701  52.813  1.00  0.00     0.076 C 
HETATM   17  C   UNL     1      16.049   6.910  54.000  1.00  0.00     0.074 C 
HETATM   18  N   UNL     1      17.746   7.847  52.502  1.00  0.00    -0.132 NA
HETATM   19  O   UNL     1      17.776   8.740  51.446  1.00  0.00    -0.217 OA
HETATM   20  C   UNL     1      16.507   9.095  51.110  1.00  0.00     0.092 C 
HETATM   21  C   UNL     1      16.386  10.094  50.033  1.00  0.00     0.080 C 
ENDBRANCH   1  15
BRANCH  12  22
HETATM   22  C   UNL     1      10.591  10.924  53.318  1.00  0.00    -0.048 A 
HETATM   23  C   UNL     1       9.742  11.919  53.838  1.00  0.00     0.044 A 
HETATM   24  C   UNL     1       8.582  11.561  54.522  1.00  0.00     0.066 A 
HETATM   25  C   UNL     1       8.242  10.229  54.703  1.00  0.00     0.036 A 
HETATM   26  C   UNL     1       9.082   9.232  54.215  1.00  0.00     0.003 A 
HETATM   27  C   UNL     1      10.251   9.575  53.532  1.00  0.00     0.008 A 
BRANCH  24  28
HETATM   28  O   UNL     1       7.738  12.505  55.022  1.00  0.00    -0.361 OA
HETATM   29  H   UNL     1       6.846  12.374  54.662  1.00  0.00     0.217 HD
ENDBRANCH  24  28
ENDBRANCH  12  22
TORSDOF 3
ENDMDL
MODEL 8
REMARK VINA RESULT:      -6.3     10.639     13.309
REMARK  3 active torsions:
REMARK  status: ('A' for Active; 'I' for Inactive)
REMARK    1  A    between atoms: C_7  and  C_8 
REMARK       I    between atoms: C_8  and  N_9 
REMARK    2  A    between atoms: C_19  and  C_20 
REMARK    3  A    between atoms: C_22  and  O_23 
ROOT
HETATM    1  C   UNL     1       3.272  37.429  60.701  1.00  0.00     0.258 C 
HETATM    2  N   UNL     1       4.128  36.516  61.318  1.00  0.00    -0.340 N 
HETATM    3  C   UNL     1       4.662  35.273  60.772  1.00  0.00     0.123 C 
HETATM    4  C   UNL     1       5.681  34.777  61.839  1.00  0.00     0.221 C 
HETATM    5  N   UNL     1       5.346  33.332  62.229  1.00  0.00    -0.064 N 
HETATM    6  H   UNL     1       6.014  33.009  62.942  1.00  0.00     0.280 HD
HETATM    7  C   UNL     1       3.943  33.105  62.776  1.00  0.00     0.236 C 
HETATM    8  C   UNL     1       2.943  33.750  61.826  1.00  0.00     0.034 C 
HETATM    9  C   UNL     1       3.636  34.144  60.511  1.00  0.00     0.014 C 
HETATM   10  C   UNL     1       4.404  32.908  59.985  1.00  0.00     0.034 C 
HETATM   11  C   UNL     1       5.484  32.462  60.983  1.00  0.00     0.236 C 
HETATM   12  C   UNL     1       5.740  35.853  62.960  1.00  0.00     0.070 C 
HETATM   13  C   UNL     1       5.031  37.055  62.322  1.00  0.00     0.138 C 
HETATM   14  O   UNL     1       2.824  38.394  61.310  1.00  0.00    -0.267 OA
ENDROOT
BRANCH   1  15
HETATM   15  C   UNL     1       3.054  37.269  59.289  1.00  0.00     0.089 C 
HETATM   16  C   UNL     1       1.989  36.571  58.660  1.00  0.00     0.076 C 
HETATM   17  C   UNL     1       0.885  35.816  59.301  1.00  0.00     0.074 C 
HETATM   18  N   UNL     1       2.080  36.645  57.329  1.00  0.00    -0.132 NA
HETATM   19  O   UNL     1       3.277  37.289  57.072  1.00  0.00    -0.217 OA
HETATM   20  C   UNL     1       3.877  37.625  58.246  1.00  0.00     0.092 C 
HETATM   21  C   UNL     1       5.198  38.267  58.127  1.00  0.00     0.080 C 
ENDBRANCH   1  15
BRANCH  12  22
HETATM   22  C   UNL     1       5.274  35.492  64.355  1.00  0.00    -0.048 A 
HETATM   23  C   UNL     1       6.039  34.706  65.237  1.00  0.00     0.044 A 
HETATM   24  C   UNL     1       5.556  34.415  66.511  1.00  0.00     0.066 A 
HETATM   25  C   UNL     1       4.323  34.890  66.934  1.00  0.00     0.036 A 
HETATM   26  C   UNL     1       3.545  35.650  66.066  1.00  0.00     0.003 A 
HETATM   27  C   UNL     1       4.012  35.946  64.784  1.00  0.00     0.008 A 
BRANCH  24  28
HETATM   28  O   UNL     1       6.283  33.668  67.387  1.00  0.00    -0.361 OA
HETATM   29  H   UNL     1       5.736  33.436  68.155  1.00  0.00     0.217 HD
ENDBRANCH  24  28
ENDBRANCH  12  22
TORSDOF 3
ENDMDL
MODEL 9
REMARK VINA RESULT:      -6.3      4.708      6.550
REMARK  3 active torsions:
REMARK  status: ('A' for Active; 'I' for Inactive)
REMARK    1  A    between atoms: C_7  and  C_8 
REMARK       I    between atoms: C_8  and  N_9 
REMARK    2  A    between atoms: C_19  and  C_20 
REMARK    3  A    between atoms: C_22  and  O_23 
ROOT
HETATM    1  C   UNL     1       5.353  32.970  46.477  1.00  0.00     0.258 C 
HETATM    2  N   UNL     1       4.600  32.190  47.355  1.00  0.00    -0.340 N 
HETATM    3  C   UNL     1       4.267  32.471  48.747  1.00  0.00     0.123 C 
HETATM    4  C   UNL     1       3.273  31.343  49.152  1.00  0.00     0.221 C 
HETATM    5  N   UNL     1       3.781  30.648  50.421  1.00  0.00    -0.064 N 
HETATM    6  H   UNL     1       3.127  29.896  50.681  1.00  0.00     0.280 HD
HETATM    7  C   UNL     1       5.172  30.037  50.327  1.00  0.00     0.236 C 
HETATM    8  C   UNL     1       6.122  31.082  49.757  1.00  0.00     0.034 C 
HETATM    9  C   UNL     1       5.448  32.465  49.747  1.00  0.00     0.014 C 
HETATM   10  C   UNL     1       4.882  32.731  51.163  1.00  0.00     0.034 C 
HETATM   11  C   UNL     1       3.824  31.684  51.542  1.00  0.00     0.236 C 
HETATM   12  C   UNL     1       3.011  30.478  47.886  1.00  0.00     0.070 C 
HETATM   13  C   UNL     1       3.582  31.343  46.754  1.00  0.00     0.138 C 
HETATM   14  O   UNL     1       5.635  32.571  45.353  1.00  0.00    -0.267 OA
ENDROOT
BRANCH   1  15
HETATM   15  C   UNL     1       5.661  34.311  46.895  1.00  0.00     0.089 C 
HETATM   16  C   UNL     1       4.843  35.463  46.748  1.00  0.00     0.076 C 
HETATM   17  C   UNL     1       3.513  35.564  46.101  1.00  0.00     0.074 C 
HETATM   18  N   UNL     1       5.429  36.543  47.274  1.00  0.00    -0.132 NA
HETATM   19  O   UNL     1       6.692  36.132  47.660  1.00  0.00    -0.217 OA
HETATM   20  C   UNL     1       6.843  34.806  47.395  1.00  0.00     0.092 C 
HETATM   21  C   UNL     1       8.169  34.240  47.700  1.00  0.00     0.080 C 
ENDBRANCH   1  15
BRANCH  12  22
HETATM   22  C   UNL     1       3.452  29.030  47.879  1.00  0.00    -0.048 A 
HETATM   23  C   UNL     1       4.692  28.610  47.362  1.00  0.00     0.044 A 
HETATM   24  C   UNL     1       5.041  27.262  47.391  1.00  0.00     0.066 A 
HETATM   25  C   UNL     1       4.182  26.312  47.925  1.00  0.00     0.036 A 
HETATM   26  C   UNL     1       2.943  26.707  48.420  1.00  0.00     0.003 A 
HETATM   27  C   UNL     1       2.576  28.054  48.394  1.00  0.00     0.008 A 
BRANCH  24  28
HETATM   28  O   UNL     1       6.240  26.833  46.909  1.00  0.00    -0.361 OA
HETATM   29  H   UNL     1       6.721  26.351  47.603  1.00  0.00     0.217 HD
ENDBRANCH  24  28
ENDBRANCH  12  22
TORSDOF 3
ENDMDL
MODEL 10
REMARK VINA RESULT:      -6.1     24.116     26.030
REMARK  3 active torsions:
REMARK  status: ('A' for Active; 'I' for Inactive)
REMARK    1  A    between atoms: C_7  and  C_8 
REMARK       I    between atoms: C_8  and  N_9 
REMARK    2  A    between atoms: C_19  and  C_20 
REMARK    3  A    between atoms: C_22  and  O_23 
ROOT
HETATM    1  C   UNL     1      -0.691  10.777  68.766  1.00  0.00     0.258 C 
HETATM    2  N   UNL     1      -1.809  10.009  68.439  1.00  0.00    -0.340 N 
HETATM    3  C   UNL     1      -2.530   9.064  69.285  1.00  0.00     0.123 C 
HETATM    4  C   UNL     1      -3.773   8.648  68.446  1.00  0.00     0.221 C 
HETATM    5  N   UNL     1      -3.832   7.119  68.346  1.00  0.00    -0.064 N 
HETATM    6  H   UNL     1      -4.649   6.847  67.782  1.00  0.00     0.280 HD
HETATM    7  C   UNL     1      -2.607   6.450  67.736  1.00  0.00     0.236 C 
HETATM    8  C   UNL     1      -1.365   6.990  68.431  1.00  0.00     0.034 C 
HETATM    9  C   UNL     1      -1.760   7.783  69.688  1.00  0.00     0.014 C 
HETATM   10  C   UNL     1      -2.707   6.899  70.534  1.00  0.00     0.034 C 
HETATM   11  C   UNL     1      -3.988   6.559  69.757  1.00  0.00     0.236 C 
HETATM   12  C   UNL     1      -3.743   9.477  67.130  1.00  0.00     0.070 C 
HETATM   13  C   UNL     1      -2.698  10.561  67.429  1.00  0.00     0.138 C 
HETATM   14  O   UNL     1      -0.126  11.468  67.926  1.00  0.00    -0.267 OA
ENDROOT
BRANCH   1  15
HETATM   15  C   UNL     1      -0.321  10.833  70.154  1.00  0.00     0.089 C 
HETATM   16  C   UNL     1      -0.976  11.554  71.188  1.00  0.00     0.076 C 
HETATM   17  C   UNL     1      -2.158  12.443  71.076  1.00  0.00     0.074 C 
HETATM   18  N   UNL     1      -0.379  11.360  72.367  1.00  0.00    -0.132 NA
HETATM   19  O   UNL     1       0.749  10.608  72.096  1.00  0.00    -0.217 OA
HETATM   20  C   UNL     1       0.803  10.328  70.765  1.00  0.00     0.092 C 
HETATM   21  C   UNL     1       1.991   9.579  70.318  1.00  0.00     0.080 C 
ENDBRANCH   1  15
BRANCH  12  22
HETATM   22  C   UNL     1      -3.571   8.758  65.809  1.00  0.00    -0.048 A 
HETATM   23  C   UNL     1      -4.648   8.206  65.092  1.00  0.00     0.044 A 
HETATM   24  C   UNL     1      -4.424   7.562  63.878  1.00  0.00     0.066 A 
HETATM   25  C   UNL     1      -3.144   7.453  63.352  1.00  0.00     0.036 A 
HETATM   26  C   UNL     1      -2.065   7.974  64.059  1.00  0.00     0.003 A 
HETATM   27  C   UNL     1      -2.273   8.618  65.281  1.00  0.00     0.008 A 
BRANCH  24  28
HETATM   28  O   UNL     1      -5.452   7.031  63.160  1.00  0.00    -0.361 OA
HETATM   29  H   UNL     1      -6.211   7.638  63.172  1.00  0.00     0.217 HD
ENDBRANCH  24  28
ENDBRANCH  12  22
TORSDOF 3
ENDMDL
