MODEL 1
REMARK VINA RESULT:      -9.1      0.000      0.000
REMARK  5 active torsions:
REMARK  status: ('A' for Active; 'I' for Inactive)
REMARK    1  A    between atoms: C_5  and  O_6 
REMARK    2  A    between atoms: O_6  and  C_7 
REMARK    3  A    between atoms: C_7  and  C_8 
REMARK       I    between atoms: C_8  and  N_9 
REMARK    4  A    between atoms: N_9  and  N_10 
REMARK    5  A    between atoms: C_11  and  C_12 
ROOT
HETATM    1  C   UNL     1       7.999  29.548  58.162  1.00  0.00     0.261 C 
HETATM    2  N   UNL     1       7.133  28.489  57.926  1.00  0.00    -0.246 N 
HETATM    3  O   UNL     1       9.225  29.464  58.218  1.00  0.00    -0.269 OA
HETATM    4  H   UNL     1       6.134  28.662  57.855  1.00  0.00     0.192 HD
ENDROOT
BRANCH   2   5
HETATM    5  N   UNL     1       7.641  27.238  57.735  1.00  0.00    -0.184 NA
HETATM    6  C   UNL     1       7.355  26.658  56.616  1.00  0.00     0.152 C 
BRANCH   6   7
HETATM    7  C   UNL     1       7.860  25.322  56.370  1.00  0.00     0.011 A 
HETATM    8  C   UNL     1       7.855  24.590  55.138  1.00  0.00     0.004 A 
HETATM    9  C   UNL     1       8.431  23.342  55.392  1.00  0.00     0.043 A 
HETATM   10  C   UNL     1       7.402  24.861  53.830  1.00  0.00     0.014 A 
HETATM   11  C   UNL     1       8.577  22.357  54.408  1.00  0.00     0.030 A 
HETATM   12  N   UNL     1       8.779  23.318  56.722  1.00  0.00    -0.364 N 
HETATM   13  C   UNL     1       8.116  22.652  53.123  1.00  0.00     0.002 A 
HETATM   14  C   UNL     1       7.537  23.884  52.835  1.00  0.00     0.001 A 
HETATM   15  H   UNL     1       9.216  22.535  57.189  1.00  0.00     0.165 HD
HETATM   16  C   UNL     1       8.436  24.497  57.320  1.00  0.00     0.102 A 
ENDBRANCH   6   7
ENDBRANCH   2   5
BRANCH   1  17
HETATM   17  C   UNL     1       7.281  30.856  58.472  1.00  0.00     0.280 C 
BRANCH  17  18
HETATM   18  O   UNL     1       8.195  31.875  58.884  1.00  0.00    -0.342 OA
BRANCH  18  19
HETATM   19  C   UNL     1       8.053  32.148  60.220  1.00  0.00     0.069 A 
HETATM   20  C   UNL     1       6.838  32.685  60.641  1.00  0.00     0.037 A 
HETATM   21  C   UNL     1       6.644  32.995  61.990  1.00  0.00     0.009 A 
HETATM   22  C   UNL     1       7.659  32.756  62.927  1.00  0.00    -0.062 A 
HETATM   23  C   UNL     1       7.459  33.075  64.379  1.00  0.00     0.048 C 
HETATM   24  C   UNL     1       8.858  32.174  62.497  1.00  0.00     0.009 A 
HETATM   25  C   UNL     1       9.054  31.867  61.148  1.00  0.00     0.037 A 
ENDBRANCH  18  19
ENDBRANCH  17  18
ENDBRANCH   1  17
TORSDOF 5
ENDMDL
MODEL 2
REMARK VINA RESULT:      -9.1      1.535      2.435
REMARK  5 active torsions:
REMARK  status: ('A' for Active; 'I' for Inactive)
REMARK    1  A    between atoms: C_5  and  O_6 
REMARK    2  A    between atoms: O_6  and  C_7 
REMARK    3  A    between atoms: C_7  and  C_8 
REMARK       I    between atoms: C_8  and  N_9 
REMARK    4  A    between atoms: N_9  and  N_10 
REMARK    5  A    between atoms: C_11  and  C_12 
ROOT
HETATM    1  C   UNL     1       7.899  28.658  56.864  1.00  0.00     0.261 C 
HETATM    2  N   UNL     1       7.283  27.418  56.771  1.00  0.00    -0.246 N 
HETATM    3  O   UNL     1       8.642  29.148  56.014  1.00  0.00    -0.269 OA
HETATM    4  H   UNL     1       6.651  27.114  57.506  1.00  0.00     0.192 HD
ENDROOT
BRANCH   2   5
HETATM    5  N   UNL     1       7.491  26.648  55.666  1.00  0.00    -0.184 NA
HETATM    6  C   UNL     1       7.388  25.369  55.819  1.00  0.00     0.152 C 
BRANCH   6   7
HETATM    7  C   UNL     1       7.613  24.506  54.677  1.00  0.00     0.011 A 
HETATM    8  C   UNL     1       7.741  23.079  54.661  1.00  0.00     0.004 A 
HETATM    9  C   UNL     1       7.965  22.694  53.337  1.00  0.00     0.043 A 
HETATM   10  C   UNL     1       7.705  22.073  55.651  1.00  0.00     0.014 A 
HETATM   11  C   UNL     1       8.151  21.360  52.952  1.00  0.00     0.030 A 
HETATM   12  N   UNL     1       7.965  23.838  52.575  1.00  0.00    -0.364 N 
HETATM   13  C   UNL     1       8.114  20.387  53.953  1.00  0.00     0.002 A 
HETATM   14  C   UNL     1       7.894  20.734  55.283  1.00  0.00     0.001 A 
HETATM   15  H   UNL     1       8.106  23.865  51.575  1.00  0.00     0.165 HD
HETATM   16  C   UNL     1       7.761  24.932  53.369  1.00  0.00     0.102 A 
ENDBRANCH   6   7
ENDBRANCH   2   5
BRANCH   1  17
HETATM   17  C   UNL     1       7.667  29.348  58.203  1.00  0.00     0.280 C 
BRANCH  17  18
HETATM   18  O   UNL     1       8.527  30.477  58.371  1.00  0.00    -0.342 OA
BRANCH  18  19
HETATM   19  C   UNL     1       8.363  31.037  59.612  1.00  0.00     0.069 A 
HETATM   20  C   UNL     1       9.378  30.843  60.545  1.00  0.00     0.037 A 
HETATM   21  C   UNL     1       9.257  31.381  61.830  1.00  0.00     0.009 A 
HETATM   22  C   UNL     1       8.124  32.127  62.182  1.00  0.00    -0.062 A 
HETATM   23  C   UNL     1       7.986  32.718  63.554  1.00  0.00     0.048 C 
HETATM   24  C   UNL     1       7.131  32.353  61.220  1.00  0.00     0.009 A 
HETATM   25  C   UNL     1       7.251  31.813  59.937  1.00  0.00     0.037 A 
ENDBRANCH  18  19
ENDBRANCH  17  18
ENDBRANCH   1  17
TORSDOF 5
ENDMDL
MODEL 3
REMARK VINA RESULT:      -8.8      6.507      9.974
REMARK  5 active torsions:
REMARK  status: ('A' for Active; 'I' for Inactive)
REMARK    1  A    between atoms: C_5  and  O_6 
REMARK    2  A    between atoms: O_6  and  C_7 
REMARK    3  A    between atoms: C_7  and  C_8 
REMARK       I    between atoms: C_8  and  N_9 
REMARK    4  A    between atoms: N_9  and  N_10 
REMARK    5  A    between atoms: C_11  and  C_12 
ROOT
HETATM    1  C   UNL     1       5.147  25.960  52.063  1.00  0.00     0.261 C 
HETATM    2  N   UNL     1       5.813  26.398  53.199  1.00  0.00    -0.246 N 
HETATM    3  O   UNL     1       4.795  24.801  51.848  1.00  0.00    -0.269 OA
HETATM    4  H   UNL     1       6.027  27.385  53.309  1.00  0.00     0.192 HD
ENDROOT
BRANCH   2   5
HETATM    5  N   UNL     1       6.120  25.503  54.181  1.00  0.00    -0.184 NA
HETATM    6  C   UNL     1       7.372  25.224  54.345  1.00  0.00     0.152 C 
BRANCH   6   7
HETATM    7  C   UNL     1       7.750  24.269  55.367  1.00  0.00     0.011 A 
HETATM    8  C   UNL     1       7.920  22.853  55.231  1.00  0.00     0.004 A 
HETATM    9  C   UNL     1       8.270  22.353  56.488  1.00  0.00     0.043 A 
HETATM   10  C   UNL     1       7.795  21.941  54.162  1.00  0.00     0.014 A 
HETATM   11  C   UNL     1       8.502  20.993  56.728  1.00  0.00     0.030 A 
HETATM   12  N   UNL     1       8.319  23.421  57.352  1.00  0.00    -0.364 N 
HETATM   13  C   UNL     1       8.368  20.113  55.652  1.00  0.00     0.002 A 
HETATM   14  C   UNL     1       8.020  20.576  54.387  1.00  0.00     0.001 A 
HETATM   15  H   UNL     1       8.546  23.357  58.335  1.00  0.00     0.165 HD
HETATM   16  C   UNL     1       8.002  24.575  56.692  1.00  0.00     0.102 A 
ENDBRANCH   6   7
ENDBRANCH   2   5
BRANCH   1  17
HETATM   17  C   UNL     1       4.979  27.047  51.008  1.00  0.00     0.280 C 
BRANCH  17  18
HETATM   18  O   UNL     1       5.131  26.526  49.685  1.00  0.00    -0.342 OA
BRANCH  18  19
HETATM   19  C   UNL     1       4.008  26.760  48.935  1.00  0.00     0.069 A 
HETATM   20  C   UNL     1       3.770  25.917  47.852  1.00  0.00     0.037 A 
HETATM   21  C   UNL     1       2.646  26.119  47.045  1.00  0.00     0.009 A 
HETATM   22  C   UNL     1       1.747  27.156  47.327  1.00  0.00    -0.062 A 
HETATM   23  C   UNL     1       0.532  27.377  46.476  1.00  0.00     0.048 C 
HETATM   24  C   UNL     1       1.974  27.968  48.446  1.00  0.00     0.009 A 
HETATM   25  C   UNL     1       3.099  27.769  49.250  1.00  0.00     0.037 A 
ENDBRANCH  18  19
ENDBRANCH  17  18
ENDBRANCH   1  17
TORSDOF 5
ENDMDL
MODEL 4
REMARK VINA RESULT:      -8.7      2.147      9.892
REMARK  5 active torsions:
REMARK  status: ('A' for Active; 'I' for Inactive)
REMARK    1  A    between atoms: C_5  and  O_6 
REMARK    2  A    between atoms: O_6  and  C_7 
REMARK    3  A    between atoms: C_7  and  C_8 
REMARK       I    between atoms: C_8  and  N_9 
REMARK    4  A    between atoms: N_9  and  N_10 
REMARK    5  A    between atoms: C_11  and  C_12 
ROOT
HETATM    1  C   UNL     1       6.623  27.087  56.073  1.00  0.00     0.261 C 
HETATM    2  N   UNL     1       7.607  27.693  56.840  1.00  0.00    -0.246 N 
HETATM    3  O   UNL     1       5.414  27.294  56.174  1.00  0.00    -0.269 OA
HETATM    4  H   UNL     1       8.586  27.490  56.656  1.00  0.00     0.192 HD
ENDROOT
BRANCH   2   5
HETATM    5  N   UNL     1       7.250  28.599  57.794  1.00  0.00    -0.184 NA
HETATM    6  C   UNL     1       7.558  29.834  57.570  1.00  0.00     0.152 C 
BRANCH   6   7
HETATM    7  C   UNL     1       7.212  30.833  58.561  1.00  0.00     0.011 A 
HETATM    8  C   UNL     1       7.868  31.106  59.805  1.00  0.00     0.004 A 
HETATM    9  C   UNL     1       7.168  32.143  60.428  1.00  0.00     0.043 A 
HETATM   10  C   UNL     1       8.983  30.559  60.475  1.00  0.00     0.014 A 
HETATM   11  C   UNL     1       7.526  32.660  61.679  1.00  0.00     0.030 A 
HETATM   12  N   UNL     1       6.133  32.493  59.593  1.00  0.00    -0.364 N 
HETATM   13  C   UNL     1       8.632  32.097  62.319  1.00  0.00     0.002 A 
HETATM   14  C   UNL     1       9.352  31.062  61.730  1.00  0.00     0.001 A 
HETATM   15  H   UNL     1       5.456  33.218  59.787  1.00  0.00     0.165 HD
HETATM   16  C   UNL     1       6.146  31.710  58.473  1.00  0.00     0.102 A 
ENDBRANCH   6   7
ENDBRANCH   2   5
BRANCH   1  17
HETATM   17  C   UNL     1       7.165  26.016  55.133  1.00  0.00     0.280 C 
BRANCH  17  18
HETATM   18  O   UNL     1       7.995  25.080  55.825  1.00  0.00    -0.342 OA
BRANCH  18  19
HETATM   19  C   UNL     1       8.109  23.911  55.117  1.00  0.00     0.069 A 
HETATM   20  C   UNL     1       7.813  23.951  53.756  1.00  0.00     0.037 A 
HETATM   21  C   UNL     1       7.900  22.785  52.989  1.00  0.00     0.009 A 
HETATM   22  C   UNL     1       8.296  21.577  53.578  1.00  0.00    -0.062 A 
HETATM   23  C   UNL     1       8.403  20.321  52.763  1.00  0.00     0.048 C 
HETATM   24  C   UNL     1       8.634  21.560  54.937  1.00  0.00     0.009 A 
HETATM   25  C   UNL     1       8.545  22.724  55.704  1.00  0.00     0.037 A 
ENDBRANCH  18  19
ENDBRANCH  17  18
ENDBRANCH   1  17
TORSDOF 5
ENDMDL
MODEL 5
REMARK VINA RESULT:      -8.7      2.067      9.957
REMARK  5 active torsions:
REMARK  status: ('A' for Active; 'I' for Inactive)
REMARK    1  A    between atoms: C_5  and  O_6 
REMARK    2  A    between atoms: O_6  and  C_7 
REMARK    3  A    between atoms: C_7  and  C_8 
REMARK       I    between atoms: C_8  and  N_9 
REMARK    4  A    between atoms: N_9  and  N_10 
REMARK    5  A    between atoms: C_11  and  C_12 
ROOT
HETATM    1  C   UNL     1       7.702  26.986  57.106  1.00  0.00     0.261 C 
HETATM    2  N   UNL     1       7.784  28.363  57.255  1.00  0.00    -0.246 N 
HETATM    3  O   UNL     1       7.771  26.167  58.022  1.00  0.00    -0.269 OA
HETATM    4  H   UNL     1       7.674  28.965  56.443  1.00  0.00     0.192 HD
ENDROOT
BRANCH   2   5
HETATM    5  N   UNL     1       7.955  28.894  58.499  1.00  0.00    -0.184 NA
HETATM    6  C   UNL     1       7.997  30.183  58.582  1.00  0.00     0.152 C 
BRANCH   6   7
HETATM    7  C   UNL     1       8.190  30.796  59.881  1.00  0.00     0.011 A 
HETATM    8  C   UNL     1       7.346  31.746  60.542  1.00  0.00     0.004 A 
HETATM    9  C   UNL     1       7.948  32.061  61.763  1.00  0.00     0.043 A 
HETATM   10  C   UNL     1       6.132  32.386  60.213  1.00  0.00     0.014 A 
HETATM   11  C   UNL     1       7.399  32.976  62.670  1.00  0.00     0.030 A 
HETATM   12  N   UNL     1       9.107  31.326  61.847  1.00  0.00    -0.364 N 
HETATM   13  C   UNL     1       6.198  33.596  62.316  1.00  0.00     0.002 A 
HETATM   14  C   UNL     1       5.571  33.308  61.108  1.00  0.00     0.001 A 
HETATM   15  H   UNL     1       9.751  31.353  62.625  1.00  0.00     0.165 HD
HETATM   16  C   UNL     1       9.266  30.568  60.721  1.00  0.00     0.102 A 
ENDBRANCH   6   7
ENDBRANCH   2   5
BRANCH   1  17
HETATM   17  C   UNL     1       7.631  26.540  55.651  1.00  0.00     0.280 C 
BRANCH  17  18
HETATM   18  O   UNL     1       6.547  25.635  55.429  1.00  0.00    -0.342 OA
BRANCH  18  19
HETATM   19  C   UNL     1       6.996  24.458  54.888  1.00  0.00     0.069 A 
HETATM   20  C   UNL     1       7.247  24.433  53.518  1.00  0.00     0.037 A 
HETATM   21  C   UNL     1       7.694  23.255  52.912  1.00  0.00     0.009 A 
HETATM   22  C   UNL     1       7.905  22.100  53.677  1.00  0.00    -0.062 A 
HETATM   23  C   UNL     1       8.394  20.832  53.040  1.00  0.00     0.048 C 
HETATM   24  C   UNL     1       7.692  22.151  55.060  1.00  0.00     0.009 A 
HETATM   25  C   UNL     1       7.242  23.327  55.665  1.00  0.00     0.037 A 
ENDBRANCH  18  19
ENDBRANCH  17  18
ENDBRANCH   1  17
TORSDOF 5
ENDMDL
MODEL 6
REMARK VINA RESULT:      -8.3      2.149     10.085
REMARK  5 active torsions:
REMARK  status: ('A' for Active; 'I' for Inactive)
REMARK    1  A    between atoms: C_5  and  O_6 
REMARK    2  A    between atoms: O_6  and  C_7 
REMARK    3  A    between atoms: C_7  and  C_8 
REMARK       I    between atoms: C_8  and  N_9 
REMARK    4  A    between atoms: N_9  and  N_10 
REMARK    5  A    between atoms: C_11  and  C_12 
ROOT
HETATM    1  C   UNL     1       7.580  29.266  57.750  1.00  0.00     0.261 C 
HETATM    2  N   UNL     1       8.274  30.314  58.339  1.00  0.00    -0.246 N 
HETATM    3  O   UNL     1       6.355  29.162  57.705  1.00  0.00    -0.269 OA
HETATM    4  H   UNL     1       9.289  30.336  58.291  1.00  0.00     0.192 HD
ENDROOT
BRANCH   2   5
HETATM    5  N   UNL     1       7.581  31.331  58.925  1.00  0.00    -0.184 NA
HETATM    6  C   UNL     1       7.477  31.299  60.213  1.00  0.00     0.152 C 
BRANCH   6   7
HETATM    7  C   UNL     1       6.738  32.351  60.882  1.00  0.00     0.011 A 
HETATM    8  C   UNL     1       6.930  32.856  62.209  1.00  0.00     0.004 A 
HETATM    9  C   UNL     1       5.973  33.852  62.419  1.00  0.00     0.043 A 
HETATM   10  C   UNL     1       7.818  32.552  63.263  1.00  0.00     0.014 A 
HETATM   11  C   UNL     1       5.859  34.557  63.624  1.00  0.00     0.030 A 
HETATM   12  N   UNL     1       5.233  33.955  61.265  1.00  0.00    -0.364 N 
HETATM   13  C   UNL     1       6.749  34.233  64.650  1.00  0.00     0.002 A 
HETATM   14  C   UNL     1       7.715  33.246  64.477  1.00  0.00     0.001 A 
HETATM   15  H   UNL     1       4.464  34.597  61.129  1.00  0.00     0.165 HD
HETATM   16  C   UNL     1       5.679  33.055  60.339  1.00  0.00     0.102 A 
ENDBRANCH   6   7
ENDBRANCH   2   5
BRANCH   1  17
HETATM   17  C   UNL     1       8.488  28.151  57.244  1.00  0.00     0.280 C 
BRANCH  17  18
HETATM   18  O   UNL     1       8.233  26.916  57.916  1.00  0.00    -0.342 OA
BRANCH  18  19
HETATM   19  C   UNL     1       8.190  25.874  57.026  1.00  0.00     0.069 A 
HETATM   20  C   UNL     1       7.521  26.083  55.822  1.00  0.00     0.037 A 
HETATM   21  C   UNL     1       7.436  25.051  54.884  1.00  0.00     0.009 A 
HETATM   22  C   UNL     1       8.032  23.808  55.139  1.00  0.00    -0.062 A 
HETATM   23  C   UNL     1       7.957  22.695  54.136  1.00  0.00     0.048 C 
HETATM   24  C   UNL     1       8.741  23.627  56.334  1.00  0.00     0.009 A 
HETATM   25  C   UNL     1       8.824  24.657  57.273  1.00  0.00     0.037 A 
ENDBRANCH  18  19
ENDBRANCH  17  18
ENDBRANCH   1  17
TORSDOF 5
ENDMDL
MODEL 7
REMARK VINA RESULT:      -8.2      1.960      2.651
REMARK  5 active torsions:
REMARK  status: ('A' for Active; 'I' for Inactive)
REMARK    1  A    between atoms: C_5  and  O_6 
REMARK    2  A    between atoms: O_6  and  C_7 
REMARK    3  A    between atoms: C_7  and  C_8 
REMARK       I    between atoms: C_8  and  N_9 
REMARK    4  A    between atoms: N_9  and  N_10 
REMARK    5  A    between atoms: C_11  and  C_12 
ROOT
HETATM    1  C   UNL     1       5.864  28.470  56.418  1.00  0.00     0.261 C 
HETATM    2  N   UNL     1       6.288  27.187  56.735  1.00  0.00    -0.246 N 
HETATM    3  O   UNL     1       5.561  28.859  55.291  1.00  0.00    -0.269 OA
HETATM    4  H   UNL     1       6.478  26.944  57.704  1.00  0.00     0.192 HD
ENDROOT
BRANCH   2   5
HETATM    5  N   UNL     1       6.390  26.252  55.748  1.00  0.00    -0.184 NA
HETATM    6  C   UNL     1       7.533  25.662  55.620  1.00  0.00     0.152 C 
BRANCH   6   7
HETATM    7  C   UNL     1       7.696  24.669  54.577  1.00  0.00     0.011 A 
HETATM    8  C   UNL     1       7.743  23.243  54.715  1.00  0.00     0.004 A 
HETATM    9  C   UNL     1       7.930  22.706  53.439  1.00  0.00     0.043 A 
HETATM   10  C   UNL     1       7.660  22.354  55.808  1.00  0.00     0.014 A 
HETATM   11  C   UNL     1       8.037  21.330  53.200  1.00  0.00     0.030 A 
HETATM   12  N   UNL     1       7.987  23.760  52.558  1.00  0.00    -0.364 N 
HETATM   13  C   UNL     1       7.954  20.474  54.301  1.00  0.00     0.002 A 
HETATM   14  C   UNL     1       7.769  20.974  55.586  1.00  0.00     0.001 A 
HETATM   15  H   UNL     1       8.119  23.670  51.560  1.00  0.00     0.165 HD
HETATM   16  C   UNL     1       7.854  24.943  53.230  1.00  0.00     0.102 A 
ENDBRANCH   6   7
ENDBRANCH   2   5
BRANCH   1  17
HETATM   17  C   UNL     1       5.914  29.430  57.600  1.00  0.00     0.280 C 
BRANCH  17  18
HETATM   18  O   UNL     1       7.094  30.237  57.574  1.00  0.00    -0.342 OA
BRANCH  18  19
HETATM   19  C   UNL     1       7.390  30.710  58.827  1.00  0.00     0.069 A 
HETATM   20  C   UNL     1       6.449  31.528  59.446  1.00  0.00     0.037 A 
HETATM   21  C   UNL     1       6.705  32.048  60.718  1.00  0.00     0.009 A 
HETATM   22  C   UNL     1       7.900  31.740  61.382  1.00  0.00    -0.062 A 
HETATM   23  C   UNL     1       8.183  32.284  62.752  1.00  0.00     0.048 C 
HETATM   24  C   UNL     1       8.818  30.880  60.768  1.00  0.00     0.009 A 
HETATM   25  C   UNL     1       8.563  30.362  59.495  1.00  0.00     0.037 A 
ENDBRANCH  18  19
ENDBRANCH  17  18
ENDBRANCH   1  17
TORSDOF 5
ENDMDL
MODEL 8
REMARK VINA RESULT:      -8.1      1.508      2.365
REMARK  5 active torsions:
REMARK  status: ('A' for Active; 'I' for Inactive)
REMARK    1  A    between atoms: C_5  and  O_6 
REMARK    2  A    between atoms: O_6  and  C_7 
REMARK    3  A    between atoms: C_7  and  C_8 
REMARK       I    between atoms: C_8  and  N_9 
REMARK    4  A    between atoms: N_9  and  N_10 
REMARK    5  A    between atoms: C_11  and  C_12 
ROOT
HETATM    1  C   UNL     1       7.107  30.347  58.295  1.00  0.00     0.261 C 
HETATM    2  N   UNL     1       7.624  29.069  58.450  1.00  0.00    -0.246 N 
HETATM    3  O   UNL     1       6.264  30.676  57.461  1.00  0.00    -0.269 OA
HETATM    4  H   UNL     1       8.289  28.882  59.197  1.00  0.00     0.192 HD
ENDROOT
BRANCH   2   5
HETATM    5  N   UNL     1       7.191  28.067  57.634  1.00  0.00    -0.184 NA
HETATM    6  C   UNL     1       8.052  27.577  56.804  1.00  0.00     0.152 C 
BRANCH   6   7
HETATM    7  C   UNL     1       7.636  26.519  55.905  1.00  0.00     0.011 A 
HETATM    8  C   UNL     1       7.804  25.105  56.070  1.00  0.00     0.004 A 
HETATM    9  C   UNL     1       7.261  24.487  54.941  1.00  0.00     0.043 A 
HETATM   10  C   UNL     1       8.382  24.289  57.065  1.00  0.00     0.014 A 
HETATM   11  C   UNL     1       7.264  23.098  54.758  1.00  0.00     0.030 A 
HETATM   12  N   UNL     1       6.775  25.481  54.126  1.00  0.00    -0.364 N 
HETATM   13  C   UNL     1       7.845  22.315  55.758  1.00  0.00     0.002 A 
HETATM   14  C   UNL     1       8.397  22.897  56.895  1.00  0.00     0.001 A 
HETATM   15  H   UNL     1       6.326  25.327  53.234  1.00  0.00     0.165 HD
HETATM   16  C   UNL     1       7.000  26.705  54.691  1.00  0.00     0.102 A 
ENDBRANCH   6   7
ENDBRANCH   2   5
BRANCH   1  17
HETATM   17  C   UNL     1       7.772  31.380  59.197  1.00  0.00     0.280 C 
BRANCH  17  18
HETATM   18  O   UNL     1       8.000  30.864  60.510  1.00  0.00    -0.342 OA
BRANCH  18  19
HETATM   19  C   UNL     1       7.606  31.766  61.465  1.00  0.00     0.069 A 
HETATM   20  C   UNL     1       8.286  31.755  62.681  1.00  0.00     0.037 A 
HETATM   21  C   UNL     1       7.917  32.644  63.694  1.00  0.00     0.009 A 
HETATM   22  C   UNL     1       6.875  33.559  63.491  1.00  0.00    -0.062 A 
HETATM   23  C   UNL     1       6.476  34.526  64.567  1.00  0.00     0.048 C 
HETATM   24  C   UNL     1       6.230  33.590  62.248  1.00  0.00     0.009 A 
HETATM   25  C   UNL     1       6.596  32.699  61.236  1.00  0.00     0.037 A 
ENDBRANCH  18  19
ENDBRANCH  17  18
ENDBRANCH   1  17
TORSDOF 5
ENDMDL
MODEL 9
REMARK VINA RESULT:      -7.9      2.732      9.654
REMARK  5 active torsions:
REMARK  status: ('A' for Active; 'I' for Inactive)
REMARK    1  A    between atoms: C_5  and  O_6 
REMARK    2  A    between atoms: O_6  and  C_7 
REMARK    3  A    between atoms: C_7  and  C_8 
REMARK       I    between atoms: C_8  and  N_9 
REMARK    4  A    between atoms: N_9  and  N_10 
REMARK    5  A    between atoms: C_11  and  C_12 
ROOT
HETATM    1  C   UNL     1       9.801  31.071  58.381  1.00  0.00     0.261 C 
HETATM    2  N   UNL     1       8.760  30.722  59.230  1.00  0.00    -0.246 N 
HETATM    3  O   UNL     1      10.313  32.187  58.306  1.00  0.00    -0.269 OA
HETATM    4  H   UNL     1       8.429  29.761  59.253  1.00  0.00     0.192 HD
ENDROOT
BRANCH   2   5
HETATM    5  N   UNL     1       8.232  31.662  60.064  1.00  0.00    -0.184 NA
HETATM    6  C   UNL     1       6.945  31.781  60.069  1.00  0.00     0.152 C 
BRANCH   6   7
HETATM    7  C   UNL     1       6.336  32.775  60.929  1.00  0.00     0.011 A 
HETATM    8  C   UNL     1       6.687  33.109  62.278  1.00  0.00     0.004 A 
HETATM    9  C   UNL     1       5.812  34.113  62.700  1.00  0.00     0.043 A 
HETATM   10  C   UNL     1       7.657  32.643  63.190  1.00  0.00     0.014 A 
HETATM   11  C   UNL     1       5.858  34.674  63.983  1.00  0.00     0.030 A 
HETATM   12  N   UNL     1       4.967  34.386  61.650  1.00  0.00    -0.364 N 
HETATM   13  C   UNL     1       6.827  34.191  64.866  1.00  0.00     0.002 A 
HETATM   14  C   UNL     1       7.714  33.191  64.479  1.00  0.00     0.001 A 
HETATM   15  H   UNL     1       4.226  35.072  61.670  1.00  0.00     0.165 HD
HETATM   16  C   UNL     1       5.268  33.585  60.585  1.00  0.00     0.102 A 
ENDBRANCH   6   7
ENDBRANCH   2   5
BRANCH   1  17
HETATM   17  C   UNL     1      10.204  29.950  57.430  1.00  0.00     0.280 C 
BRANCH  17  18
HETATM   18  O   UNL     1       9.414  29.960  56.239  1.00  0.00    -0.342 OA
BRANCH  18  19
HETATM   19  C   UNL     1       8.719  28.786  56.102  1.00  0.00     0.069 A 
HETATM   20  C   UNL     1       8.105  28.540  54.877  1.00  0.00     0.037 A 
HETATM   21  C   UNL     1       7.372  27.365  54.687  1.00  0.00     0.009 A 
HETATM   22  C   UNL     1       7.263  26.423  55.719  1.00  0.00    -0.062 A 
HETATM   23  C   UNL     1       6.489  25.152  55.525  1.00  0.00     0.048 C 
HETATM   24  C   UNL     1       7.923  26.661  56.931  1.00  0.00     0.009 A 
HETATM   25  C   UNL     1       8.653  27.837  57.122  1.00  0.00     0.037 A 
ENDBRANCH  18  19
ENDBRANCH  17  18
ENDBRANCH   1  17
TORSDOF 5
ENDMDL
MODEL 10
REMARK VINA RESULT:      -7.8      6.887     10.761
REMARK  5 active torsions:
REMARK  status: ('A' for Active; 'I' for Inactive)
REMARK    1  A    between atoms: C_5  and  O_6 
REMARK    2  A    between atoms: O_6  and  C_7 
REMARK    3  A    between atoms: C_7  and  C_8 
REMARK       I    between atoms: C_8  and  N_9 
REMARK    4  A    between atoms: N_9  and  N_10 
REMARK    5  A    between atoms: C_11  and  C_12 
ROOT
HETATM    1  C   UNL     1       5.471  28.220  49.901  1.00  0.00     0.261 C 
HETATM    2  N   UNL     1       5.468  26.920  50.385  1.00  0.00    -0.246 N 
HETATM    3  O   UNL     1       5.916  29.199  50.499  1.00  0.00    -0.269 OA
HETATM    4  H   UNL     1       5.116  26.166  49.801  1.00  0.00     0.192 HD
ENDROOT
BRANCH   2   5
HETATM    5  N   UNL     1       5.990  26.662  51.618  1.00  0.00    -0.184 NA
HETATM    6  C   UNL     1       6.534  25.502  51.790  1.00  0.00     0.152 C 
BRANCH   6   7
HETATM    7  C   UNL     1       7.092  25.175  53.087  1.00  0.00     0.011 A 
HETATM    8  C   UNL     1       7.714  23.951  53.496  1.00  0.00     0.004 A 
HETATM    9  C   UNL     1       8.079  24.096  54.836  1.00  0.00     0.043 A 
HETATM   10  C   UNL     1       7.989  22.722  52.859  1.00  0.00     0.014 A 
HETATM   11  C   UNL     1       8.704  23.079  55.570  1.00  0.00     0.030 A 
HETATM   12  N   UNL     1       7.703  25.359  55.226  1.00  0.00    -0.364 N 
HETATM   13  C   UNL     1       8.962  21.873  54.914  1.00  0.00     0.002 A 
HETATM   14  C   UNL     1       8.611  21.693  53.580  1.00  0.00     0.001 A 
HETATM   15  H   UNL     1       7.841  25.742  56.152  1.00  0.00     0.165 HD
HETATM   16  C   UNL     1       7.104  26.013  54.187  1.00  0.00     0.102 A 
ENDBRANCH   6   7
ENDBRANCH   2   5
BRANCH   1  17
HETATM   17  C   UNL     1       4.750  28.368  48.567  1.00  0.00     0.280 C 
BRANCH  17  18
HETATM   18  O   UNL     1       3.766  27.348  48.383  1.00  0.00    -0.342 OA
BRANCH  18  19
HETATM   19  C   UNL     1       2.675  27.835  47.710  1.00  0.00     0.069 A 
HETATM   20  C   UNL     1       1.585  26.984  47.547  1.00  0.00     0.037 A 
HETATM   21  C   UNL     1       0.452  27.425  46.858  1.00  0.00     0.009 A 
HETATM   22  C   UNL     1       0.400  28.726  46.339  1.00  0.00    -0.062 A 
HETATM   23  C   UNL     1      -0.815  29.216  45.606  1.00  0.00     0.048 C 
HETATM   24  C   UNL     1       1.484  29.587  46.549  1.00  0.00     0.009 A 
HETATM   25  C   UNL     1       2.618  29.145  47.236  1.00  0.00     0.037 A 
ENDBRANCH  18  19
ENDBRANCH  17  18
ENDBRANCH   1  17
TORSDOF 5
ENDMDL
