MODEL 1
REMARK VINA RESULT:      -8.6      0.000      0.000
REMARK  6 active torsions:
REMARK  status: ('A' for Active; 'I' for Inactive)
REMARK    1  A    between atoms: C_2  and  C_3 
REMARK    2  A    between atoms: C_8  and  C_9 
REMARK    3  A    between atoms: C_9  and  N_10 
REMARK    4  A    between atoms: C_12  and  C_13 
REMARK    5  A    between atoms: C_13  and  N_14 
REMARK       I    between atoms: N_14  and  C_15 
REMARK    6  A    between atoms: C_15  and  C_16 
ROOT
HETATM    1  N   UNL     1       5.994  27.992  56.479  1.00  0.00    -0.061 N 
HETATM    2  H   UNL     1       5.754  28.190  57.458  1.00  0.00     0.280 HD
HETATM    3  C   UNL     1       7.023  26.844  56.502  1.00  0.00     0.206 C 
HETATM    4  C   UNL     1       8.216  27.302  57.365  1.00  0.00     0.035 C 
HETATM    5  C   UNL     1       8.825  28.609  56.874  1.00  0.00     0.004 C 
HETATM    6  C   UNL     1       7.771  29.700  56.782  1.00  0.00     0.028 C 
HETATM    7  C   UNL     1       6.602  29.263  55.915  1.00  0.00     0.236 C 
ENDROOT
BRANCH   1   8
HETATM    8  C   UNL     1       4.660  27.690  55.797  1.00  0.00     0.277 C 
BRANCH   8   9
HETATM    9  C   UNL     1       4.477  28.219  54.419  1.00  0.00     0.012 A 
HETATM   10  C   UNL     1       4.824  27.671  53.133  1.00  0.00     0.071 A 
HETATM   11  N   UNL     1       4.419  28.495  52.153  1.00  0.00    -0.178 NA
HETATM   12  N   UNL     1       3.916  29.566  52.759  1.00  0.00    -0.288 N 
HETATM   13  H   UNL     1       3.577  30.335  52.188  1.00  0.00     0.188 HD
HETATM   14  C   UNL     1       3.939  29.457  54.113  1.00  0.00     0.120 A 
BRANCH  10  15
HETATM   15  C   UNL     1       5.523  26.383  52.672  1.00  0.00    -0.004 C 
HETATM   16  C   UNL     1       6.999  26.394  53.145  1.00  0.00     0.021 C 
HETATM   17  C   UNL     1       5.502  26.307  51.129  1.00  0.00     0.021 C 
HETATM   18  C   UNL     1       4.904  25.085  53.209  1.00  0.00     0.021 C 
ENDBRANCH  10  15
ENDBRANCH   8   9
ENDBRANCH   1   8
BRANCH   3  19
HETATM   19  C   UNL     1       6.423  25.534  57.098  1.00  0.00     0.156 C 
BRANCH  19  20
HETATM   20  N   UNL     1       6.551  24.363  56.247  1.00  0.00    -0.355 N 
HETATM   21  C   UNL     1       7.700  23.594  56.288  1.00  0.00     0.251 C 
HETATM   22  O   UNL     1       8.584  23.803  57.113  1.00  0.00    -0.268 OA
HETATM   23  H   UNL     1       6.000  24.327  55.394  1.00  0.00     0.162 HD
BRANCH  21  24
HETATM   24  C   UNL     1       7.839  22.516  55.273  1.00  0.00     0.032 A 
HETATM   25  C   UNL     1       7.808  22.875  53.918  1.00  0.00     0.017 A 
HETATM   26  C   UNL     1       7.942  21.899  52.931  1.00  0.00     0.001 A 
HETATM   27  C   UNL     1       8.116  20.564  53.290  1.00  0.00     0.000 A 
HETATM   28  C   UNL     1       8.165  20.203  54.636  1.00  0.00     0.001 A 
HETATM   29  C   UNL     1       8.031  21.175  55.630  1.00  0.00     0.017 A 
ENDBRANCH  21  24
ENDBRANCH  19  20
ENDBRANCH   3  19
TORSDOF 6
ENDMDL
MODEL 2
REMARK VINA RESULT:      -8.6      2.351      5.275
REMARK  6 active torsions:
REMARK  status: ('A' for Active; 'I' for Inactive)
REMARK    1  A    between atoms: C_2  and  C_3 
REMARK    2  A    between atoms: C_8  and  C_9 
REMARK    3  A    between atoms: C_9  and  N_10 
REMARK    4  A    between atoms: C_12  and  C_13 
REMARK    5  A    between atoms: C_13  and  N_14 
REMARK       I    between atoms: N_14  and  C_15 
REMARK    6  A    between atoms: C_15  and  C_16 
ROOT
HETATM    1  N   UNL     1       6.913  28.112  56.660  1.00  0.00    -0.061 N 
HETATM    2  H   UNL     1       7.661  27.904  55.988  1.00  0.00     0.280 HD
HETATM    3  C   UNL     1       6.037  26.847  56.750  1.00  0.00     0.206 C 
HETATM    4  C   UNL     1       5.535  26.523  55.328  1.00  0.00     0.035 C 
HETATM    5  C   UNL     1       4.794  27.690  54.689  1.00  0.00     0.004 C 
HETATM    6  C   UNL     1       5.650  28.945  54.690  1.00  0.00     0.028 C 
HETATM    7  C   UNL     1       6.131  29.282  56.092  1.00  0.00     0.236 C 
ENDROOT
BRANCH   1   8
HETATM    8  C   UNL     1       7.636  28.525  57.941  1.00  0.00     0.277 C 
BRANCH   8   9
HETATM    9  C   UNL     1       8.792  29.449  57.791  1.00  0.00     0.012 A 
HETATM   10  C   UNL     1       9.207  30.592  58.564  1.00  0.00     0.071 A 
HETATM   11  N   UNL     1      10.352  31.093  58.072  1.00  0.00    -0.178 NA
HETATM   12  N   UNL     1      10.626  30.380  56.985  1.00  0.00    -0.288 N 
HETATM   13  H   UNL     1      11.448  30.622  56.438  1.00  0.00     0.188 HD
HETATM   14  C   UNL     1       9.719  29.394  56.765  1.00  0.00     0.120 A 
BRANCH  10  15
HETATM   15  C   UNL     1       8.639  31.315  59.794  1.00  0.00    -0.004 C 
HETATM   16  C   UNL     1       8.772  30.403  61.041  1.00  0.00     0.021 C 
HETATM   17  C   UNL     1       7.142  31.623  59.568  1.00  0.00     0.021 C 
HETATM   18  C   UNL     1       9.337  32.637  60.146  1.00  0.00     0.021 C 
ENDBRANCH  10  15
ENDBRANCH   8   9
ENDBRANCH   1   8
BRANCH   3  19
HETATM   19  C   UNL     1       6.829  25.627  57.312  1.00  0.00     0.156 C 
BRANCH  19  20
HETATM   20  N   UNL     1       6.848  24.460  56.444  1.00  0.00    -0.355 N 
HETATM   21  C   UNL     1       7.991  23.687  56.341  1.00  0.00     0.251 C 
HETATM   22  O   UNL     1       8.970  23.889  57.053  1.00  0.00    -0.268 OA
HETATM   23  H   UNL     1       6.198  24.432  55.665  1.00  0.00     0.162 HD
BRANCH  21  24
HETATM   24  C   UNL     1       8.002  22.616  55.310  1.00  0.00     0.032 A 
HETATM   25  C   UNL     1       7.898  22.992  53.964  1.00  0.00     0.017 A 
HETATM   26  C   UNL     1       7.911  22.022  52.961  1.00  0.00     0.001 A 
HETATM   27  C   UNL     1       8.036  20.675  53.298  1.00  0.00     0.000 A 
HETATM   28  C   UNL     1       8.155  20.296  54.634  1.00  0.00     0.001 A 
HETATM   29  C   UNL     1       8.142  21.262  55.642  1.00  0.00     0.017 A 
ENDBRANCH  21  24
ENDBRANCH  19  20
ENDBRANCH   3  19
TORSDOF 6
ENDMDL
MODEL 3
REMARK VINA RESULT:      -8.4      3.631      7.891
REMARK  6 active torsions:
REMARK  status: ('A' for Active; 'I' for Inactive)
REMARK    1  A    between atoms: C_2  and  C_3 
REMARK    2  A    between atoms: C_8  and  C_9 
REMARK    3  A    between atoms: C_9  and  N_10 
REMARK    4  A    between atoms: C_12  and  C_13 
REMARK    5  A    between atoms: C_13  and  N_14 
REMARK       I    between atoms: N_14  and  C_15 
REMARK    6  A    between atoms: C_15  and  C_16 
ROOT
HETATM    1  N   UNL     1       6.341  28.136  56.126  1.00  0.00    -0.061 N 
HETATM    2  H   UNL     1       5.953  27.567  56.887  1.00  0.00     0.280 HD
HETATM    3  C   UNL     1       6.626  29.530  56.719  1.00  0.00     0.206 C 
HETATM    4  C   UNL     1       5.304  30.071  57.301  1.00  0.00     0.035 C 
HETATM    5  C   UNL     1       4.182  30.103  56.271  1.00  0.00     0.004 C 
HETATM    6  C   UNL     1       3.980  28.735  55.642  1.00  0.00     0.028 C 
HETATM    7  C   UNL     1       5.275  28.206  55.048  1.00  0.00     0.236 C 
ENDROOT
BRANCH   1   8
HETATM    8  C   UNL     1       7.555  27.354  55.625  1.00  0.00     0.277 C 
BRANCH   8   9
HETATM    9  C   UNL     1       7.634  25.919  56.011  1.00  0.00     0.012 A 
HETATM   10  C   UNL     1       7.497  24.714  55.235  1.00  0.00     0.071 A 
HETATM   11  N   UNL     1       7.694  23.636  56.012  1.00  0.00    -0.178 NA
HETATM   12  N   UNL     1       7.861  24.102  57.246  1.00  0.00    -0.288 N 
HETATM   13  H   UNL     1       7.995  23.437  58.003  1.00  0.00     0.188 HD
HETATM   14  C   UNL     1       7.821  25.458  57.303  1.00  0.00     0.120 A 
BRANCH  10  15
HETATM   15  C   UNL     1       7.198  24.421  53.757  1.00  0.00    -0.004 C 
HETATM   16  C   UNL     1       5.694  24.668  53.472  1.00  0.00     0.021 C 
HETATM   17  C   UNL     1       7.519  22.942  53.447  1.00  0.00     0.021 C 
HETATM   18  C   UNL     1       7.977  25.286  52.756  1.00  0.00     0.021 C 
ENDBRANCH  10  15
ENDBRANCH   8   9
ENDBRANCH   1   8
BRANCH   3  19
HETATM   19  C   UNL     1       7.705  29.476  57.843  1.00  0.00     0.156 C 
BRANCH  19  20
HETATM   20  N   UNL     1       7.374  30.230  59.042  1.00  0.00    -0.355 N 
HETATM   21  C   UNL     1       8.123  31.338  59.397  1.00  0.00     0.251 C 
HETATM   22  O   UNL     1       9.000  31.783  58.664  1.00  0.00    -0.268 OA
HETATM   23  H   UNL     1       6.872  29.753  59.785  1.00  0.00     0.162 HD
BRANCH  21  24
HETATM   24  C   UNL     1       7.842  31.958  60.720  1.00  0.00     0.032 A 
HETATM   25  C   UNL     1       6.678  32.726  60.857  1.00  0.00     0.017 A 
HETATM   26  C   UNL     1       6.370  33.320  62.081  1.00  0.00     0.001 A 
HETATM   27  C   UNL     1       7.217  33.143  63.174  1.00  0.00     0.000 A 
HETATM   28  C   UNL     1       8.368  32.367  63.047  1.00  0.00     0.001 A 
HETATM   29  C   UNL     1       8.683  31.770  61.824  1.00  0.00     0.017 A 
ENDBRANCH  21  24
ENDBRANCH  19  20
ENDBRANCH   3  19
TORSDOF 6
ENDMDL
MODEL 4
REMARK VINA RESULT:      -8.4      1.814      4.453
REMARK  6 active torsions:
REMARK  status: ('A' for Active; 'I' for Inactive)
REMARK    1  A    between atoms: C_2  and  C_3 
REMARK    2  A    between atoms: C_8  and  C_9 
REMARK    3  A    between atoms: C_9  and  N_10 
REMARK    4  A    between atoms: C_12  and  C_13 
REMARK    5  A    between atoms: C_13  and  N_14 
REMARK       I    between atoms: N_14  and  C_15 
REMARK    6  A    between atoms: C_15  and  C_16 
ROOT
HETATM    1  N   UNL     1       5.206  28.141  54.348  1.00  0.00    -0.061 N 
HETATM    2  H   UNL     1       5.732  29.018  54.253  1.00  0.00     0.280 HD
HETATM    3  C   UNL     1       5.832  27.142  53.355  1.00  0.00     0.206 C 
HETATM    4  C   UNL     1       5.758  27.772  51.949  1.00  0.00     0.035 C 
HETATM    5  C   UNL     1       4.339  28.160  51.555  1.00  0.00     0.004 C 
HETATM    6  C   UNL     1       3.718  29.079  52.595  1.00  0.00     0.028 C 
HETATM    7  C   UNL     1       3.768  28.454  53.979  1.00  0.00     0.236 C 
ENDROOT
BRANCH   1   8
HETATM    8  C   UNL     1       5.310  27.776  55.828  1.00  0.00     0.277 C 
BRANCH   8   9
HETATM    9  C   UNL     1       5.654  28.877  56.768  1.00  0.00     0.012 A 
HETATM   10  C   UNL     1       6.923  29.357  57.252  1.00  0.00     0.071 A 
HETATM   11  N   UNL     1       6.742  30.413  58.061  1.00  0.00    -0.178 NA
HETATM   12  N   UNL     1       5.426  30.564  58.176  1.00  0.00    -0.288 N 
HETATM   13  H   UNL     1       5.071  31.301  58.780  1.00  0.00     0.188 HD
HETATM   14  C   UNL     1       4.730  29.664  57.435  1.00  0.00     0.120 A 
BRANCH  10  15
HETATM   15  C   UNL     1       8.382  28.933  57.029  1.00  0.00    -0.004 C 
HETATM   16  C   UNL     1       8.520  27.406  57.253  1.00  0.00     0.021 C 
HETATM   17  C   UNL     1       9.294  29.662  58.042  1.00  0.00     0.021 C 
HETATM   18  C   UNL     1       8.930  29.218  55.623  1.00  0.00     0.021 C 
ENDBRANCH  10  15
ENDBRANCH   8   9
ENDBRANCH   1   8
BRANCH   3  19
HETATM   19  C   UNL     1       7.317  26.823  53.705  1.00  0.00     0.156 C 
BRANCH  19  20
HETATM   20  N   UNL     1       7.558  25.463  54.159  1.00  0.00    -0.355 N 
HETATM   21  C   UNL     1       7.788  24.453  53.242  1.00  0.00     0.251 C 
HETATM   22  O   UNL     1       7.910  24.688  52.043  1.00  0.00    -0.268 OA
HETATM   23  H   UNL     1       7.196  25.190  55.067  1.00  0.00     0.162 HD
BRANCH  21  24
HETATM   24  C   UNL     1       7.853  23.060  53.760  1.00  0.00     0.032 A 
HETATM   25  C   UNL     1       7.720  22.861  55.141  1.00  0.00     0.017 A 
HETATM   26  C   UNL     1       7.768  21.572  55.671  1.00  0.00     0.001 A 
HETATM   27  C   UNL     1       7.939  20.477  54.826  1.00  0.00     0.000 A 
HETATM   28  C   UNL     1       8.056  20.668  53.450  1.00  0.00     0.001 A 
HETATM   29  C   UNL     1       8.010  21.956  52.912  1.00  0.00     0.017 A 
ENDBRANCH  21  24
ENDBRANCH  19  20
ENDBRANCH   3  19
TORSDOF 6
ENDMDL
MODEL 5
REMARK VINA RESULT:      -8.3      3.592      5.405
REMARK  6 active torsions:
REMARK  status: ('A' for Active; 'I' for Inactive)
REMARK    1  A    between atoms: C_2  and  C_3 
REMARK    2  A    between atoms: C_8  and  C_9 
REMARK    3  A    between atoms: C_9  and  N_10 
REMARK    4  A    between atoms: C_12  and  C_13 
REMARK    5  A    between atoms: C_13  and  N_14 
REMARK       I    between atoms: N_14  and  C_15 
REMARK    6  A    between atoms: C_15  and  C_16 
ROOT
HETATM    1  N   UNL     1       4.217  27.646  50.986  1.00  0.00    -0.061 N 
HETATM    2  H   UNL     1       3.431  26.988  51.047  1.00  0.00     0.280 HD
HETATM    3  C   UNL     1       5.349  27.059  51.852  1.00  0.00     0.206 C 
HETATM    4  C   UNL     1       4.796  26.867  53.279  1.00  0.00     0.035 C 
HETATM    5  C   UNL     1       4.232  28.154  53.866  1.00  0.00     0.004 C 
HETATM    6  C   UNL     1       3.178  28.754  52.951  1.00  0.00     0.028 C 
HETATM    7  C   UNL     1       3.724  28.966  51.549  1.00  0.00     0.236 C 
ENDROOT
BRANCH   1   8
HETATM    8  C   UNL     1       4.509  27.778  49.492  1.00  0.00     0.277 C 
BRANCH   8   9
HETATM    9  C   UNL     1       3.621  27.025  48.566  1.00  0.00     0.012 A 
HETATM   10  C   UNL     1       2.557  27.460  47.699  1.00  0.00     0.071 A 
HETATM   11  N   UNL     1       2.064  26.418  47.009  1.00  0.00    -0.178 NA
HETATM   12  N   UNL     1       2.705  25.345  47.461  1.00  0.00    -0.288 N 
HETATM   13  H   UNL     1       2.455  24.434  47.086  1.00  0.00     0.188 HD
HETATM   14  C   UNL     1       3.636  25.650  48.401  1.00  0.00     0.120 A 
BRANCH  10  15
HETATM   15  C   UNL     1       1.905  28.819  47.404  1.00  0.00    -0.004 C 
HETATM   16  C   UNL     1       1.371  29.437  48.722  1.00  0.00     0.021 C 
HETATM   17  C   UNL     1       0.717  28.625  46.436  1.00  0.00     0.021 C 
HETATM   18  C   UNL     1       2.843  29.865  46.784  1.00  0.00     0.021 C 
ENDBRANCH  10  15
ENDBRANCH   8   9
ENDBRANCH   1   8
BRANCH   3  19
HETATM   19  C   UNL     1       5.856  25.691  51.302  1.00  0.00     0.156 C 
BRANCH  19  20
HETATM   20  N   UNL     1       6.093  24.676  52.316  1.00  0.00    -0.355 N 
HETATM   21  C   UNL     1       7.386  24.295  52.631  1.00  0.00     0.251 C 
HETATM   22  O   UNL     1       8.360  24.872  52.158  1.00  0.00    -0.268 OA
HETATM   23  H   UNL     1       5.353  24.008  52.508  1.00  0.00     0.162 HD
BRANCH  21  24
HETATM   24  C   UNL     1       7.552  23.135  53.547  1.00  0.00     0.032 A 
HETATM   25  C   UNL     1       7.858  21.888  52.985  1.00  0.00     0.017 A 
HETATM   26  C   UNL     1       8.031  20.773  53.806  1.00  0.00     0.001 A 
HETATM   27  C   UNL     1       7.908  20.900  55.189  1.00  0.00     0.000 A 
HETATM   28  C   UNL     1       7.620  22.142  55.754  1.00  0.00     0.001 A 
HETATM   29  C   UNL     1       7.445  23.262  54.938  1.00  0.00     0.017 A 
ENDBRANCH  21  24
ENDBRANCH  19  20
ENDBRANCH   3  19
TORSDOF 6
ENDMDL
MODEL 6
REMARK VINA RESULT:      -8.3      2.410      3.514
REMARK  6 active torsions:
REMARK  status: ('A' for Active; 'I' for Inactive)
REMARK    1  A    between atoms: C_2  and  C_3 
REMARK    2  A    between atoms: C_8  and  C_9 
REMARK    3  A    between atoms: C_9  and  N_10 
REMARK    4  A    between atoms: C_12  and  C_13 
REMARK    5  A    between atoms: C_13  and  N_14 
REMARK       I    between atoms: N_14  and  C_15 
REMARK    6  A    between atoms: C_15  and  C_16 
ROOT
HETATM    1  N   UNL     1       5.389  28.065  53.947  1.00  0.00    -0.061 N 
HETATM    2  H   UNL     1       4.927  27.151  53.863  1.00  0.00     0.280 HD
HETATM    3  C   UNL     1       6.755  27.808  54.614  1.00  0.00     0.206 C 
HETATM    4  C   UNL     1       6.493  27.106  55.962  1.00  0.00     0.035 C 
HETATM    5  C   UNL     1       5.556  27.900  56.862  1.00  0.00     0.004 C 
HETATM    6  C   UNL     1       4.250  28.211  56.149  1.00  0.00     0.028 C 
HETATM    7  C   UNL     1       4.500  28.922  54.829  1.00  0.00     0.236 C 
ENDROOT
BRANCH   1   8
HETATM    8  C   UNL     1       5.425  28.622  52.525  1.00  0.00     0.277 C 
BRANCH   8   9
HETATM    9  C   UNL     1       5.042  27.692  51.429  1.00  0.00     0.012 A 
HETATM   10  C   UNL     1       4.688  27.932  50.053  1.00  0.00     0.071 A 
HETATM   11  N   UNL     1       4.458  26.769  49.424  1.00  0.00    -0.178 NA
HETATM   12  N   UNL     1       4.565  25.823  50.352  1.00  0.00    -0.288 N 
HETATM   13  H   UNL     1       4.395  24.857  50.085  1.00  0.00     0.188 HD
HETATM   14  C   UNL     1       4.900  26.322  51.570  1.00  0.00     0.120 A 
BRANCH  10  15
HETATM   15  C   UNL     1       4.540  29.195  49.192  1.00  0.00    -0.004 C 
HETATM   16  C   UNL     1       3.255  29.958  49.605  1.00  0.00     0.021 C 
HETATM   17  C   UNL     1       4.416  28.795  47.705  1.00  0.00     0.021 C 
HETATM   18  C   UNL     1       5.697  30.197  49.309  1.00  0.00     0.021 C 
ENDBRANCH  10  15
ENDBRANCH   8   9
ENDBRANCH   1   8
BRANCH   3  19
HETATM   19  C   UNL     1       7.675  26.911  53.731  1.00  0.00     0.156 C 
BRANCH  19  20
HETATM   20  N   UNL     1       7.814  25.539  54.193  1.00  0.00    -0.355 N 
HETATM   21  C   UNL     1       7.905  24.503  53.280  1.00  0.00     0.251 C 
HETATM   22  O   UNL     1       7.989  24.713  52.074  1.00  0.00    -0.268 OA
HETATM   23  H   UNL     1       7.475  25.310  55.122  1.00  0.00     0.162 HD
BRANCH  21  24
HETATM   24  C   UNL     1       7.870  23.115  53.815  1.00  0.00     0.032 A 
HETATM   25  C   UNL     1       7.970  22.053  52.906  1.00  0.00     0.017 A 
HETATM   26  C   UNL     1       7.949  20.736  53.363  1.00  0.00     0.001 A 
HETATM   27  C   UNL     1       7.837  20.473  54.727  1.00  0.00     0.000 A 
HETATM   28  C   UNL     1       7.754  21.526  55.637  1.00  0.00     0.001 A 
HETATM   29  C   UNL     1       7.773  22.847  55.187  1.00  0.00     0.017 A 
ENDBRANCH  21  24
ENDBRANCH  19  20
ENDBRANCH   3  19
TORSDOF 6
ENDMDL
MODEL 7
REMARK VINA RESULT:      -8.2      2.622      7.136
REMARK  6 active torsions:
REMARK  status: ('A' for Active; 'I' for Inactive)
REMARK    1  A    between atoms: C_2  and  C_3 
REMARK    2  A    between atoms: C_8  and  C_9 
REMARK    3  A    between atoms: C_9  and  N_10 
REMARK    4  A    between atoms: C_12  and  C_13 
REMARK    5  A    between atoms: C_13  and  N_14 
REMARK       I    between atoms: N_14  and  C_15 
REMARK    6  A    between atoms: C_15  and  C_16 
ROOT
HETATM    1  N   UNL     1       6.072  27.811  54.746  1.00  0.00    -0.061 N 
HETATM    2  H   UNL     1       5.406  27.050  54.918  1.00  0.00     0.280 HD
HETATM    3  C   UNL     1       5.606  29.007  55.600  1.00  0.00     0.206 C 
HETATM    4  C   UNL     1       4.154  29.335  55.193  1.00  0.00     0.035 C 
HETATM    5  C   UNL     1       4.012  29.604  53.701  1.00  0.00     0.004 C 
HETATM    6  C   UNL     1       4.556  28.445  52.883  1.00  0.00     0.028 C 
HETATM    7  C   UNL     1       5.994  28.131  53.264  1.00  0.00     0.236 C 
ENDROOT
BRANCH   1   8
HETATM    8  C   UNL     1       7.440  27.226  55.093  1.00  0.00     0.277 C 
BRANCH   8   9
HETATM    9  C   UNL     1       7.470  25.808  55.543  1.00  0.00     0.012 A 
HETATM   10  C   UNL     1       7.389  24.572  54.807  1.00  0.00     0.071 A 
HETATM   11  N   UNL     1       7.504  23.527  55.643  1.00  0.00    -0.178 NA
HETATM   12  N   UNL     1       7.565  24.042  56.867  1.00  0.00    -0.288 N 
HETATM   13  H   UNL     1       7.625  23.409  57.659  1.00  0.00     0.188 HD
HETATM   14  C   UNL     1       7.536  25.400  56.864  1.00  0.00     0.120 A 
BRANCH  10  15
HETATM   15  C   UNL     1       7.218  24.220  53.322  1.00  0.00    -0.004 C 
HETATM   16  C   UNL     1       5.743  24.442  52.901  1.00  0.00     0.021 C 
HETATM   17  C   UNL     1       7.574  22.733  53.098  1.00  0.00     0.021 C 
HETATM   18  C   UNL     1       8.075  25.053  52.359  1.00  0.00     0.021 C 
ENDBRANCH  10  15
ENDBRANCH   8   9
ENDBRANCH   1   8
BRANCH   3  19
HETATM   19  C   UNL     1       5.659  28.691  57.125  1.00  0.00     0.156 C 
BRANCH  19  20
HETATM   20  N   UNL     1       6.202  29.758  57.950  1.00  0.00    -0.355 N 
HETATM   21  C   UNL     1       7.469  29.642  58.495  1.00  0.00     0.251 C 
HETATM   22  O   UNL     1       8.208  28.705  58.210  1.00  0.00    -0.268 OA
HETATM   23  H   UNL     1       5.550  30.378  58.421  1.00  0.00     0.162 HD
BRANCH  21  24
HETATM   24  C   UNL     1       7.894  30.685  59.466  1.00  0.00     0.032 A 
HETATM   25  C   UNL     1       9.219  30.665  59.921  1.00  0.00     0.017 A 
HETATM   26  C   UNL     1       9.665  31.628  60.826  1.00  0.00     0.001 A 
HETATM   27  C   UNL     1       8.793  32.619  61.274  1.00  0.00     0.000 A 
HETATM   28  C   UNL     1       7.478  32.654  60.812  1.00  0.00     0.001 A 
HETATM   29  C   UNL     1       7.025  31.692  59.906  1.00  0.00     0.017 A 
ENDBRANCH  21  24
ENDBRANCH  19  20
ENDBRANCH   3  19
TORSDOF 6
ENDMDL
MODEL 8
REMARK VINA RESULT:      -8.2      1.478      4.210
REMARK  6 active torsions:
REMARK  status: ('A' for Active; 'I' for Inactive)
REMARK    1  A    between atoms: C_2  and  C_3 
REMARK    2  A    between atoms: C_8  and  C_9 
REMARK    3  A    between atoms: C_9  and  N_10 
REMARK    4  A    between atoms: C_12  and  C_13 
REMARK    5  A    between atoms: C_13  and  N_14 
REMARK       I    between atoms: N_14  and  C_15 
REMARK    6  A    between atoms: C_15  and  C_16 
ROOT
HETATM    1  N   UNL     1       6.077  28.015  52.433  1.00  0.00    -0.061 N 
HETATM    2  H   UNL     1       6.872  28.216  51.816  1.00  0.00     0.280 HD
HETATM    3  C   UNL     1       6.128  26.505  52.740  1.00  0.00     0.206 C 
HETATM    4  C   UNL     1       6.090  25.752  51.394  1.00  0.00     0.035 C 
HETATM    5  C   UNL     1       4.878  26.125  50.549  1.00  0.00     0.004 C 
HETATM    6  C   UNL     1       4.807  27.628  50.333  1.00  0.00     0.028 C 
HETATM    7  C   UNL     1       4.823  28.375  51.657  1.00  0.00     0.236 C 
ENDROOT
BRANCH   1   8
HETATM    8  C   UNL     1       6.253  28.953  53.626  1.00  0.00     0.277 C 
BRANCH   8   9
HETATM    9  C   UNL     1       5.634  28.529  54.911  1.00  0.00     0.012 A 
HETATM   10  C   UNL     1       6.205  28.285  56.210  1.00  0.00     0.071 A 
HETATM   11  N   UNL     1       5.241  27.960  57.087  1.00  0.00    -0.178 NA
HETATM   12  N   UNL     1       4.113  27.904  56.386  1.00  0.00    -0.288 N 
HETATM   13  H   UNL     1       3.255  27.640  56.863  1.00  0.00     0.188 HD
HETATM   14  C   UNL     1       4.295  28.223  55.078  1.00  0.00     0.120 A 
BRANCH  10  15
HETATM   15  C   UNL     1       7.631  28.331  56.778  1.00  0.00    -0.004 C 
HETATM   16  C   UNL     1       8.140  26.887  57.025  1.00  0.00     0.021 C 
HETATM   17  C   UNL     1       7.628  29.087  58.125  1.00  0.00     0.021 C 
HETATM   18  C   UNL     1       8.667  29.007  55.868  1.00  0.00     0.021 C 
ENDBRANCH  10  15
ENDBRANCH   8   9
ENDBRANCH   1   8
BRANCH   3  19
HETATM   19  C   UNL     1       7.420  26.111  53.519  1.00  0.00     0.156 C 
BRANCH  19  20
HETATM   20  N   UNL     1       7.738  24.693  53.495  1.00  0.00    -0.355 N 
HETATM   21  C   UNL     1       7.264  23.855  54.489  1.00  0.00     0.251 C 
HETATM   22  O   UNL     1       6.477  24.253  55.343  1.00  0.00    -0.268 OA
HETATM   23  H   UNL     1       8.574  24.397  53.001  1.00  0.00     0.162 HD
BRANCH  21  24
HETATM   24  C   UNL     1       7.766  22.456  54.502  1.00  0.00     0.032 A 
HETATM   25  C   UNL     1       8.207  21.900  53.293  1.00  0.00     0.017 A 
HETATM   26  C   UNL     1       8.694  20.594  53.259  1.00  0.00     0.001 A 
HETATM   27  C   UNL     1       8.750  19.840  54.430  1.00  0.00     0.000 A 
HETATM   28  C   UNL     1       8.328  20.393  55.638  1.00  0.00     0.001 A 
HETATM   29  C   UNL     1       7.839  21.701  55.680  1.00  0.00     0.017 A 
ENDBRANCH  21  24
ENDBRANCH  19  20
ENDBRANCH   3  19
TORSDOF 6
ENDMDL
MODEL 9
REMARK VINA RESULT:      -8.1      4.851      8.568
REMARK  6 active torsions:
REMARK  status: ('A' for Active; 'I' for Inactive)
REMARK    1  A    between atoms: C_2  and  C_3 
REMARK    2  A    between atoms: C_8  and  C_9 
REMARK    3  A    between atoms: C_9  and  N_10 
REMARK    4  A    between atoms: C_12  and  C_13 
REMARK    5  A    between atoms: C_13  and  N_14 
REMARK       I    between atoms: N_14  and  C_15 
REMARK    6  A    between atoms: C_15  and  C_16 
ROOT
HETATM    1  N   UNL     1       8.152  29.465  57.354  1.00  0.00    -0.061 N 
HETATM    2  H   UNL     1       7.945  30.122  56.592  1.00  0.00     0.280 HD
HETATM    3  C   UNL     1       8.455  30.319  58.601  1.00  0.00     0.206 C 
HETATM    4  C   UNL     1       9.621  31.265  58.250  1.00  0.00     0.035 C 
HETATM    5  C   UNL     1      10.852  30.518  57.753  1.00  0.00     0.004 C 
HETATM    6  C   UNL     1      10.506  29.620  56.576  1.00  0.00     0.028 C 
HETATM    7  C   UNL     1       9.371  28.671  56.924  1.00  0.00     0.236 C 
ENDROOT
BRANCH   1   8
HETATM    8  C   UNL     1       6.926  28.557  57.438  1.00  0.00     0.277 C 
BRANCH   8   9
HETATM    9  C   UNL     1       6.095  28.436  56.211  1.00  0.00     0.012 A 
HETATM   10  C   UNL     1       5.705  27.290  55.431  1.00  0.00     0.071 A 
HETATM   11  N   UNL     1       4.904  27.666  54.421  1.00  0.00    -0.178 NA
HETATM   12  N   UNL     1       4.842  28.993  54.478  1.00  0.00    -0.288 N 
HETATM   13  H   UNL     1       4.302  29.486  53.772  1.00  0.00     0.188 HD
HETATM   14  C   UNL     1       5.546  29.504  55.521  1.00  0.00     0.120 A 
BRANCH  10  15
HETATM   15  C   UNL     1       5.997  25.785  55.522  1.00  0.00    -0.004 C 
HETATM   16  C   UNL     1       5.451  25.071  54.258  1.00  0.00     0.021 C 
HETATM   17  C   UNL     1       5.290  25.194  56.763  1.00  0.00     0.021 C 
HETATM   18  C   UNL     1       7.485  25.420  55.618  1.00  0.00     0.021 C 
ENDBRANCH  10  15
ENDBRANCH   8   9
ENDBRANCH   1   8
BRANCH   3  19
HETATM   19  C   UNL     1       7.220  31.159  59.047  1.00  0.00     0.156 C 
BRANCH  19  20
HETATM   20  N   UNL     1       7.246  31.593  60.435  1.00  0.00    -0.355 N 
HETATM   21  C   UNL     1       6.447  32.642  60.853  1.00  0.00     0.251 C 
HETATM   22  O   UNL     1       5.618  33.155  60.107  1.00  0.00    -0.268 OA
HETATM   23  H   UNL     1       8.080  31.400  60.982  1.00  0.00     0.162 HD
BRANCH  21  24
HETATM   24  C   UNL     1       6.648  33.146  62.237  1.00  0.00     0.032 A 
HETATM   25  C   UNL     1       5.929  34.280  62.639  1.00  0.00     0.017 A 
HETATM   26  C   UNL     1       6.080  34.785  63.931  1.00  0.00     0.001 A 
HETATM   27  C   UNL     1       6.942  34.156  64.828  1.00  0.00     0.000 A 
HETATM   28  C   UNL     1       7.648  33.018  64.439  1.00  0.00     0.001 A 
HETATM   29  C   UNL     1       7.501  32.508  63.147  1.00  0.00     0.017 A 
ENDBRANCH  21  24
ENDBRANCH  19  20
ENDBRANCH   3  19
TORSDOF 6
ENDMDL
MODEL 10
REMARK VINA RESULT:      -8.0      4.738      8.646
REMARK  6 active torsions:
REMARK  status: ('A' for Active; 'I' for Inactive)
REMARK    1  A    between atoms: C_2  and  C_3 
REMARK    2  A    between atoms: C_8  and  C_9 
REMARK    3  A    between atoms: C_9  and  N_10 
REMARK    4  A    between atoms: C_12  and  C_13 
REMARK    5  A    between atoms: C_13  and  N_14 
REMARK       I    between atoms: N_14  and  C_15 
REMARK    6  A    between atoms: C_15  and  C_16 
ROOT
HETATM    1  N   UNL     1       8.262  29.370  57.288  1.00  0.00    -0.061 N 
HETATM    2  H   UNL     1       8.046  30.026  56.528  1.00  0.00     0.280 HD
HETATM    3  C   UNL     1       8.491  30.220  58.553  1.00  0.00     0.206 C 
HETATM    4  C   UNL     1       9.621  31.223  58.245  1.00  0.00     0.035 C 
HETATM    5  C   UNL     1      10.898  30.539  57.775  1.00  0.00     0.004 C 
HETATM    6  C   UNL     1      10.627  29.643  56.578  1.00  0.00     0.028 C 
HETATM    7  C   UNL     1       9.528  28.638  56.882  1.00  0.00     0.236 C 
ENDROOT
BRANCH   1   8
HETATM    8  C   UNL     1       7.078  28.405  57.326  1.00  0.00     0.277 C 
BRANCH   8   9
HETATM    9  C   UNL     1       7.366  26.976  57.029  1.00  0.00     0.012 A 
HETATM   10  C   UNL     1       7.350  26.237  55.793  1.00  0.00     0.071 A 
HETATM   11  N   UNL     1       7.727  24.966  56.008  1.00  0.00    -0.178 NA
HETATM   12  N   UNL     1       7.894  24.851  57.322  1.00  0.00    -0.288 N 
HETATM   13  H   UNL     1       8.154  23.945  57.703  1.00  0.00     0.188 HD
HETATM   14  C   UNL     1       7.679  26.020  57.980  1.00  0.00     0.120 A 
BRANCH  10  15
HETATM   15  C   UNL     1       7.016  26.593  54.337  1.00  0.00    -0.004 C 
HETATM   16  C   UNL     1       7.732  27.912  53.947  1.00  0.00     0.021 C 
HETATM   17  C   UNL     1       5.492  26.802  54.192  1.00  0.00     0.021 C 
HETATM   18  C   UNL     1       7.442  25.544  53.301  1.00  0.00     0.021 C 
ENDBRANCH  10  15
ENDBRANCH   8   9
ENDBRANCH   1   8
BRANCH   3  19
HETATM   19  C   UNL     1       7.206  30.997  58.974  1.00  0.00     0.156 C 
BRANCH  19  20
HETATM   20  N   UNL     1       7.115  31.299  60.393  1.00  0.00    -0.355 N 
HETATM   21  C   UNL     1       6.342  32.360  60.831  1.00  0.00     0.251 C 
HETATM   22  O   UNL     1       5.629  32.997  60.062  1.00  0.00    -0.268 OA
HETATM   23  H   UNL     1       7.874  30.999  60.997  1.00  0.00     0.162 HD
BRANCH  21  24
HETATM   24  C   UNL     1       6.429  32.722  62.271  1.00  0.00     0.032 A 
HETATM   25  C   UNL     1       7.696  32.747  62.871  1.00  0.00     0.017 A 
HETATM   26  C   UNL     1       7.827  33.088  64.217  1.00  0.00     0.001 A 
HETATM   27  C   UNL     1       6.698  33.413  64.967  1.00  0.00     0.000 A 
HETATM   28  C   UNL     1       5.437  33.405  64.371  1.00  0.00     0.001 A 
HETATM   29  C   UNL     1       5.298  33.064  63.024  1.00  0.00     0.017 A 
ENDBRANCH  21  24
ENDBRANCH  19  20
ENDBRANCH   3  19
TORSDOF 6
ENDMDL
