MODEL 1
REMARK VINA RESULT:     -10.2      0.000      0.000
REMARK  7 active torsions:
REMARK  status: ('A' for Active; 'I' for Inactive)
REMARK    1  A    between atoms: C_2  and  C_3 
REMARK    2  A    between atoms: C_3  and  O_4 
REMARK    3  A    between atoms: O_4  and  C_5 
REMARK    4  A    between atoms: C_8  and  N_9 
REMARK    5  A    between atoms: C_12  and  N_13 
REMARK    6  A    between atoms: C_17  and  O_18 
REMARK    7  A    between atoms: C_17  and  C_19 
ROOT
HETATM    1  N   UNL     1       8.715  30.220  58.355  1.00  0.00    -0.251 N 
HETATM    2  C   UNL     1       7.717  29.438  57.821  1.00  0.00     0.262 C 
HETATM    3  O   UNL     1       6.536  29.312  58.115  1.00  0.00    -0.270 OA
HETATM    4  C   UNL     1       8.310  28.665  56.668  1.00  0.00     0.289 C 
HETATM    5  C   UNL     1       9.475  29.515  56.240  1.00  0.00     0.146 C 
HETATM    6  C   UNL     1       9.819  30.221  57.522  1.00  0.00     0.233 C 
HETATM    7  O   UNL     1      10.929  30.697  57.689  1.00  0.00    -0.273 OA
ENDROOT
BRANCH   4   8
HETATM    8  N   UNL     1       7.319  28.313  55.545  1.00  0.00    -0.058 N 
HETATM    9  H   UNL     1       6.783  29.191  55.419  1.00  0.00     0.281 HD
HETATM   10  C   UNL     1       7.936  28.049  54.186  1.00  0.00     0.239 C 
HETATM   11  C   UNL     1       6.840  27.822  53.158  1.00  0.00     0.071 C 
HETATM   12  C   UNL     1       5.921  26.643  53.547  1.00  0.00     0.088 C 
HETATM   13  C   UNL     1       5.290  27.031  54.899  1.00  0.00     0.071 C 
HETATM   14  C   UNL     1       6.339  27.250  55.976  1.00  0.00     0.239 C 
BRANCH  12  15
HETATM   15  O   UNL     1       4.857  26.621  52.596  1.00  0.00    -0.385 OA
HETATM   16  H   UNL     1       4.091  27.113  52.946  1.00  0.00     0.211 HD
ENDBRANCH  12  15
BRANCH  12  17
HETATM   17  C   UNL     1       6.606  25.270  53.525  1.00  0.00    -0.024 A 
HETATM   18  C   UNL     1       7.354  24.831  52.415  1.00  0.00     0.011 A 
HETATM   19  C   UNL     1       7.954  23.567  52.393  1.00  0.00     0.020 A 
HETATM   20  C   UNL     1       7.846  22.727  53.494  1.00  0.00     0.011 A 
HETATM   21 BR   UNL     1       8.643  21.016  53.460  1.00  0.00    -0.051 Br
HETATM   22  C   UNL     1       7.164  23.154  54.627  1.00  0.00     0.020 A 
HETATM   23  C   UNL     1       6.565  24.419  54.647  1.00  0.00     0.011 A 
ENDBRANCH  12  17
ENDBRANCH   4   8
BRANCH   1  24
HETATM   24  C   UNL     1       8.636  30.904  59.610  1.00  0.00     0.045 A 
HETATM   25  C   UNL     1       7.853  32.060  59.769  1.00  0.00     0.033 A 
HETATM   26  C   UNL     1       7.716  32.692  61.016  1.00  0.00     0.039 A 
HETATM   27  C   UNL     1       8.358  32.182  62.136  1.00  0.00     0.068 A 
HETATM   28  C   UNL     1       9.175  31.067  61.989  1.00  0.00     0.039 A 
HETATM   29  C   UNL     1       9.310  30.434  60.746  1.00  0.00     0.033 A 
BRANCH  27  30
HETATM   30  O   UNL     1       8.281  32.682  63.403  1.00  0.00    -0.351 OA
BRANCH  30  31
HETATM   31  C   UNL     1       6.979  33.033  63.877  1.00  0.00     0.175 C 
BRANCH  31  32
HETATM   32  C   UNL     1       7.146  33.750  65.213  1.00  0.00     0.022 C 
HETATM   33  C   UNL     1       5.808  34.035  65.872  1.00  0.00     0.007 C 
ENDBRANCH  31  32
ENDBRANCH  30  31
ENDBRANCH  27  30
ENDBRANCH   1  24
TORSDOF 7
ENDMDL
MODEL 2
REMARK VINA RESULT:      -9.0      5.247      9.653
REMARK  7 active torsions:
REMARK  status: ('A' for Active; 'I' for Inactive)
REMARK    1  A    between atoms: C_2  and  C_3 
REMARK    2  A    between atoms: C_3  and  O_4 
REMARK    3  A    between atoms: O_4  and  C_5 
REMARK    4  A    between atoms: C_8  and  N_9 
REMARK    5  A    between atoms: C_12  and  N_13 
REMARK    6  A    between atoms: C_17  and  O_18 
REMARK    7  A    between atoms: C_17  and  C_19 
ROOT
HETATM    1  N   UNL     1       4.511  28.567  52.684  1.00  0.00    -0.251 N 
HETATM    2  C   UNL     1       4.833  27.541  53.542  1.00  0.00     0.262 C 
HETATM    3  O   UNL     1       5.175  26.385  53.335  1.00  0.00    -0.270 OA
HETATM    4  C   UNL     1       4.725  28.072  54.951  1.00  0.00     0.289 C 
HETATM    5  C   UNL     1       4.929  29.553  54.782  1.00  0.00     0.146 C 
HETATM    6  C   UNL     1       4.446  29.764  53.374  1.00  0.00     0.233 C 
HETATM    7  O   UNL     1       4.090  30.869  53.000  1.00  0.00    -0.273 OA
ENDROOT
BRANCH   4   8
HETATM    8  N   UNL     1       5.664  27.402  55.970  1.00  0.00    -0.058 N 
HETATM    9  H   UNL     1       5.657  28.063  56.768  1.00  0.00     0.281 HD
HETATM   10  C   UNL     1       5.167  26.095  56.556  1.00  0.00     0.239 C 
HETATM   11  C   UNL     1       6.138  25.606  57.618  1.00  0.00     0.071 C 
HETATM   12  C   UNL     1       7.561  25.411  57.051  1.00  0.00     0.088 C 
HETATM   13  C   UNL     1       8.005  26.798  56.543  1.00  0.00     0.071 C 
HETATM   14  C   UNL     1       7.083  27.331  55.461  1.00  0.00     0.239 C 
BRANCH  12  15
HETATM   15  O   UNL     1       8.406  25.097  58.158  1.00  0.00    -0.385 OA
HETATM   16  H   UNL     1       9.340  25.209  57.903  1.00  0.00     0.211 HD
ENDBRANCH  12  15
BRANCH  12  17
HETATM   17  C   UNL     1       7.685  24.279  56.022  1.00  0.00    -0.024 A 
HETATM   18  C   UNL     1       7.578  22.924  56.393  1.00  0.00     0.011 A 
HETATM   19  C   UNL     1       7.719  21.896  55.454  1.00  0.00     0.020 A 
HETATM   20  C   UNL     1       7.937  22.202  54.117  1.00  0.00     0.011 A 
HETATM   21 BR   UNL     1       8.141  20.817  52.851  1.00  0.00    -0.051 Br
HETATM   22  C   UNL     1       7.991  23.530  53.709  1.00  0.00     0.020 A 
HETATM   23  C   UNL     1       7.850  24.556  54.651  1.00  0.00     0.011 A 
ENDBRANCH  12  17
ENDBRANCH   4   8
BRANCH   1  24
HETATM   24  C   UNL     1       4.243  28.413  51.287  1.00  0.00     0.045 A 
HETATM   25  C   UNL     1       5.251  28.036  50.383  1.00  0.00     0.033 A 
HETATM   26  C   UNL     1       4.978  27.814  49.023  1.00  0.00     0.039 A 
HETATM   27  C   UNL     1       3.686  27.962  48.534  1.00  0.00     0.068 A 
HETATM   28  C   UNL     1       2.685  28.379  49.403  1.00  0.00     0.039 A 
HETATM   29  C   UNL     1       2.957  28.599  50.760  1.00  0.00     0.033 A 
BRANCH  27  30
HETATM   30  O   UNL     1       3.286  27.746  47.247  1.00  0.00    -0.351 OA
BRANCH  30  31
HETATM   31  C   UNL     1       2.178  26.862  47.059  1.00  0.00     0.175 C 
BRANCH  31  32
HETATM   32  C   UNL     1       2.734  25.476  46.752  1.00  0.00     0.022 C 
HETATM   33  C   UNL     1       2.970  24.669  48.016  1.00  0.00     0.007 C 
ENDBRANCH  31  32
ENDBRANCH  30  31
ENDBRANCH  27  30
ENDBRANCH   1  24
TORSDOF 7
ENDMDL
MODEL 3
REMARK VINA RESULT:      -8.8      3.933     10.007
REMARK  7 active torsions:
REMARK  status: ('A' for Active; 'I' for Inactive)
REMARK    1  A    between atoms: C_2  and  C_3 
REMARK    2  A    between atoms: C_3  and  O_4 
REMARK    3  A    between atoms: O_4  and  C_5 
REMARK    4  A    between atoms: C_8  and  N_9 
REMARK    5  A    between atoms: C_12  and  N_13 
REMARK    6  A    between atoms: C_17  and  O_18 
REMARK    7  A    between atoms: C_17  and  C_19 
ROOT
HETATM    1  N   UNL     1       6.964  27.518  55.916  1.00  0.00    -0.251 N 
HETATM    2  C   UNL     1       6.005  28.492  55.750  1.00  0.00     0.262 C 
HETATM    3  O   UNL     1       4.934  28.487  55.160  1.00  0.00    -0.270 OA
HETATM    4  C   UNL     1       6.470  29.722  56.491  1.00  0.00     0.289 C 
HETATM    5  C   UNL     1       7.396  29.169  57.540  1.00  0.00     0.146 C 
HETATM    6  C   UNL     1       7.875  27.905  56.881  1.00  0.00     0.233 C 
HETATM    7  O   UNL     1       8.916  27.378  57.235  1.00  0.00    -0.273 OA
ENDROOT
BRANCH   4   8
HETATM    8  N   UNL     1       5.343  30.619  57.031  1.00  0.00    -0.058 N 
HETATM    9  H   UNL     1       4.651  30.620  56.260  1.00  0.00     0.281 HD
HETATM   10  C   UNL     1       4.582  30.068  58.221  1.00  0.00     0.239 C 
HETATM   11  C   UNL     1       3.437  31.003  58.577  1.00  0.00     0.071 C 
HETATM   12  C   UNL     1       3.937  32.428  58.898  1.00  0.00     0.088 C 
HETATM   13  C   UNL     1       4.633  32.928  57.616  1.00  0.00     0.071 C 
HETATM   14  C   UNL     1       5.803  32.044  57.220  1.00  0.00     0.239 C 
BRANCH  12  15
HETATM   15  O   UNL     1       2.776  33.241  59.070  1.00  0.00    -0.385 OA
HETATM   16  H   UNL     1       3.028  34.183  59.057  1.00  0.00     0.211 HD
ENDBRANCH  12  15
BRANCH  12  17
HETATM   17  C   UNL     1       4.784  32.532  60.173  1.00  0.00    -0.024 A 
HETATM   18  C   UNL     1       4.225  32.347  61.453  1.00  0.00     0.011 A 
HETATM   19  C   UNL     1       4.999  32.470  62.613  1.00  0.00     0.020 A 
HETATM   20  C   UNL     1       6.356  32.748  62.516  1.00  0.00     0.011 A 
HETATM   21 BR   UNL     1       7.398  32.928  64.080  1.00  0.00    -0.051 Br
HETATM   22  C   UNL     1       6.949  32.880  61.266  1.00  0.00     0.020 A 
HETATM   23  C   UNL     1       6.174  32.757  60.108  1.00  0.00     0.011 A 
ENDBRANCH  12  17
ENDBRANCH   4   8
BRANCH   1  24
HETATM   24  C   UNL     1       7.029  26.300  55.169  1.00  0.00     0.045 A 
HETATM   25  C   UNL     1       7.480  26.277  53.838  1.00  0.00     0.033 A 
HETATM   26  C   UNL     1       7.613  25.074  53.125  1.00  0.00     0.039 A 
HETATM   27  C   UNL     1       7.301  23.862  53.727  1.00  0.00     0.068 A 
HETATM   28  C   UNL     1       6.809  23.869  55.027  1.00  0.00     0.039 A 
HETATM   29  C   UNL     1       6.678  25.068  55.740  1.00  0.00     0.033 A 
BRANCH  27  30
HETATM   30  O   UNL     1       7.417  22.628  53.156  1.00  0.00    -0.351 OA
BRANCH  30  31
HETATM   31  C   UNL     1       8.643  21.929  53.381  1.00  0.00     0.175 C 
BRANCH  31  32
HETATM   32  C   UNL     1       8.299  20.494  53.765  1.00  0.00     0.022 C 
HETATM   33  C   UNL     1       7.918  20.379  55.230  1.00  0.00     0.007 C 
ENDBRANCH  31  32
ENDBRANCH  30  31
ENDBRANCH  27  30
ENDBRANCH   1  24
TORSDOF 7
ENDMDL
MODEL 4
REMARK VINA RESULT:      -8.5      7.115      9.869
REMARK  7 active torsions:
REMARK  status: ('A' for Active; 'I' for Inactive)
REMARK    1  A    between atoms: C_2  and  C_3 
REMARK    2  A    between atoms: C_3  and  O_4 
REMARK    3  A    between atoms: O_4  and  C_5 
REMARK    4  A    between atoms: C_8  and  N_9 
REMARK    5  A    between atoms: C_12  and  N_13 
REMARK    6  A    between atoms: C_17  and  O_18 
REMARK    7  A    between atoms: C_17  and  C_19 
ROOT
HETATM    1  N   UNL     1       6.226  26.240  53.017  1.00  0.00    -0.251 N 
HETATM    2  C   UNL     1       5.414  25.992  51.933  1.00  0.00     0.262 C 
HETATM    3  O   UNL     1       4.799  24.991  51.591  1.00  0.00    -0.270 OA
HETATM    4  C   UNL     1       5.339  27.260  51.118  1.00  0.00     0.289 C 
HETATM    5  C   UNL     1       5.639  28.339  52.122  1.00  0.00     0.146 C 
HETATM    6  C   UNL     1       6.482  27.595  53.120  1.00  0.00     0.233 C 
HETATM    7  O   UNL     1       7.234  28.198  53.868  1.00  0.00    -0.273 OA
ENDROOT
BRANCH   4   8
HETATM    8  N   UNL     1       4.029  27.450  50.335  1.00  0.00    -0.058 N 
HETATM    9  H   UNL     1       3.428  26.684  50.690  1.00  0.00     0.281 HD
HETATM   10  C   UNL     1       3.255  28.715  50.652  1.00  0.00     0.239 C 
HETATM   11  C   UNL     1       1.940  28.718  49.889  1.00  0.00     0.071 C 
HETATM   12  C   UNL     1       2.158  28.613  48.364  1.00  0.00     0.088 C 
HETATM   13  C   UNL     1       2.886  27.273  48.135  1.00  0.00     0.071 C 
HETATM   14  C   UNL     1       4.222  27.218  48.856  1.00  0.00     0.239 C 
BRANCH  12  15
HETATM   15  O   UNL     1       0.866  28.477  47.773  1.00  0.00    -0.385 OA
HETATM   16  H   UNL     1       0.393  29.329  47.812  1.00  0.00     0.211 HD
ENDBRANCH  12  15
BRANCH  12  17
HETATM   17  C   UNL     1       2.843  29.833  47.735  1.00  0.00    -0.024 A 
HETATM   18  C   UNL     1       3.974  29.704  46.905  1.00  0.00     0.011 A 
HETATM   19  C   UNL     1       4.609  30.824  46.355  1.00  0.00     0.020 A 
HETATM   20  C   UNL     1       4.107  32.096  46.599  1.00  0.00     0.011 A 
HETATM   21 BR   UNL     1       4.970  33.608  45.870  1.00  0.00    -0.051 Br
HETATM   22  C   UNL     1       2.959  32.253  47.367  1.00  0.00     0.020 A 
HETATM   23  C   UNL     1       2.326  31.132  47.915  1.00  0.00     0.011 A 
ENDBRANCH  12  17
ENDBRANCH   4   8
BRANCH   1  24
HETATM   24  C   UNL     1       6.758  25.238  53.888  1.00  0.00     0.045 A 
HETATM   25  C   UNL     1       7.793  24.381  53.477  1.00  0.00     0.033 A 
HETATM   26  C   UNL     1       8.367  23.444  54.352  1.00  0.00     0.039 A 
HETATM   27  C   UNL     1       7.919  23.341  55.662  1.00  0.00     0.068 A 
HETATM   28  C   UNL     1       6.864  24.147  56.074  1.00  0.00     0.039 A 
HETATM   29  C   UNL     1       6.293  25.084  55.202  1.00  0.00     0.033 A 
BRANCH  27  30
HETATM   30  O   UNL     1       8.411  22.498  56.616  1.00  0.00    -0.351 OA
BRANCH  30  31
HETATM   31  C   UNL     1       7.978  21.137  56.555  1.00  0.00     0.175 C 
BRANCH  31  32
HETATM   32  C   UNL     1       9.087  20.324  55.894  1.00  0.00     0.022 C 
HETATM   33  C   UNL     1       8.737  19.950  54.465  1.00  0.00     0.007 C 
ENDBRANCH  31  32
ENDBRANCH  30  31
ENDBRANCH  27  30
ENDBRANCH   1  24
TORSDOF 7
ENDMDL
MODEL 5
REMARK VINA RESULT:      -8.5      3.580      9.513
REMARK  7 active torsions:
REMARK  status: ('A' for Active; 'I' for Inactive)
REMARK    1  A    between atoms: C_2  and  C_3 
REMARK    2  A    between atoms: C_3  and  O_4 
REMARK    3  A    between atoms: O_4  and  C_5 
REMARK    4  A    between atoms: C_8  and  N_9 
REMARK    5  A    between atoms: C_12  and  N_13 
REMARK    6  A    between atoms: C_17  and  O_18 
REMARK    7  A    between atoms: C_17  and  C_19 
ROOT
HETATM    1  N   UNL     1       5.236  27.461  55.236  1.00  0.00    -0.251 N 
HETATM    2  C   UNL     1       5.041  28.315  56.297  1.00  0.00     0.262 C 
HETATM    3  O   UNL     1       5.629  28.437  57.363  1.00  0.00    -0.270 OA
HETATM    4  C   UNL     1       3.882  29.218  55.950  1.00  0.00     0.289 C 
HETATM    5  C   UNL     1       3.874  29.212  54.445  1.00  0.00     0.146 C 
HETATM    6  C   UNL     1       4.492  27.875  54.146  1.00  0.00     0.233 C 
HETATM    7  O   UNL     1       4.310  27.335  53.068  1.00  0.00    -0.273 OA
ENDROOT
BRANCH   4   8
HETATM    8  N   UNL     1       3.934  30.615  56.592  1.00  0.00    -0.058 N 
HETATM    9  H   UNL     1       3.180  31.129  56.100  1.00  0.00     0.281 HD
HETATM   10  C   UNL     1       3.542  30.678  58.054  1.00  0.00     0.239 C 
HETATM   11  C   UNL     1       3.535  32.124  58.523  1.00  0.00     0.071 C 
HETATM   12  C   UNL     1       4.910  32.799  58.327  1.00  0.00     0.088 C 
HETATM   13  C   UNL     1       5.190  32.748  56.811  1.00  0.00     0.071 C 
HETATM   14  C   UNL     1       5.231  31.323  56.286  1.00  0.00     0.239 C 
BRANCH  12  15
HETATM   15  O   UNL     1       4.743  34.177  58.660  1.00  0.00    -0.385 OA
HETATM   16  H   UNL     1       5.201  34.372  59.498  1.00  0.00     0.211 HD
ENDBRANCH  12  15
BRANCH  12  17
HETATM   17  C   UNL     1       6.029  32.229  59.208  1.00  0.00    -0.024 A 
HETATM   18  C   UNL     1       7.080  31.460  58.669  1.00  0.00     0.011 A 
HETATM   19  C   UNL     1       8.083  30.921  59.483  1.00  0.00     0.020 A 
HETATM   20  C   UNL     1       8.075  31.168  60.850  1.00  0.00     0.011 A 
HETATM   21 BR   UNL     1       9.420  30.431  61.951  1.00  0.00    -0.051 Br
HETATM   22  C   UNL     1       7.086  31.971  61.404  1.00  0.00     0.020 A 
HETATM   23  C   UNL     1       6.083  32.508  60.588  1.00  0.00     0.011 A 
ENDBRANCH  12  17
ENDBRANCH   4   8
BRANCH   1  24
HETATM   24  C   UNL     1       6.061  26.292  55.267  1.00  0.00     0.045 A 
HETATM   25  C   UNL     1       7.105  26.104  54.346  1.00  0.00     0.033 A 
HETATM   26  C   UNL     1       7.962  24.993  54.418  1.00  0.00     0.039 A 
HETATM   27  C   UNL     1       7.795  24.042  55.416  1.00  0.00     0.068 A 
HETATM   28  C   UNL     1       6.739  24.185  56.307  1.00  0.00     0.039 A 
HETATM   29  C   UNL     1       5.885  25.294  56.238  1.00  0.00     0.033 A 
BRANCH  27  30
HETATM   30  O   UNL     1       8.575  22.939  55.613  1.00  0.00    -0.351 OA
BRANCH  30  31
HETATM   31  C   UNL     1       9.021  22.250  54.442  1.00  0.00     0.175 C 
BRANCH  31  32
HETATM   32  C   UNL     1       7.939  21.250  54.049  1.00  0.00     0.022 C 
HETATM   33  C   UNL     1       8.345  20.426  52.841  1.00  0.00     0.007 C 
ENDBRANCH  31  32
ENDBRANCH  30  31
ENDBRANCH  27  30
ENDBRANCH   1  24
TORSDOF 7
ENDMDL
MODEL 6
REMARK VINA RESULT:      -8.3      6.088     10.937
REMARK  7 active torsions:
REMARK  status: ('A' for Active; 'I' for Inactive)
REMARK    1  A    between atoms: C_2  and  C_3 
REMARK    2  A    between atoms: C_3  and  O_4 
REMARK    3  A    between atoms: O_4  and  C_5 
REMARK    4  A    between atoms: C_8  and  N_9 
REMARK    5  A    between atoms: C_12  and  N_13 
REMARK    6  A    between atoms: C_17  and  O_18 
REMARK    7  A    between atoms: C_17  and  C_19 
ROOT
HETATM    1  N   UNL     1       3.655  27.753  49.387  1.00  0.00    -0.251 N 
HETATM    2  C   UNL     1       3.952  28.207  50.652  1.00  0.00     0.262 C 
HETATM    3  O   UNL     1       3.303  28.866  51.453  1.00  0.00    -0.270 OA
HETATM    4  C   UNL     1       5.339  27.723  50.998  1.00  0.00     0.289 C 
HETATM    5  C   UNL     1       5.511  26.506  50.130  1.00  0.00     0.146 C 
HETATM    6  C   UNL     1       4.598  26.827  48.979  1.00  0.00     0.233 C 
HETATM    7  O   UNL     1       4.748  26.283  47.898  1.00  0.00    -0.273 OA
ENDROOT
BRANCH   4   8
HETATM    8  N   UNL     1       5.588  27.487  52.498  1.00  0.00    -0.058 N 
HETATM    9  H   UNL     1       5.240  28.360  52.935  1.00  0.00     0.281 HD
HETATM   10  C   UNL     1       4.761  26.389  53.134  1.00  0.00     0.239 C 
HETATM   11  C   UNL     1       5.031  26.340  54.629  1.00  0.00     0.071 C 
HETATM   12  C   UNL     1       6.526  26.105  54.936  1.00  0.00     0.088 C 
HETATM   13  C   UNL     1       7.277  27.300  54.313  1.00  0.00     0.071 C 
HETATM   14  C   UNL     1       7.061  27.388  52.811  1.00  0.00     0.239 C 
BRANCH  12  15
HETATM   15  O   UNL     1       6.680  26.226  56.350  1.00  0.00    -0.385 OA
HETATM   16  H   UNL     1       6.462  25.378  56.780  1.00  0.00     0.211 HD
ENDBRANCH  12  15
BRANCH  12  17
HETATM   17  C   UNL     1       7.052  24.726  54.517  1.00  0.00    -0.024 A 
HETATM   18  C   UNL     1       7.546  24.482  53.220  1.00  0.00     0.011 A 
HETATM   19  C   UNL     1       7.999  23.214  52.837  1.00  0.00     0.020 A 
HETATM   20  C   UNL     1       7.998  22.171  53.754  1.00  0.00     0.011 A 
HETATM   21 BR   UNL     1       8.596  20.457  53.235  1.00  0.00    -0.051 Br
HETATM   22  C   UNL     1       7.571  22.393  55.057  1.00  0.00     0.020 A 
HETATM   23  C   UNL     1       7.118  23.661  55.438  1.00  0.00     0.011 A 
ENDBRANCH  12  17
ENDBRANCH   4   8
BRANCH   1  24
HETATM   24  C   UNL     1       2.553  28.203  48.594  1.00  0.00     0.045 A 
HETATM   25  C   UNL     1       2.425  29.549  48.209  1.00  0.00     0.033 A 
HETATM   26  C   UNL     1       1.383  29.981  47.372  1.00  0.00     0.039 A 
HETATM   27  C   UNL     1       0.443  29.076  46.897  1.00  0.00     0.068 A 
HETATM   28  C   UNL     1       0.525  27.750  47.304  1.00  0.00     0.039 A 
HETATM   29  C   UNL     1       1.566  27.318  48.138  1.00  0.00     0.033 A 
BRANCH  27  30
HETATM   30  O   UNL     1      -0.593  29.362  46.056  1.00  0.00    -0.351 OA
BRANCH  30  31
HETATM   31  C   UNL     1      -0.835  30.744  45.781  1.00  0.00     0.175 C 
BRANCH  31  32
HETATM   32  C   UNL     1      -2.179  31.114  46.400  1.00  0.00     0.022 C 
HETATM   33  C   UNL     1      -2.016  31.713  47.785  1.00  0.00     0.007 C 
ENDBRANCH  31  32
ENDBRANCH  30  31
ENDBRANCH  27  30
ENDBRANCH   1  24
TORSDOF 7
ENDMDL
MODEL 7
REMARK VINA RESULT:      -8.1      5.160      9.579
REMARK  7 active torsions:
REMARK  status: ('A' for Active; 'I' for Inactive)
REMARK    1  A    between atoms: C_2  and  C_3 
REMARK    2  A    between atoms: C_3  and  O_4 
REMARK    3  A    between atoms: O_4  and  C_5 
REMARK    4  A    between atoms: C_8  and  N_9 
REMARK    5  A    between atoms: C_12  and  N_13 
REMARK    6  A    between atoms: C_17  and  O_18 
REMARK    7  A    between atoms: C_17  and  C_19 
ROOT
HETATM    1  N   UNL     1       7.323  27.102  56.171  1.00  0.00    -0.251 N 
HETATM    2  C   UNL     1       6.147  27.576  55.637  1.00  0.00     0.262 C 
HETATM    3  O   UNL     1       5.128  27.003  55.276  1.00  0.00    -0.270 OA
HETATM    4  C   UNL     1       6.256  29.079  55.553  1.00  0.00     0.289 C 
HETATM    5  C   UNL     1       7.270  29.416  56.612  1.00  0.00     0.146 C 
HETATM    6  C   UNL     1       8.078  28.149  56.667  1.00  0.00     0.233 C 
HETATM    7  O   UNL     1       9.213  28.157  57.113  1.00  0.00    -0.273 OA
ENDROOT
BRANCH   4   8
HETATM    8  N   UNL     1       4.920  29.834  55.673  1.00  0.00    -0.058 N 
HETATM    9  H   UNL     1       4.234  29.075  55.836  1.00  0.00     0.281 HD
HETATM   10  C   UNL     1       4.784  30.734  56.885  1.00  0.00     0.239 C 
HETATM   11  C   UNL     1       3.385  31.327  56.931  1.00  0.00     0.071 C 
HETATM   12  C   UNL     1       3.058  32.129  55.653  1.00  0.00     0.088 C 
HETATM   13  C   UNL     1       3.155  31.121  54.489  1.00  0.00     0.071 C 
HETATM   14  C   UNL     1       4.541  30.509  54.378  1.00  0.00     0.239 C 
BRANCH  12  15
HETATM   15  O   UNL     1       1.685  32.507  55.745  1.00  0.00    -0.385 OA
HETATM   16  H   UNL     1       1.310  32.187  56.587  1.00  0.00     0.211 HD
ENDBRANCH  12  15
BRANCH  12  17
HETATM   17  C   UNL     1       3.892  33.404  55.471  1.00  0.00    -0.024 A 
HETATM   18  C   UNL     1       4.535  33.704  54.254  1.00  0.00     0.011 A 
HETATM   19  C   UNL     1       5.315  34.856  54.104  1.00  0.00     0.020 A 
HETATM   20  C   UNL     1       5.442  35.750  55.159  1.00  0.00     0.011 A 
HETATM   21 BR   UNL     1       6.506  37.298  54.963  1.00  0.00    -0.051 Br
HETATM   22  C   UNL     1       4.774  35.513  56.354  1.00  0.00     0.020 A 
HETATM   23  C   UNL     1       3.994  34.360  56.501  1.00  0.00     0.011 A 
ENDBRANCH  12  17
ENDBRANCH   4   8
BRANCH   1  24
HETATM   24  C   UNL     1       7.723  25.729  56.179  1.00  0.00     0.045 A 
HETATM   25  C   UNL     1       8.344  25.150  57.298  1.00  0.00     0.033 A 
HETATM   26  C   UNL     1       8.675  23.785  57.336  1.00  0.00     0.039 A 
HETATM   27  C   UNL     1       8.389  22.964  56.253  1.00  0.00     0.068 A 
HETATM   28  C   UNL     1       7.818  23.527  55.118  1.00  0.00     0.039 A 
HETATM   29  C   UNL     1       7.487  24.888  55.081  1.00  0.00     0.033 A 
BRANCH  27  30
HETATM   30  O   UNL     1       8.629  21.622  56.178  1.00  0.00    -0.351 OA
BRANCH  30  31
HETATM   31  C   UNL     1       7.817  20.875  55.270  1.00  0.00     0.175 C 
BRANCH  31  32
HETATM   32  C   UNL     1       8.739  20.235  54.237  1.00  0.00     0.022 C 
HETATM   33  C   UNL     1       8.253  20.478  52.819  1.00  0.00     0.007 C 
ENDBRANCH  31  32
ENDBRANCH  30  31
ENDBRANCH  27  30
ENDBRANCH   1  24
TORSDOF 7
ENDMDL
MODEL 8
REMARK VINA RESULT:      -8.0      5.241     11.312
REMARK  7 active torsions:
REMARK  status: ('A' for Active; 'I' for Inactive)
REMARK    1  A    between atoms: C_2  and  C_3 
REMARK    2  A    between atoms: C_3  and  O_4 
REMARK    3  A    between atoms: O_4  and  C_5 
REMARK    4  A    between atoms: C_8  and  N_9 
REMARK    5  A    between atoms: C_12  and  N_13 
REMARK    6  A    between atoms: C_17  and  O_18 
REMARK    7  A    between atoms: C_17  and  C_19 
ROOT
HETATM    1  N   UNL     1       5.535  30.652  57.870  1.00  0.00    -0.251 N 
HETATM    2  C   UNL     1       4.362  31.250  58.271  1.00  0.00     0.262 C 
HETATM    3  O   UNL     1       3.191  30.929  58.117  1.00  0.00    -0.270 OA
HETATM    4  C   UNL     1       4.724  32.497  59.040  1.00  0.00     0.289 C 
HETATM    5  C   UNL     1       6.111  32.206  59.543  1.00  0.00     0.146 C 
HETATM    6  C   UNL     1       6.612  31.243  58.503  1.00  0.00     0.233 C 
HETATM    7  O   UNL     1       7.809  31.075  58.339  1.00  0.00    -0.273 OA
ENDROOT
BRANCH   4   8
HETATM    8  N   UNL     1       3.714  32.905  60.127  1.00  0.00    -0.058 N 
HETATM    9  H   UNL     1       2.989  32.167  60.064  1.00  0.00     0.281 HD
HETATM   10  C   UNL     1       4.218  32.820  61.553  1.00  0.00     0.239 C 
HETATM   11  C   UNL     1       3.089  33.146  62.518  1.00  0.00     0.071 C 
HETATM   12  C   UNL     1       2.499  34.549  62.261  1.00  0.00     0.088 C 
HETATM   13  C   UNL     1       1.954  34.518  60.818  1.00  0.00     0.071 C 
HETATM   14  C   UNL     1       3.044  34.218  59.803  1.00  0.00     0.239 C 
BRANCH  12  15
HETATM   15  O   UNL     1       1.365  34.682  63.118  1.00  0.00    -0.385 OA
HETATM   16  H   UNL     1       0.798  33.893  63.040  1.00  0.00     0.211 HD
ENDBRANCH  12  15
BRANCH  12  17
HETATM   17  C   UNL     1       3.460  35.708  62.560  1.00  0.00    -0.024 A 
HETATM   18  C   UNL     1       3.350  36.951  61.907  1.00  0.00     0.011 A 
HETATM   19  C   UNL     1       4.247  37.995  62.167  1.00  0.00     0.020 A 
HETATM   20  C   UNL     1       5.253  37.827  63.110  1.00  0.00     0.011 A 
HETATM   21 BR   UNL     1       6.471  39.228  63.451  1.00  0.00    -0.051 Br
HETATM   22  C   UNL     1       5.353  36.632  63.813  1.00  0.00     0.020 A 
HETATM   23  C   UNL     1       4.455  35.591  63.551  1.00  0.00     0.011 A 
ENDBRANCH  12  17
ENDBRANCH   4   8
BRANCH   1  24
HETATM   24  C   UNL     1       5.628  29.598  56.907  1.00  0.00     0.045 A 
HETATM   25  C   UNL     1       5.346  29.816  55.548  1.00  0.00     0.033 A 
HETATM   26  C   UNL     1       5.505  28.802  54.589  1.00  0.00     0.039 A 
HETATM   27  C   UNL     1       5.953  27.544  54.966  1.00  0.00     0.068 A 
HETATM   28  C   UNL     1       6.193  27.294  56.312  1.00  0.00     0.039 A 
HETATM   29  C   UNL     1       6.037  28.306  57.269  1.00  0.00     0.033 A 
BRANCH  27  30
HETATM   30  O   UNL     1       6.179  26.488  54.131  1.00  0.00    -0.351 OA
BRANCH  30  31
HETATM   31  C   UNL     1       6.890  25.375  54.679  1.00  0.00     0.175 C 
BRANCH  31  32
HETATM   32  C   UNL     1       6.568  24.151  53.829  1.00  0.00     0.022 C 
HETATM   33  C   UNL     1       7.760  23.713  52.997  1.00  0.00     0.007 C 
ENDBRANCH  31  32
ENDBRANCH  30  31
ENDBRANCH  27  30
ENDBRANCH   1  24
TORSDOF 7
ENDMDL
MODEL 9
REMARK VINA RESULT:      -8.0      5.066      7.161
REMARK  7 active torsions:
REMARK  status: ('A' for Active; 'I' for Inactive)
REMARK    1  A    between atoms: C_2  and  C_3 
REMARK    2  A    between atoms: C_3  and  O_4 
REMARK    3  A    between atoms: O_4  and  C_5 
REMARK    4  A    between atoms: C_8  and  N_9 
REMARK    5  A    between atoms: C_12  and  N_13 
REMARK    6  A    between atoms: C_17  and  O_18 
REMARK    7  A    between atoms: C_17  and  C_19 
ROOT
HETATM    1  N   UNL     1       3.888  29.886  54.282  1.00  0.00    -0.251 N 
HETATM    2  C   UNL     1       4.942  29.659  55.138  1.00  0.00     0.262 C 
HETATM    3  O   UNL     1       5.352  30.282  56.107  1.00  0.00    -0.270 OA
HETATM    4  C   UNL     1       5.613  28.377  54.706  1.00  0.00     0.289 C 
HETATM    5  C   UNL     1       4.519  27.636  53.986  1.00  0.00     0.146 C 
HETATM    6  C   UNL     1       3.658  28.769  53.501  1.00  0.00     0.233 C 
HETATM    7  O   UNL     1       2.896  28.610  52.562  1.00  0.00    -0.273 OA
ENDROOT
BRANCH   4   8
HETATM    8  N   UNL     1       6.292  27.588  55.839  1.00  0.00    -0.058 N 
HETATM    9  H   UNL     1       6.262  28.248  56.637  1.00  0.00     0.281 HD
HETATM   10  C   UNL     1       5.538  26.368  56.329  1.00  0.00     0.239 C 
HETATM   11  C   UNL     1       6.269  25.753  57.512  1.00  0.00     0.071 C 
HETATM   12  C   UNL     1       7.717  25.356  57.151  1.00  0.00     0.088 C 
HETATM   13  C   UNL     1       8.419  26.664  56.733  1.00  0.00     0.071 C 
HETATM   14  C   UNL     1       7.745  27.316  55.537  1.00  0.00     0.239 C 
BRANCH  12  15
HETATM   15  O   UNL     1       8.341  24.933  58.363  1.00  0.00    -0.385 OA
HETATM   16  H   UNL     1       8.405  23.960  58.380  1.00  0.00     0.211 HD
ENDBRANCH  12  15
BRANCH  12  17
HETATM   17  C   UNL     1       7.828  24.212  56.135  1.00  0.00    -0.024 A 
HETATM   18  C   UNL     1       7.887  22.864  56.538  1.00  0.00     0.011 A 
HETATM   19  C   UNL     1       8.015  21.827  55.606  1.00  0.00     0.020 A 
HETATM   20  C   UNL     1       8.054  22.115  54.248  1.00  0.00     0.011 A 
HETATM   21 BR   UNL     1       8.241  20.719  52.991  1.00  0.00    -0.051 Br
HETATM   22  C   UNL     1       7.941  23.431  53.815  1.00  0.00     0.020 A 
HETATM   23  C   UNL     1       7.813  24.466  54.749  1.00  0.00     0.011 A 
ENDBRANCH  12  17
ENDBRANCH   4   8
BRANCH   1  24
HETATM   24  C   UNL     1       3.161  31.115  54.188  1.00  0.00     0.045 A 
HETATM   25  C   UNL     1       3.092  31.838  52.985  1.00  0.00     0.033 A 
HETATM   26  C   UNL     1       2.321  33.006  52.869  1.00  0.00     0.039 A 
HETATM   27  C   UNL     1       1.598  33.481  53.956  1.00  0.00     0.068 A 
HETATM   28  C   UNL     1       1.692  32.806  55.167  1.00  0.00     0.039 A 
HETATM   29  C   UNL     1       2.458  31.639  55.283  1.00  0.00     0.033 A 
BRANCH  27  30
HETATM   30  O   UNL     1       0.790  34.581  53.964  1.00  0.00    -0.351 OA
BRANCH  30  31
HETATM   31  C   UNL     1      -0.099  34.716  55.075  1.00  0.00     0.175 C 
BRANCH  31  32
HETATM   32  C   UNL     1      -1.501  34.356  54.596  1.00  0.00     0.022 C 
HETATM   33  C   UNL     1      -1.999  33.067  55.224  1.00  0.00     0.007 C 
ENDBRANCH  31  32
ENDBRANCH  30  31
ENDBRANCH  27  30
ENDBRANCH   1  24
TORSDOF 7
ENDMDL
MODEL 10
REMARK VINA RESULT:      -8.0      3.011      3.545
REMARK  7 active torsions:
REMARK  status: ('A' for Active; 'I' for Inactive)
REMARK    1  A    between atoms: C_2  and  C_3 
REMARK    2  A    between atoms: C_3  and  O_4 
REMARK    3  A    between atoms: O_4  and  C_5 
REMARK    4  A    between atoms: C_8  and  N_9 
REMARK    5  A    between atoms: C_12  and  N_13 
REMARK    6  A    between atoms: C_17  and  O_18 
REMARK    7  A    between atoms: C_17  and  C_19 
ROOT
HETATM    1  N   UNL     1       5.568  31.003  57.957  1.00  0.00    -0.251 N 
HETATM    2  C   UNL     1       5.138  30.183  56.939  1.00  0.00     0.262 C 
HETATM    3  O   UNL     1       4.207  30.282  56.151  1.00  0.00    -0.270 OA
HETATM    4  C   UNL     1       6.076  29.001  56.877  1.00  0.00     0.289 C 
HETATM    5  C   UNL     1       7.346  29.531  57.486  1.00  0.00     0.146 C 
HETATM    6  C   UNL     1       6.817  30.605  58.395  1.00  0.00     0.233 C 
HETATM    7  O   UNL     1       7.482  31.001  59.339  1.00  0.00    -0.273 OA
ENDROOT
BRANCH   4   8
HETATM    8  N   UNL     1       6.240  28.375  55.482  1.00  0.00    -0.058 N 
HETATM    9  H   UNL     1       6.006  29.157  54.843  1.00  0.00     0.281 HD
HETATM   10  C   UNL     1       7.654  27.986  55.101  1.00  0.00     0.239 C 
HETATM   11  C   UNL     1       7.682  27.484  53.666  1.00  0.00     0.071 C 
HETATM   12  C   UNL     1       6.740  26.278  53.460  1.00  0.00     0.088 C 
HETATM   13  C   UNL     1       5.325  26.786  53.804  1.00  0.00     0.071 C 
HETATM   14  C   UNL     1       5.229  27.281  55.237  1.00  0.00     0.239 C 
BRANCH  12  15
HETATM   15  O   UNL     1       6.737  25.992  52.062  1.00  0.00    -0.385 OA
HETATM   16  H   UNL     1       6.893  26.812  51.557  1.00  0.00     0.211 HD
ENDBRANCH  12  15
BRANCH  12  17
HETATM   17  C   UNL     1       7.166  25.005  54.205  1.00  0.00    -0.024 A 
HETATM   18  C   UNL     1       7.218  23.752  53.563  1.00  0.00     0.011 A 
HETATM   19  C   UNL     1       7.582  22.591  54.255  1.00  0.00     0.020 A 
HETATM   20  C   UNL     1       7.933  22.664  55.597  1.00  0.00     0.011 A 
HETATM   21 BR   UNL     1       8.410  21.097  56.535  1.00  0.00    -0.051 Br
HETATM   22  C   UNL     1       7.947  23.894  56.244  1.00  0.00     0.020 A 
HETATM   23  C   UNL     1       7.582  25.053  55.550  1.00  0.00     0.011 A 
ENDBRANCH  12  17
ENDBRANCH   4   8
BRANCH   1  24
HETATM   24  C   UNL     1       4.813  32.087  58.507  1.00  0.00     0.045 A 
HETATM   25  C   UNL     1       3.943  31.900  59.594  1.00  0.00     0.033 A 
HETATM   26  C   UNL     1       3.255  32.974  60.183  1.00  0.00     0.039 A 
HETATM   27  C   UNL     1       3.423  34.264  59.699  1.00  0.00     0.068 A 
HETATM   28  C   UNL     1       4.243  34.463  58.595  1.00  0.00     0.039 A 
HETATM   29  C   UNL     1       4.931  33.393  58.008  1.00  0.00     0.033 A 
BRANCH  27  30
HETATM   30  O   UNL     1       2.840  35.392  60.199  1.00  0.00    -0.351 OA
BRANCH  30  31
HETATM   31  C   UNL     1       3.599  36.139  61.153  1.00  0.00     0.175 C 
BRANCH  31  32
HETATM   32  C   UNL     1       3.003  35.877  62.532  1.00  0.00     0.022 C 
HETATM   33  C   UNL     1       4.069  35.497  63.545  1.00  0.00     0.007 C 
ENDBRANCH  31  32
ENDBRANCH  30  31
ENDBRANCH  27  30
ENDBRANCH   1  24
TORSDOF 7
ENDMDL
