MODEL 1
REMARK VINA RESULT:      -9.1      0.000      0.000
REMARK  8 active torsions:
REMARK  status: ('A' for Active; 'I' for Inactive)
REMARK    1  A    between atoms: O_2  and  C_3 
REMARK    2  A    between atoms: C_6  and  C_7 
REMARK    3  A    between atoms: C_7  and  O_8 
REMARK    4  A    between atoms: C_7  and  C_9 
REMARK    5  A    between atoms: C_9  and  N_10 
REMARK    6  A    between atoms: C_11  and  N_12 
REMARK    7  A    between atoms: N_13  and  C_14 
REMARK    8  A    between atoms: C_14  and  C_15 
ROOT
HETATM    1  N   UNL     1       5.720  25.963  55.796  1.00  0.00    -0.178 N 
HETATM    2  C   UNL     1       6.687  25.139  56.179  1.00  0.00     0.681 C 
HETATM    3  N   UNL     1       7.419  24.797  55.129  1.00  0.00    -0.177 N 
HETATM    4  C   UNL     1       6.764  25.218  53.974  1.00  0.00     0.079 A 
HETATM    5  C   UNL     1       5.667  25.972  54.405  1.00  0.00     0.079 A 
HETATM    6  C   UNL     1       7.042  25.015  52.625  1.00  0.00     0.032 A 
HETATM    7  C   UNL     1       6.155  25.608  51.718  1.00  0.00     0.002 A 
HETATM    8  C   UNL     1       5.052  26.370  52.150  1.00  0.00     0.002 A 
HETATM    9  C   UNL     1       4.785  26.574  53.511  1.00  0.00     0.032 A 
ENDROOT
BRANCH   1  10
HETATM   10  C   UNL     1       4.896  26.780  56.703  1.00  0.00     0.184 C 
BRANCH  10  11
HETATM   11  C   UNL     1       5.193  28.292  56.599  1.00  0.00     0.170 C 
BRANCH  11  12
HETATM   12  C   UNL     1       6.685  28.542  56.560  1.00  0.00    -0.028 A 
HETATM   13  C   UNL     1       7.358  28.793  55.354  1.00  0.00     0.012 A 
HETATM   14  C   UNL     1       8.729  29.077  55.342  1.00  0.00     0.037 A 
HETATM   15  C   UNL     1       9.444  29.131  56.535  1.00  0.00     0.068 A 
HETATM   16  C   UNL     1       8.781  28.883  57.737  1.00  0.00     0.037 A 
HETATM   17  C   UNL     1       7.415  28.591  57.755  1.00  0.00     0.012 A 
BRANCH  15  18
HETATM   18  O   UNL     1      10.774  29.414  56.665  1.00  0.00    -0.356 OA
HETATM   19  C   UNL     1      11.131  30.459  57.563  1.00  0.00     0.210 C 
ENDBRANCH  15  18
ENDBRANCH  11  12
BRANCH  11  20
HETATM   20  O   UNL     1       4.604  28.983  57.720  1.00  0.00    -0.389 OA
HETATM   21  H   UNL     1       5.271  28.931  58.435  1.00  0.00     0.210 HD
ENDBRANCH  11  20
ENDBRANCH  10  11
ENDBRANCH   1  10
BRANCH   2  22
HETATM   22  N   UNL     1       6.881  24.716  57.425  1.00  0.00    -0.234 N 
HETATM   23  H   UNL     1       7.670  24.090  57.598  1.00  0.00     0.174 HD
HETATM   24  H   UNL     1       6.481  25.198  58.215  1.00  0.00     0.174 HD
ENDBRANCH   2  22
BRANCH   3  25
HETATM   25  C   UNL     1       8.726  24.159  55.178  1.00  0.00     0.186 C 
BRANCH  25  26
HETATM   26  C   UNL     1       8.660  22.672  54.933  1.00  0.00    -0.039 A 
HETATM   27  C   UNL     1       8.747  22.083  53.662  1.00  0.00     0.009 A 
HETATM   28  C   UNL     1       8.690  20.695  53.514  1.00  0.00     0.001 A 
HETATM   29  C   UNL     1       8.557  19.875  54.631  1.00  0.00     0.000 A 
HETATM   30  C   UNL     1       8.480  20.440  55.900  1.00  0.00     0.001 A 
HETATM   31  C   UNL     1       8.530  21.827  56.051  1.00  0.00     0.009 A 
ENDBRANCH  25  26
ENDBRANCH   3  25
TORSDOF 8
ENDMDL
MODEL 2
REMARK VINA RESULT:      -8.8      3.597      8.204
REMARK  8 active torsions:
REMARK  status: ('A' for Active; 'I' for Inactive)
REMARK    1  A    between atoms: O_2  and  C_3 
REMARK    2  A    between atoms: C_6  and  C_7 
REMARK    3  A    between atoms: C_7  and  O_8 
REMARK    4  A    between atoms: C_7  and  C_9 
REMARK    5  A    between atoms: C_9  and  N_10 
REMARK    6  A    between atoms: C_11  and  N_12 
REMARK    7  A    between atoms: N_13  and  C_14 
REMARK    8  A    between atoms: C_14  and  C_15 
ROOT
HETATM    1  N   UNL     1       6.968  29.319  57.127  1.00  0.00    -0.178 N 
HETATM    2  C   UNL     1       6.384  30.190  57.940  1.00  0.00     0.681 C 
HETATM    3  N   UNL     1       7.273  31.091  58.335  1.00  0.00    -0.177 N 
HETATM    4  C   UNL     1       8.543  30.656  57.961  1.00  0.00     0.079 A 
HETATM    5  C   UNL     1       8.345  29.512  57.180  1.00  0.00     0.079 A 
HETATM    6  C   UNL     1       9.811  31.165  58.227  1.00  0.00     0.032 A 
HETATM    7  C   UNL     1      10.886  30.461  57.669  1.00  0.00     0.002 A 
HETATM    8  C   UNL     1      10.688  29.311  56.879  1.00  0.00     0.002 A 
HETATM    9  C   UNL     1       9.406  28.811  56.612  1.00  0.00     0.032 A 
ENDROOT
BRANCH   1  10
HETATM   10  C   UNL     1       6.257  28.361  56.264  1.00  0.00     0.184 C 
BRANCH  10  11
HETATM   11  C   UNL     1       5.859  27.061  56.997  1.00  0.00     0.170 C 
BRANCH  11  12
HETATM   12  C   UNL     1       6.783  25.927  56.612  1.00  0.00    -0.028 A 
HETATM   13  C   UNL     1       7.899  25.588  57.394  1.00  0.00     0.012 A 
HETATM   14  C   UNL     1       8.712  24.501  57.054  1.00  0.00     0.037 A 
HETATM   15  C   UNL     1       8.414  23.725  55.936  1.00  0.00     0.068 A 
HETATM   16  C   UNL     1       7.306  24.056  55.155  1.00  0.00     0.037 A 
HETATM   17  C   UNL     1       6.496  25.145  55.485  1.00  0.00     0.012 A 
BRANCH  15  18
HETATM   18  O   UNL     1       9.110  22.632  55.505  1.00  0.00    -0.356 OA
HETATM   19  C   UNL     1       8.887  22.206  54.166  1.00  0.00     0.210 C 
ENDBRANCH  15  18
ENDBRANCH  11  12
BRANCH  11  20
HETATM   20  O   UNL     1       4.495  26.718  56.679  1.00  0.00    -0.389 OA
HETATM   21  H   UNL     1       4.113  26.377  57.515  1.00  0.00     0.210 HD
ENDBRANCH  11  20
ENDBRANCH  10  11
ENDBRANCH   1  10
BRANCH   2  22
HETATM   22  N   UNL     1       5.107  30.155  58.308  1.00  0.00    -0.234 N 
HETATM   23  H   UNL     1       4.895  30.254  59.303  1.00  0.00     0.174 HD
HETATM   24  H   UNL     1       4.363  30.325  57.650  1.00  0.00     0.174 HD
ENDBRANCH   2  22
BRANCH   3  25
HETATM   25  C   UNL     1       6.966  32.358  58.980  1.00  0.00     0.186 C 
BRANCH  25  26
HETATM   26  C   UNL     1       7.147  32.312  60.477  1.00  0.00    -0.039 A 
HETATM   27  C   UNL     1       8.397  32.253  61.113  1.00  0.00     0.009 A 
HETATM   28  C   UNL     1       8.486  32.225  62.507  1.00  0.00     0.001 A 
HETATM   29  C   UNL     1       7.333  32.264  63.285  1.00  0.00     0.000 A 
HETATM   30  C   UNL     1       6.086  32.333  62.673  1.00  0.00     0.001 A 
HETATM   31  C   UNL     1       5.993  32.356  61.280  1.00  0.00     0.009 A 
ENDBRANCH  25  26
ENDBRANCH   3  25
TORSDOF 8
ENDMDL
MODEL 3
REMARK VINA RESULT:      -8.6      3.568      7.982
REMARK  8 active torsions:
REMARK  status: ('A' for Active; 'I' for Inactive)
REMARK    1  A    between atoms: O_2  and  C_3 
REMARK    2  A    between atoms: C_6  and  C_7 
REMARK    3  A    between atoms: C_7  and  O_8 
REMARK    4  A    between atoms: C_7  and  C_9 
REMARK    5  A    between atoms: C_9  and  N_10 
REMARK    6  A    between atoms: C_11  and  N_12 
REMARK    7  A    between atoms: N_13  and  C_14 
REMARK    8  A    between atoms: C_14  and  C_15 
ROOT
HETATM    1  N   UNL     1       7.780  28.465  57.158  1.00  0.00    -0.178 N 
HETATM    2  C   UNL     1       8.806  29.270  57.403  1.00  0.00     0.681 C 
HETATM    3  N   UNL     1       8.369  30.386  57.969  1.00  0.00    -0.177 N 
HETATM    4  C   UNL     1       6.980  30.419  57.871  1.00  0.00     0.079 A 
HETATM    5  C   UNL     1       6.599  29.178  57.348  1.00  0.00     0.079 A 
HETATM    6  C   UNL     1       6.052  31.403  58.200  1.00  0.00     0.032 A 
HETATM    7  C   UNL     1       4.707  31.081  57.973  1.00  0.00     0.002 A 
HETATM    8  C   UNL     1       4.323  29.831  57.450  1.00  0.00     0.002 A 
HETATM    9  C   UNL     1       5.265  28.845  57.129  1.00  0.00     0.032 A 
ENDROOT
BRANCH   1  10
HETATM   10  C   UNL     1       7.888  27.038  56.813  1.00  0.00     0.184 C 
BRANCH  10  11
HETATM   11  C   UNL     1       7.289  26.700  55.430  1.00  0.00     0.170 C 
BRANCH  11  12
HETATM   12  C   UNL     1       7.589  25.266  55.054  1.00  0.00    -0.028 A 
HETATM   13  C   UNL     1       7.538  24.827  53.722  1.00  0.00     0.012 A 
HETATM   14  C   UNL     1       7.872  23.510  53.385  1.00  0.00     0.037 A 
HETATM   15  C   UNL     1       8.278  22.615  54.372  1.00  0.00     0.068 A 
HETATM   16  C   UNL     1       8.332  23.045  55.698  1.00  0.00     0.037 A 
HETATM   17  C   UNL     1       7.992  24.356  56.041  1.00  0.00     0.012 A 
BRANCH  15  18
HETATM   18  O   UNL     1       8.648  21.315  54.179  1.00  0.00    -0.356 OA
HETATM   19  C   UNL     1       8.176  20.673  52.999  1.00  0.00     0.210 C 
ENDBRANCH  15  18
ENDBRANCH  11  12
BRANCH  11  20
HETATM   20  O   UNL     1       7.824  27.596  54.434  1.00  0.00    -0.389 OA
HETATM   21  H   UNL     1       7.212  27.527  53.671  1.00  0.00     0.210 HD
ENDBRANCH  11  20
ENDBRANCH  10  11
ENDBRANCH   1  10
BRANCH   2  22
HETATM   22  N   UNL     1      10.075  28.999  57.114  1.00  0.00    -0.234 N 
HETATM   23  H   UNL     1      10.351  28.017  57.056  1.00  0.00     0.174 HD
HETATM   24  H   UNL     1      10.675  29.682  56.678  1.00  0.00     0.174 HD
ENDBRANCH   2  22
BRANCH   3  25
HETATM   25  C   UNL     1       9.195  31.373  58.648  1.00  0.00     0.186 C 
BRANCH  25  26
HETATM   26  C   UNL     1       8.843  31.526  60.107  1.00  0.00    -0.039 A 
HETATM   27  C   UNL     1       8.179  32.642  60.638  1.00  0.00     0.009 A 
HETATM   28  C   UNL     1       7.876  32.709  62.000  1.00  0.00     0.001 A 
HETATM   29  C   UNL     1       8.222  31.661  62.848  1.00  0.00     0.000 A 
HETATM   30  C   UNL     1       8.871  30.542  62.338  1.00  0.00     0.001 A 
HETATM   31  C   UNL     1       9.181  30.475  60.978  1.00  0.00     0.009 A 
ENDBRANCH  25  26
ENDBRANCH   3  25
TORSDOF 8
ENDMDL
MODEL 4
REMARK VINA RESULT:      -8.5      5.055      8.054
REMARK  8 active torsions:
REMARK  status: ('A' for Active; 'I' for Inactive)
REMARK    1  A    between atoms: O_2  and  C_3 
REMARK    2  A    between atoms: C_6  and  C_7 
REMARK    3  A    between atoms: C_7  and  O_8 
REMARK    4  A    between atoms: C_7  and  C_9 
REMARK    5  A    between atoms: C_9  and  N_10 
REMARK    6  A    between atoms: C_11  and  N_12 
REMARK    7  A    between atoms: N_13  and  C_14 
REMARK    8  A    between atoms: C_14  and  C_15 
ROOT
HETATM    1  N   UNL     1       7.884  31.339  58.974  1.00  0.00    -0.178 N 
HETATM    2  C   UNL     1       6.761  30.772  58.549  1.00  0.00     0.681 C 
HETATM    3  N   UNL     1       7.053  29.738  57.773  1.00  0.00    -0.177 N 
HETATM    4  C   UNL     1       8.415  29.773  57.480  1.00  0.00     0.079 A 
HETATM    5  C   UNL     1       8.951  30.806  58.256  1.00  0.00     0.079 A 
HETATM    6  C   UNL     1       9.199  28.997  56.631  1.00  0.00     0.032 A 
HETATM    7  C   UNL     1      10.563  29.313  56.593  1.00  0.00     0.002 A 
HETATM    8  C   UNL     1      11.105  30.351  57.377  1.00  0.00     0.002 A 
HETATM    9  C   UNL     1      10.307  31.122  58.234  1.00  0.00     0.032 A 
ENDROOT
BRANCH   1  10
HETATM   10  C   UNL     1       7.975  32.315  60.072  1.00  0.00     0.184 C 
BRANCH  10  11
HETATM   11  C   UNL     1       8.382  31.680  61.419  1.00  0.00     0.170 C 
BRANCH  11  12
HETATM   12  C   UNL     1       7.444  32.117  62.522  1.00  0.00    -0.028 A 
HETATM   13  C   UNL     1       7.913  32.776  63.670  1.00  0.00     0.012 A 
HETATM   14  C   UNL     1       7.024  33.224  64.655  1.00  0.00     0.037 A 
HETATM   15  C   UNL     1       5.653  33.033  64.501  1.00  0.00     0.068 A 
HETATM   16  C   UNL     1       5.181  32.380  63.363  1.00  0.00     0.037 A 
HETATM   17  C   UNL     1       6.064  31.924  62.380  1.00  0.00     0.012 A 
BRANCH  15  18
HETATM   18  O   UNL     1       4.681  33.435  65.373  1.00  0.00    -0.356 OA
HETATM   19  C   UNL     1       5.092  34.214  66.490  1.00  0.00     0.210 C 
ENDBRANCH  15  18
ENDBRANCH  11  12
BRANCH  11  20
HETATM   20  O   UNL     1       9.738  32.050  61.745  1.00  0.00    -0.389 OA
HETATM   21  H   UNL     1      10.236  31.969  60.904  1.00  0.00     0.210 HD
ENDBRANCH  11  20
ENDBRANCH  10  11
ENDBRANCH   1  10
BRANCH   2  22
HETATM   22  N   UNL     1       5.535  31.188  58.850  1.00  0.00    -0.234 N 
HETATM   23  H   UNL     1       4.981  30.615  59.490  1.00  0.00     0.174 HD
HETATM   24  H   UNL     1       5.255  32.147  58.716  1.00  0.00     0.174 HD
ENDBRANCH   2  22
BRANCH   3  25
HETATM   25  C   UNL     1       6.123  28.698  57.362  1.00  0.00     0.186 C 
BRANCH  25  26
HETATM   26  C   UNL     1       5.597  28.903  55.963  1.00  0.00    -0.039 A 
HETATM   27  C   UNL     1       4.661  29.889  55.617  1.00  0.00     0.009 A 
HETATM   28  C   UNL     1       4.227  30.028  54.296  1.00  0.00     0.001 A 
HETATM   29  C   UNL     1       4.728  29.191  53.302  1.00  0.00     0.000 A 
HETATM   30  C   UNL     1       5.664  28.215  53.625  1.00  0.00     0.001 A 
HETATM   31  C   UNL     1       6.095  28.070  54.945  1.00  0.00     0.009 A 
ENDBRANCH  25  26
ENDBRANCH   3  25
TORSDOF 8
ENDMDL
MODEL 5
REMARK VINA RESULT:      -8.5      1.608      2.106
REMARK  8 active torsions:
REMARK  status: ('A' for Active; 'I' for Inactive)
REMARK    1  A    between atoms: O_2  and  C_3 
REMARK    2  A    between atoms: C_6  and  C_7 
REMARK    3  A    between atoms: C_7  and  O_8 
REMARK    4  A    between atoms: C_7  and  C_9 
REMARK    5  A    between atoms: C_9  and  N_10 
REMARK    6  A    between atoms: C_11  and  N_12 
REMARK    7  A    between atoms: N_13  and  C_14 
REMARK    8  A    between atoms: C_14  and  C_15 
ROOT
HETATM    1  N   UNL     1       5.777  26.149  55.774  1.00  0.00    -0.178 N 
HETATM    2  C   UNL     1       6.708  25.331  56.250  1.00  0.00     0.681 C 
HETATM    3  N   UNL     1       7.440  24.864  55.249  1.00  0.00    -0.177 N 
HETATM    4  C   UNL     1       6.816  25.196  54.048  1.00  0.00     0.079 A 
HETATM    5  C   UNL     1       5.742  26.026  54.388  1.00  0.00     0.079 A 
HETATM    6  C   UNL     1       7.104  24.855  52.730  1.00  0.00     0.032 A 
HETATM    7  C   UNL     1       6.251  25.389  51.756  1.00  0.00     0.002 A 
HETATM    8  C   UNL     1       5.172  26.228  52.096  1.00  0.00     0.002 A 
HETATM    9  C   UNL     1       4.895  26.571  53.426  1.00  0.00     0.032 A 
ENDROOT
BRANCH   1  10
HETATM   10  C   UNL     1       4.972  27.077  56.585  1.00  0.00     0.184 C 
BRANCH  10  11
HETATM   11  C   UNL     1       5.127  28.553  56.155  1.00  0.00     0.170 C 
BRANCH  11  12
HETATM   12  C   UNL     1       5.973  29.314  57.151  1.00  0.00    -0.028 A 
HETATM   13  C   UNL     1       7.179  28.791  57.645  1.00  0.00     0.012 A 
HETATM   14  C   UNL     1       7.977  29.533  58.524  1.00  0.00     0.037 A 
HETATM   15  C   UNL     1       7.591  30.814  58.911  1.00  0.00     0.068 A 
HETATM   16  C   UNL     1       6.394  31.339  58.423  1.00  0.00     0.037 A 
HETATM   17  C   UNL     1       5.589  30.600  57.552  1.00  0.00     0.012 A 
BRANCH  15  18
HETATM   18  O   UNL     1       8.282  31.648  59.744  1.00  0.00    -0.356 OA
HETATM   19  C   UNL     1       7.652  32.015  60.965  1.00  0.00     0.210 C 
ENDBRANCH  15  18
ENDBRANCH  11  12
BRANCH  11  20
HETATM   20  O   UNL     1       3.827  29.166  56.037  1.00  0.00    -0.389 OA
HETATM   21  H   UNL     1       3.308  28.561  55.467  1.00  0.00     0.210 HD
ENDBRANCH  11  20
ENDBRANCH  10  11
ENDBRANCH   1  10
BRANCH   2  22
HETATM   22  N   UNL     1       6.870  25.023  57.533  1.00  0.00    -0.234 N 
HETATM   23  H   UNL     1       6.030  24.891  58.101  1.00  0.00     0.174 HD
HETATM   24  H   UNL     1       7.736  24.640  57.879  1.00  0.00     0.174 HD
ENDBRANCH   2  22
BRANCH   3  25
HETATM   25  C   UNL     1       8.722  24.187  55.380  1.00  0.00     0.186 C 
BRANCH  25  26
HETATM   26  C   UNL     1       8.602  22.686  55.295  1.00  0.00    -0.039 A 
HETATM   27  C   UNL     1       8.243  21.867  56.376  1.00  0.00     0.009 A 
HETATM   28  C   UNL     1       8.141  20.483  56.219  1.00  0.00     0.001 A 
HETATM   29  C   UNL     1       8.387  19.898  54.980  1.00  0.00     0.000 A 
HETATM   30  C   UNL     1       8.734  20.694  53.894  1.00  0.00     0.001 A 
HETATM   31  C   UNL     1       8.842  22.077  54.050  1.00  0.00     0.009 A 
ENDBRANCH  25  26
ENDBRANCH   3  25
TORSDOF 8
ENDMDL
MODEL 6
REMARK VINA RESULT:      -8.3      3.799      7.352
REMARK  8 active torsions:
REMARK  status: ('A' for Active; 'I' for Inactive)
REMARK    1  A    between atoms: O_2  and  C_3 
REMARK    2  A    between atoms: C_6  and  C_7 
REMARK    3  A    between atoms: C_7  and  O_8 
REMARK    4  A    between atoms: C_7  and  C_9 
REMARK    5  A    between atoms: C_9  and  N_10 
REMARK    6  A    between atoms: C_11  and  N_12 
REMARK    7  A    between atoms: N_13  and  C_14 
REMARK    8  A    between atoms: C_14  and  C_15 
ROOT
HETATM    1  N   UNL     1       4.818  26.983  53.080  1.00  0.00    -0.178 N 
HETATM    2  C   UNL     1       4.811  26.754  51.773  1.00  0.00     0.681 C 
HETATM    3  N   UNL     1       4.641  27.898  51.124  1.00  0.00    -0.177 N 
HETATM    4  C   UNL     1       4.280  28.881  52.043  1.00  0.00     0.079 A 
HETATM    5  C   UNL     1       4.395  28.290  53.306  1.00  0.00     0.079 A 
HETATM    6  C   UNL     1       3.885  30.204  51.874  1.00  0.00     0.032 A 
HETATM    7  C   UNL     1       3.603  30.916  53.048  1.00  0.00     0.002 A 
HETATM    8  C   UNL     1       3.721  30.324  54.320  1.00  0.00     0.002 A 
HETATM    9  C   UNL     1       4.127  28.992  54.479  1.00  0.00     0.032 A 
ENDROOT
BRANCH   1  10
HETATM   10  C   UNL     1       5.269  26.026  54.104  1.00  0.00     0.184 C 
BRANCH  10  11
HETATM   11  C   UNL     1       6.802  25.838  54.128  1.00  0.00     0.170 C 
BRANCH  11  12
HETATM   12  C   UNL     1       7.161  24.369  54.140  1.00  0.00    -0.028 A 
HETATM   13  C   UNL     1       7.548  23.696  52.970  1.00  0.00     0.012 A 
HETATM   14  C   UNL     1       7.930  22.350  53.009  1.00  0.00     0.037 A 
HETATM   15  C   UNL     1       7.946  21.660  54.218  1.00  0.00     0.068 A 
HETATM   16  C   UNL     1       7.563  22.323  55.384  1.00  0.00     0.037 A 
HETATM   17  C   UNL     1       7.173  23.664  55.351  1.00  0.00     0.012 A 
BRANCH  15  18
HETATM   18  O   UNL     1       8.314  20.357  54.398  1.00  0.00    -0.356 OA
HETATM   19  C   UNL     1       8.773  19.983  55.692  1.00  0.00     0.210 C 
ENDBRANCH  15  18
ENDBRANCH  11  12
BRANCH  11  20
HETATM   20  O   UNL     1       7.355  26.494  55.288  1.00  0.00    -0.389 OA
HETATM   21  H   UNL     1       7.460  27.433  55.028  1.00  0.00     0.210 HD
ENDBRANCH  11  20
ENDBRANCH  10  11
ENDBRANCH   1  10
BRANCH   2  22
HETATM   22  N   UNL     1       4.944  25.559  51.206  1.00  0.00    -0.234 N 
HETATM   23  H   UNL     1       5.023  25.521  50.188  1.00  0.00     0.174 HD
HETATM   24  H   UNL     1       5.254  24.757  51.732  1.00  0.00     0.174 HD
ENDBRANCH   2  22
BRANCH   3  25
HETATM   25  C   UNL     1       4.871  28.108  49.703  1.00  0.00     0.186 C 
BRANCH  25  26
HETATM   26  C   UNL     1       3.744  27.589  48.845  1.00  0.00    -0.039 A 
HETATM   27  C   UNL     1       3.897  26.588  47.874  1.00  0.00     0.009 A 
HETATM   28  C   UNL     1       2.803  26.149  47.124  1.00  0.00     0.001 A 
HETATM   29  C   UNL     1       1.541  26.695  47.339  1.00  0.00     0.000 A 
HETATM   30  C   UNL     1       1.367  27.682  48.304  1.00  0.00     0.001 A 
HETATM   31  C   UNL     1       2.460  28.126  49.051  1.00  0.00     0.009 A 
ENDBRANCH  25  26
ENDBRANCH   3  25
TORSDOF 8
ENDMDL
MODEL 7
REMARK VINA RESULT:      -8.3      3.096      7.250
REMARK  8 active torsions:
REMARK  status: ('A' for Active; 'I' for Inactive)
REMARK    1  A    between atoms: O_2  and  C_3 
REMARK    2  A    between atoms: C_6  and  C_7 
REMARK    3  A    between atoms: C_7  and  O_8 
REMARK    4  A    between atoms: C_7  and  C_9 
REMARK    5  A    between atoms: C_9  and  N_10 
REMARK    6  A    between atoms: C_11  and  N_12 
REMARK    7  A    between atoms: N_13  and  C_14 
REMARK    8  A    between atoms: C_14  and  C_15 
ROOT
HETATM    1  N   UNL     1       6.762  26.973  54.448  1.00  0.00    -0.178 N 
HETATM    2  C   UNL     1       6.510  27.772  55.478  1.00  0.00     0.681 C 
HETATM    3  N   UNL     1       7.132  27.315  56.556  1.00  0.00    -0.177 N 
HETATM    4  C   UNL     1       7.613  26.036  56.282  1.00  0.00     0.079 A 
HETATM    5  C   UNL     1       7.375  25.816  54.921  1.00  0.00     0.079 A 
HETATM    6  C   UNL     1       8.231  25.087  57.092  1.00  0.00     0.032 A 
HETATM    7  C   UNL     1       8.599  23.890  56.465  1.00  0.00     0.002 A 
HETATM    8  C   UNL     1       8.363  23.668  55.094  1.00  0.00     0.002 A 
HETATM    9  C   UNL     1       7.746  24.634  54.286  1.00  0.00     0.032 A 
ENDROOT
BRANCH   1  10
HETATM   10  C   UNL     1       6.496  27.302  53.038  1.00  0.00     0.184 C 
BRANCH  10  11
HETATM   11  C   UNL     1       5.399  26.419  52.404  1.00  0.00     0.170 C 
BRANCH  11  12
HETATM   12  C   UNL     1       4.946  26.997  51.081  1.00  0.00    -0.028 A 
HETATM   13  C   UNL     1       4.825  28.382  50.885  1.00  0.00     0.012 A 
HETATM   14  C   UNL     1       4.458  28.901  49.638  1.00  0.00     0.037 A 
HETATM   15  C   UNL     1       4.221  28.047  48.564  1.00  0.00     0.068 A 
HETATM   16  C   UNL     1       4.340  26.669  48.752  1.00  0.00     0.037 A 
HETATM   17  C   UNL     1       4.698  26.144  49.997  1.00  0.00     0.012 A 
BRANCH  15  18
HETATM   18  O   UNL     1       3.877  28.421  47.297  1.00  0.00    -0.356 OA
HETATM   19  C   UNL     1       2.489  28.563  47.016  1.00  0.00     0.210 C 
ENDBRANCH  15  18
ENDBRANCH  11  12
BRANCH  11  20
HETATM   20  O   UNL     1       4.279  26.307  53.306  1.00  0.00    -0.389 OA
HETATM   21  H   UNL     1       3.574  25.866  52.788  1.00  0.00     0.210 HD
ENDBRANCH  11  20
ENDBRANCH  10  11
ENDBRANCH   1  10
BRANCH   2  22
HETATM   22  N   UNL     1       5.741  28.856  55.433  1.00  0.00    -0.234 N 
HETATM   23  H   UNL     1       4.737  28.734  55.578  1.00  0.00     0.174 HD
HETATM   24  H   UNL     1       6.125  29.780  55.553  1.00  0.00     0.174 HD
ENDBRANCH   2  22
BRANCH   3  25
HETATM   25  C   UNL     1       7.345  28.055  57.789  1.00  0.00     0.186 C 
BRANCH  25  26
HETATM   26  C   UNL     1       8.529  28.987  57.715  1.00  0.00    -0.039 A 
HETATM   27  C   UNL     1       9.633  28.784  56.873  1.00  0.00     0.009 A 
HETATM   28  C   UNL     1      10.690  29.698  56.850  1.00  0.00     0.001 A 
HETATM   29  C   UNL     1      10.655  30.831  57.659  1.00  0.00     0.000 A 
HETATM   30  C   UNL     1       9.564  31.054  58.492  1.00  0.00     0.001 A 
HETATM   31  C   UNL     1       8.510  30.140  58.522  1.00  0.00     0.009 A 
ENDBRANCH  25  26
ENDBRANCH   3  25
TORSDOF 8
ENDMDL
MODEL 8
REMARK VINA RESULT:      -8.3      3.563      7.363
REMARK  8 active torsions:
REMARK  status: ('A' for Active; 'I' for Inactive)
REMARK    1  A    between atoms: O_2  and  C_3 
REMARK    2  A    between atoms: C_6  and  C_7 
REMARK    3  A    between atoms: C_7  and  O_8 
REMARK    4  A    between atoms: C_7  and  C_9 
REMARK    5  A    between atoms: C_9  and  N_10 
REMARK    6  A    between atoms: C_11  and  N_12 
REMARK    7  A    between atoms: N_13  and  C_14 
REMARK    8  A    between atoms: C_14  and  C_15 
ROOT
HETATM    1  N   UNL     1       6.078  25.933  53.113  1.00  0.00    -0.178 N 
HETATM    2  C   UNL     1       5.418  26.359  54.183  1.00  0.00     0.681 C 
HETATM    3  N   UNL     1       5.877  25.740  55.261  1.00  0.00    -0.177 N 
HETATM    4  C   UNL     1       6.702  24.693  54.856  1.00  0.00     0.079 A 
HETATM    5  C   UNL     1       6.832  24.818  53.468  1.00  0.00     0.079 A 
HETATM    6  C   UNL     1       7.335  23.683  55.574  1.00  0.00     0.032 A 
HETATM    7  C   UNL     1       8.112  22.790  54.824  1.00  0.00     0.002 A 
HETATM    8  C   UNL     1       8.247  22.917  53.427  1.00  0.00     0.002 A 
HETATM    9  C   UNL     1       7.610  23.943  52.715  1.00  0.00     0.032 A 
ENDROOT
BRANCH   1  10
HETATM   10  C   UNL     1       6.060  26.586  51.794  1.00  0.00     0.184 C 
BRANCH  10  11
HETATM   11  C   UNL     1       5.334  25.755  50.713  1.00  0.00     0.170 C 
BRANCH  11  12
HETATM   12  C   UNL     1       4.758  26.656  49.643  1.00  0.00    -0.028 A 
HETATM   13  C   UNL     1       4.037  26.139  48.554  1.00  0.00     0.012 A 
HETATM   14  C   UNL     1       3.463  26.990  47.603  1.00  0.00     0.037 A 
HETATM   15  C   UNL     1       3.587  28.371  47.733  1.00  0.00     0.068 A 
HETATM   16  C   UNL     1       4.301  28.891  48.812  1.00  0.00     0.037 A 
HETATM   17  C   UNL     1       4.883  28.046  49.761  1.00  0.00     0.012 A 
BRANCH  15  18
HETATM   18  O   UNL     1       3.063  29.310  46.890  1.00  0.00    -0.356 OA
HETATM   19  C   UNL     1       1.648  29.332  46.741  1.00  0.00     0.210 C 
ENDBRANCH  15  18
ENDBRANCH  11  12
BRANCH  11  20
HETATM   20  O   UNL     1       4.285  24.973  51.321  1.00  0.00    -0.389 OA
HETATM   21  H   UNL     1       3.451  25.420  51.068  1.00  0.00     0.210 HD
ENDBRANCH  11  20
ENDBRANCH  10  11
ENDBRANCH   1  10
BRANCH   2  22
HETATM   22  N   UNL     1       4.439  27.259  54.169  1.00  0.00    -0.234 N 
HETATM   23  H   UNL     1       3.493  26.937  54.377  1.00  0.00     0.174 HD
HETATM   24  H   UNL     1       4.629  28.246  54.250  1.00  0.00     0.174 HD
ENDBRANCH   2  22
BRANCH   3  25
HETATM   25  C   UNL     1       5.625  26.137  56.638  1.00  0.00     0.186 C 
BRANCH  25  26
HETATM   26  C   UNL     1       6.374  27.385  57.034  1.00  0.00    -0.039 A 
HETATM   27  C   UNL     1       5.751  28.596  57.374  1.00  0.00     0.009 A 
HETATM   28  C   UNL     1       6.511  29.710  57.742  1.00  0.00     0.001 A 
HETATM   29  C   UNL     1       7.900  29.628  57.785  1.00  0.00     0.000 A 
HETATM   30  C   UNL     1       8.534  28.433  57.461  1.00  0.00     0.001 A 
HETATM   31  C   UNL     1       7.778  27.321  57.087  1.00  0.00     0.009 A 
ENDBRANCH  25  26
ENDBRANCH   3  25
TORSDOF 8
ENDMDL
MODEL 9
REMARK VINA RESULT:      -8.2      3.128      6.009
REMARK  8 active torsions:
REMARK  status: ('A' for Active; 'I' for Inactive)
REMARK    1  A    between atoms: O_2  and  C_3 
REMARK    2  A    between atoms: C_6  and  C_7 
REMARK    3  A    between atoms: C_7  and  O_8 
REMARK    4  A    between atoms: C_7  and  C_9 
REMARK    5  A    between atoms: C_9  and  N_10 
REMARK    6  A    between atoms: C_11  and  N_12 
REMARK    7  A    between atoms: N_13  and  C_14 
REMARK    8  A    between atoms: C_14  and  C_15 
ROOT
HETATM    1  N   UNL     1       5.393  27.704  54.455  1.00  0.00    -0.178 N 
HETATM    2  C   UNL     1       5.337  26.381  54.371  1.00  0.00     0.681 C 
HETATM    3  N   UNL     1       6.104  25.844  55.310  1.00  0.00    -0.177 N 
HETATM    4  C   UNL     1       6.881  26.851  55.878  1.00  0.00     0.079 A 
HETATM    5  C   UNL     1       6.422  28.052  55.326  1.00  0.00     0.079 A 
HETATM    6  C   UNL     1       7.913  26.808  56.811  1.00  0.00     0.032 A 
HETATM    7  C   UNL     1       8.471  28.043  57.168  1.00  0.00     0.002 A 
HETATM    8  C   UNL     1       8.007  29.253  56.616  1.00  0.00     0.002 A 
HETATM    9  C   UNL     1       6.963  29.285  55.681  1.00  0.00     0.032 A 
ENDROOT
BRANCH   1  10
HETATM   10  C   UNL     1       4.466  28.633  53.788  1.00  0.00     0.184 C 
BRANCH  10  11
HETATM   11  C   UNL     1       5.028  29.211  52.470  1.00  0.00     0.170 C 
BRANCH  11  12
HETATM   12  C   UNL     1       4.335  28.592  51.277  1.00  0.00    -0.028 A 
HETATM   13  C   UNL     1       3.081  29.044  50.837  1.00  0.00     0.012 A 
HETATM   14  C   UNL     1       2.479  28.497  49.698  1.00  0.00     0.037 A 
HETATM   15  C   UNL     1       3.127  27.501  48.971  1.00  0.00     0.068 A 
HETATM   16  C   UNL     1       4.374  27.048  49.403  1.00  0.00     0.037 A 
HETATM   17  C   UNL     1       4.976  27.584  50.544  1.00  0.00     0.012 A 
BRANCH  15  18
HETATM   18  O   UNL     1       2.662  26.899  47.837  1.00  0.00    -0.356 OA
HETATM   19  C   UNL     1       2.880  25.498  47.709  1.00  0.00     0.210 C 
ENDBRANCH  15  18
ENDBRANCH  11  12
BRANCH  11  20
HETATM   20  O   UNL     1       6.449  28.971  52.398  1.00  0.00    -0.389 OA
HETATM   21  H   UNL     1       6.859  29.861  52.368  1.00  0.00     0.210 HD
ENDBRANCH  11  20
ENDBRANCH  10  11
ENDBRANCH   1  10
BRANCH   2  22
HETATM   22  N   UNL     1       4.629  25.702  53.473  1.00  0.00    -0.234 N 
HETATM   23  H   UNL     1       3.646  25.955  53.352  1.00  0.00     0.174 HD
HETATM   24  H   UNL     1       5.074  25.178  52.735  1.00  0.00     0.174 HD
ENDBRANCH   2  22
BRANCH   3  25
HETATM   25  C   UNL     1       6.079  24.452  55.731  1.00  0.00     0.186 C 
BRANCH  25  26
HETATM   26  C   UNL     1       7.172  23.629  55.095  1.00  0.00    -0.039 A 
HETATM   27  C   UNL     1       8.287  23.138  55.791  1.00  0.00     0.009 A 
HETATM   28  C   UNL     1       9.255  22.371  55.137  1.00  0.00     0.001 A 
HETATM   29  C   UNL     1       9.119  22.076  53.784  1.00  0.00     0.000 A 
HETATM   30  C   UNL     1       8.015  22.544  53.080  1.00  0.00     0.001 A 
HETATM   31  C   UNL     1       7.049  23.316  53.729  1.00  0.00     0.009 A 
ENDBRANCH  25  26
ENDBRANCH   3  25
TORSDOF 8
ENDMDL
MODEL 10
REMARK VINA RESULT:      -8.2      3.162      7.959
REMARK  8 active torsions:
REMARK  status: ('A' for Active; 'I' for Inactive)
REMARK    1  A    between atoms: O_2  and  C_3 
REMARK    2  A    between atoms: C_6  and  C_7 
REMARK    3  A    between atoms: C_7  and  O_8 
REMARK    4  A    between atoms: C_7  and  C_9 
REMARK    5  A    between atoms: C_9  and  N_10 
REMARK    6  A    between atoms: C_11  and  N_12 
REMARK    7  A    between atoms: N_13  and  C_14 
REMARK    8  A    between atoms: C_14  and  C_15 
ROOT
HETATM    1  N   UNL     1       6.871  27.696  56.747  1.00  0.00    -0.178 N 
HETATM    2  C   UNL     1       5.607  28.025  56.982  1.00  0.00     0.681 C 
HETATM    3  N   UNL     1       5.549  29.274  57.423  1.00  0.00    -0.177 N 
HETATM    4  C   UNL     1       6.842  29.701  57.719  1.00  0.00     0.079 A 
HETATM    5  C   UNL     1       7.696  28.682  57.282  1.00  0.00     0.079 A 
HETATM    6  C   UNL     1       7.319  30.868  58.308  1.00  0.00     0.032 A 
HETATM    7  C   UNL     1       8.710  30.966  58.442  1.00  0.00     0.002 A 
HETATM    8  C   UNL     1       9.571  29.942  57.999  1.00  0.00     0.002 A 
HETATM    9  C   UNL     1       9.080  28.773  57.401  1.00  0.00     0.032 A 
ENDROOT
BRANCH   1  10
HETATM   10  C   UNL     1       7.309  26.516  55.983  1.00  0.00     0.184 C 
BRANCH  10  11
HETATM   11  C   UNL     1       8.026  25.460  56.852  1.00  0.00     0.170 C 
BRANCH  11  12
HETATM   12  C   UNL     1       8.028  24.113  56.164  1.00  0.00    -0.028 A 
HETATM   13  C   UNL     1       8.389  22.939  56.844  1.00  0.00     0.012 A 
HETATM   14  C   UNL     1       8.332  21.693  56.208  1.00  0.00     0.037 A 
HETATM   15  C   UNL     1       7.900  21.600  54.887  1.00  0.00     0.068 A 
HETATM   16  C   UNL     1       7.540  22.763  54.206  1.00  0.00     0.037 A 
HETATM   17  C   UNL     1       7.602  24.010  54.833  1.00  0.00     0.012 A 
BRANCH  15  18
HETATM   18  O   UNL     1       7.780  20.451  54.158  1.00  0.00    -0.356 OA
HETATM   19  C   UNL     1       8.312  20.462  52.838  1.00  0.00     0.210 C 
ENDBRANCH  15  18
ENDBRANCH  11  12
BRANCH  11  20
HETATM   20  O   UNL     1       7.376  25.361  58.136  1.00  0.00    -0.389 OA
HETATM   21  H   UNL     1       7.887  24.687  58.632  1.00  0.00     0.210 HD
ENDBRANCH  11  20
ENDBRANCH  10  11
ENDBRANCH   1  10
BRANCH   2  22
HETATM   22  N   UNL     1       4.563  27.219  56.811  1.00  0.00    -0.234 N 
HETATM   23  H   UNL     1       3.636  27.587  57.033  1.00  0.00     0.174 HD
HETATM   24  H   UNL     1       4.617  26.405  56.219  1.00  0.00     0.174 HD
ENDBRANCH   2  22
BRANCH   3  25
HETATM   25  C   UNL     1       4.347  30.088  57.509  1.00  0.00     0.186 C 
BRANCH  25  26
HETATM   26  C   UNL     1       4.133  30.946  56.286  1.00  0.00    -0.039 A 
HETATM   27  C   UNL     1       3.552  30.480  55.096  1.00  0.00     0.009 A 
HETATM   28  C   UNL     1       3.375  31.338  54.007  1.00  0.00     0.001 A 
HETATM   29  C   UNL     1       3.765  32.671  54.093  1.00  0.00     0.000 A 
HETATM   30  C   UNL     1       4.332  33.153  55.269  1.00  0.00     0.001 A 
HETATM   31  C   UNL     1       4.516  32.297  56.356  1.00  0.00     0.009 A 
ENDBRANCH  25  26
ENDBRANCH   3  25
TORSDOF 8
ENDMDL
