MODEL 1
REMARK VINA RESULT:      -9.6      0.000      0.000
REMARK  6 active torsions:
REMARK  status: ('A' for Active; 'I' for Inactive)
REMARK    1  A    between atoms: O_2  and  C_3 
REMARK    2  A    between atoms: C_5  and  N_6 
REMARK    3  A    between atoms: C_7  and  C_9 
REMARK    4  A    between atoms: C_7  and  O_8 
REMARK       I    between atoms: C_9  and  N_10 
REMARK    5  A    between atoms: N_10  and  C_11 
REMARK    6  A    between atoms: C_11  and  C_12 
ROOT
HETATM    1  N   UNL     1       4.950  27.682  54.435  1.00  0.00    -0.254 N 
HETATM    2  C   UNL     1       4.878  26.962  53.147  1.00  0.00     0.256 C 
HETATM    3  C   UNL     1       4.409  27.806  51.973  1.00  0.00     0.034 A 
HETATM    4  C   UNL     1       3.810  29.030  52.223  1.00  0.00     0.048 A 
HETATM    5  N   UNL     1       3.693  29.460  53.531  1.00  0.00    -0.308 N 
HETATM    6  C   UNL     1       4.204  28.839  54.629  1.00  0.00     0.330 C 
HETATM    7  O   UNL     1       3.982  29.386  55.710  1.00  0.00    -0.246 OA
HETATM    8  C   UNL     1       4.492  27.369  50.637  1.00  0.00     0.015 A 
HETATM    9  C   UNL     1       4.008  28.162  49.593  1.00  0.00     0.001 A 
HETATM   10  C   UNL     1       3.416  29.390  49.871  1.00  0.00     0.002 A 
HETATM   11  C   UNL     1       3.309  29.824  51.190  1.00  0.00     0.030 A 
HETATM   12  H   UNL     1       3.196  30.315  53.741  1.00  0.00     0.170 HD
ENDROOT
BRANCH   2  13
HETATM   13  C   UNL     1       6.299  26.358  52.769  1.00  0.00     0.279 C 
HETATM   14  N   UNL     1       6.370  24.988  52.628  1.00  0.00    -0.352 N 
HETATM   15  H   UNL     1       5.502  24.469  52.558  1.00  0.00     0.162 HD
HETATM   16  O   UNL     1       7.294  27.089  52.713  1.00  0.00    -0.268 OA
BRANCH  14  17
HETATM   17  C   UNL     1       7.588  24.331  52.220  1.00  0.00     0.161 C 
BRANCH  17  18
HETATM   18  C   UNL     1       8.014  23.309  53.240  1.00  0.00    -0.040 A 
HETATM   19  C   UNL     1       8.082  21.948  52.911  1.00  0.00     0.010 A 
HETATM   20  C   UNL     1       8.491  21.011  53.864  1.00  0.00     0.024 A 
HETATM   21  C   UNL     1       8.829  21.430  55.149  1.00  0.00     0.034 A 
HETATM   22 CL   UNL     1       9.340  20.275  56.318  1.00  0.00    -0.084 Cl
HETATM   23  C   UNL     1       8.758  22.778  55.493  1.00  0.00     0.024 A 
HETATM   24  C   UNL     1       8.349  23.714  54.541  1.00  0.00     0.010 A 
ENDBRANCH  17  18
ENDBRANCH  14  17
ENDBRANCH   2  13
BRANCH   2  25
HETATM   25  O   UNL     1       3.903  25.925  53.272  1.00  0.00    -0.359 OA
HETATM   26  H   UNL     1       4.147  25.449  54.088  1.00  0.00     0.213 HD
ENDBRANCH   2  25
BRANCH   1  27
HETATM   27  C   UNL     1       5.608  27.065  55.574  1.00  0.00     0.045 A 
HETATM   28  C   UNL     1       6.695  27.699  56.201  1.00  0.00     0.066 A 
HETATM   29  C   UNL     1       7.345  27.127  57.299  1.00  0.00     0.070 A 
HETATM   30  C   UNL     1       6.966  25.873  57.762  1.00  0.00     0.037 A 
HETATM   31  C   UNL     1       5.907  25.214  57.148  1.00  0.00     0.005 A 
HETATM   32  C   UNL     1       5.232  25.807  56.072  1.00  0.00     0.030 A 
BRANCH  29  33
HETATM   33  O   UNL     1       8.389  27.836  57.830  1.00  0.00    -0.356 OA
HETATM   34  C   UNL     1       8.032  29.176  58.170  1.00  0.00     0.210 C 
ENDBRANCH  29  33
ENDBRANCH   1  27
TORSDOF 6
ENDMDL
MODEL 2
REMARK VINA RESULT:      -9.0      2.059      4.960
REMARK  6 active torsions:
REMARK  status: ('A' for Active; 'I' for Inactive)
REMARK    1  A    between atoms: O_2  and  C_3 
REMARK    2  A    between atoms: C_5  and  N_6 
REMARK    3  A    between atoms: C_7  and  C_9 
REMARK    4  A    between atoms: C_7  and  O_8 
REMARK       I    between atoms: C_9  and  N_10 
REMARK    5  A    between atoms: N_10  and  C_11 
REMARK    6  A    between atoms: C_11  and  C_12 
ROOT
HETATM    1  N   UNL     1       5.333  28.486  54.463  1.00  0.00    -0.254 N 
HETATM    2  C   UNL     1       6.469  28.561  55.404  1.00  0.00     0.256 C 
HETATM    3  C   UNL     1       6.362  29.667  56.442  1.00  0.00     0.034 A 
HETATM    4  C   UNL     1       5.428  30.672  56.257  1.00  0.00     0.048 A 
HETATM    5  N   UNL     1       4.598  30.617  55.154  1.00  0.00    -0.308 N 
HETATM    6  C   UNL     1       4.529  29.599  54.253  1.00  0.00     0.330 C 
HETATM    7  O   UNL     1       3.722  29.748  53.333  1.00  0.00    -0.246 OA
HETATM    8  C   UNL     1       7.222  29.755  57.554  1.00  0.00     0.015 A 
HETATM    9  C   UNL     1       7.113  30.815  58.459  1.00  0.00     0.001 A 
HETATM   10  C   UNL     1       6.163  31.810  58.253  1.00  0.00     0.002 A 
HETATM   11  C   UNL     1       5.321  31.744  57.146  1.00  0.00     0.030 A 
HETATM   12  H   UNL     1       3.959  31.376  54.962  1.00  0.00     0.170 HD
ENDROOT
BRANCH   2  13
HETATM   13  C   UNL     1       6.637  27.184  56.183  1.00  0.00     0.279 C 
HETATM   14  N   UNL     1       7.703  26.392  55.813  1.00  0.00    -0.352 N 
HETATM   15  H   UNL     1       8.429  26.805  55.238  1.00  0.00     0.162 HD
HETATM   16  O   UNL     1       5.783  26.820  56.999  1.00  0.00    -0.268 OA
BRANCH  14  17
HETATM   17  C   UNL     1       7.998  25.154  56.493  1.00  0.00     0.161 C 
BRANCH  17  18
HETATM   18  C   UNL     1       7.998  23.999  55.528  1.00  0.00    -0.040 A 
HETATM   19  C   UNL     1       8.060  24.216  54.144  1.00  0.00     0.010 A 
HETATM   20  C   UNL     1       8.073  23.134  53.260  1.00  0.00     0.024 A 
HETATM   21  C   UNL     1       8.021  21.833  53.754  1.00  0.00     0.034 A 
HETATM   22 CL   UNL     1       8.045  20.502  52.664  1.00  0.00    -0.084 Cl
HETATM   23  C   UNL     1       7.951  21.601  55.126  1.00  0.00     0.024 A 
HETATM   24  C   UNL     1       7.938  22.682  56.010  1.00  0.00     0.010 A 
ENDBRANCH  17  18
ENDBRANCH  14  17
ENDBRANCH   2  13
BRANCH   2  25
HETATM   25  O   UNL     1       7.646  28.866  54.655  1.00  0.00    -0.359 OA
HETATM   26  H   UNL     1       8.342  28.301  55.040  1.00  0.00     0.213 HD
ENDBRANCH   2  25
BRANCH   1  27
HETATM   27  C   UNL     1       5.193  27.335  53.587  1.00  0.00     0.045 A 
HETATM   28  C   UNL     1       5.369  27.469  52.199  1.00  0.00     0.066 A 
HETATM   29  C   UNL     1       5.243  26.377  51.334  1.00  0.00     0.070 A 
HETATM   30  C   UNL     1       4.874  25.132  51.828  1.00  0.00     0.037 A 
HETATM   31  C   UNL     1       4.675  24.976  53.195  1.00  0.00     0.005 A 
HETATM   32  C   UNL     1       4.840  26.062  54.063  1.00  0.00     0.030 A 
BRANCH  29  33
HETATM   33  O   UNL     1       5.439  26.626  50.002  1.00  0.00    -0.356 OA
HETATM   34  C   UNL     1       5.320  28.010  49.673  1.00  0.00     0.210 C 
ENDBRANCH  29  33
ENDBRANCH   1  27
TORSDOF 6
ENDMDL
MODEL 3
REMARK VINA RESULT:      -9.0      1.750      5.397
REMARK  6 active torsions:
REMARK  status: ('A' for Active; 'I' for Inactive)
REMARK    1  A    between atoms: O_2  and  C_3 
REMARK    2  A    between atoms: C_5  and  N_6 
REMARK    3  A    between atoms: C_7  and  C_9 
REMARK    4  A    between atoms: C_7  and  O_8 
REMARK       I    between atoms: C_9  and  N_10 
REMARK    5  A    between atoms: N_10  and  C_11 
REMARK    6  A    between atoms: C_11  and  C_12 
ROOT
HETATM    1  N   UNL     1       5.079  27.640  52.594  1.00  0.00    -0.254 N 
HETATM    2  C   UNL     1       6.382  27.443  53.263  1.00  0.00     0.256 C 
HETATM    3  C   UNL     1       6.300  27.258  54.770  1.00  0.00     0.034 A 
HETATM    4  C   UNL     1       5.123  27.584  55.423  1.00  0.00     0.048 A 
HETATM    5  N   UNL     1       4.048  28.031  54.678  1.00  0.00    -0.308 N 
HETATM    6  C   UNL     1       3.986  28.096  53.320  1.00  0.00     0.330 C 
HETATM    7  O   UNL     1       2.934  28.532  52.849  1.00  0.00    -0.246 OA
HETATM    8  C   UNL     1       7.395  26.835  55.548  1.00  0.00     0.015 A 
HETATM    9  C   UNL     1       7.285  26.721  56.936  1.00  0.00     0.001 A 
HETATM   10  C   UNL     1       6.089  27.050  57.568  1.00  0.00     0.002 A 
HETATM   11  C   UNL     1       5.006  27.489  56.811  1.00  0.00     0.030 A 
HETATM   12  H   UNL     1       3.205  28.342  55.140  1.00  0.00     0.170 HD
ENDROOT
BRANCH   2  13
HETATM   13  C   UNL     1       7.129  26.174  52.662  1.00  0.00     0.279 C 
HETATM   14  N   UNL     1       6.497  24.958  52.813  1.00  0.00    -0.352 N 
HETATM   15  H   UNL     1       5.523  24.956  53.094  1.00  0.00     0.162 HD
HETATM   16  O   UNL     1       8.263  26.285  52.184  1.00  0.00    -0.268 OA
BRANCH  14  17
HETATM   17  C   UNL     1       7.044  23.747  52.251  1.00  0.00     0.161 C 
BRANCH  17  18
HETATM   18  C   UNL     1       7.589  22.852  53.332  1.00  0.00    -0.040 A 
HETATM   19  C   UNL     1       7.887  21.507  53.072  1.00  0.00     0.010 A 
HETATM   20  C   UNL     1       8.406  20.692  54.081  1.00  0.00     0.024 A 
HETATM   21  C   UNL     1       8.624  21.214  55.353  1.00  0.00     0.034 A 
HETATM   22 CL   UNL     1       9.269  20.210  56.593  1.00  0.00    -0.084 Cl
HETATM   23  C   UNL     1       8.324  22.546  55.629  1.00  0.00     0.024 A 
HETATM   24  C   UNL     1       7.806  23.362  54.621  1.00  0.00     0.010 A 
ENDBRANCH  17  18
ENDBRANCH  14  17
ENDBRANCH   2  13
BRANCH   2  25
HETATM   25  O   UNL     1       7.161  28.626  53.075  1.00  0.00    -0.359 OA
HETATM   26  H   UNL     1       7.556  28.807  53.949  1.00  0.00     0.213 HD
ENDBRANCH   2  25
BRANCH   1  27
HETATM   27  C   UNL     1       4.995  27.584  51.145  1.00  0.00     0.045 A 
HETATM   28  C   UNL     1       4.379  26.494  50.506  1.00  0.00     0.066 A 
HETATM   29  C   UNL     1       4.283  26.417  49.113  1.00  0.00     0.070 A 
HETATM   30  C   UNL     1       4.857  27.399  48.316  1.00  0.00     0.037 A 
HETATM   31  C   UNL     1       5.490  28.479  48.921  1.00  0.00     0.005 A 
HETATM   32  C   UNL     1       5.551  28.573  50.317  1.00  0.00     0.030 A 
BRANCH  29  33
HETATM   33  O   UNL     1       3.659  25.309  48.603  1.00  0.00    -0.356 OA
HETATM   34  C   UNL     1       3.060  25.548  47.330  1.00  0.00     0.210 C 
ENDBRANCH  29  33
ENDBRANCH   1  27
TORSDOF 6
ENDMDL
MODEL 4
REMARK VINA RESULT:      -8.7      3.316      6.675
REMARK  6 active torsions:
REMARK  status: ('A' for Active; 'I' for Inactive)
REMARK    1  A    between atoms: O_2  and  C_3 
REMARK    2  A    between atoms: C_5  and  N_6 
REMARK    3  A    between atoms: C_7  and  C_9 
REMARK    4  A    between atoms: C_7  and  O_8 
REMARK       I    between atoms: C_9  and  N_10 
REMARK    5  A    between atoms: N_10  and  C_11 
REMARK    6  A    between atoms: C_11  and  C_12 
ROOT
HETATM    1  N   UNL     1       7.054  25.422  55.607  1.00  0.00    -0.254 N 
HETATM    2  C   UNL     1       5.709  25.991  55.385  1.00  0.00     0.256 C 
HETATM    3  C   UNL     1       5.516  27.397  55.929  1.00  0.00     0.034 A 
HETATM    4  C   UNL     1       6.446  27.904  56.822  1.00  0.00     0.048 A 
HETATM    5  N   UNL     1       7.539  27.128  57.160  1.00  0.00    -0.308 N 
HETATM    6  C   UNL     1       7.863  25.921  56.620  1.00  0.00     0.330 C 
HETATM    7  O   UNL     1       8.880  25.388  57.066  1.00  0.00    -0.246 OA
HETATM    8  C   UNL     1       4.393  28.188  55.621  1.00  0.00     0.015 A 
HETATM    9  C   UNL     1       4.238  29.459  56.180  1.00  0.00     0.001 A 
HETATM   10  C   UNL     1       5.189  29.948  57.070  1.00  0.00     0.002 A 
HETATM   11  C   UNL     1       6.294  29.166  57.399  1.00  0.00     0.030 A 
HETATM   12  H   UNL     1       8.190  27.449  57.863  1.00  0.00     0.170 HD
ENDROOT
BRANCH   2  13
HETATM   13  C   UNL     1       5.369  26.025  53.832  1.00  0.00     0.279 C 
HETATM   14  N   UNL     1       5.943  27.041  53.097  1.00  0.00    -0.352 N 
HETATM   15  H   UNL     1       6.698  27.569  53.519  1.00  0.00     0.162 HD
HETATM   16  O   UNL     1       4.549  25.233  53.354  1.00  0.00    -0.268 OA
BRANCH  14  17
HETATM   17  C   UNL     1       5.764  27.136  51.668  1.00  0.00     0.161 C 
BRANCH  17  18
HETATM   18  C   UNL     1       4.598  28.027  51.332  1.00  0.00    -0.040 A 
HETATM   19  C   UNL     1       4.186  29.038  52.212  1.00  0.00     0.010 A 
HETATM   20  C   UNL     1       3.111  29.867  51.881  1.00  0.00     0.024 A 
HETATM   21  C   UNL     1       2.441  29.687  50.673  1.00  0.00     0.034 A 
HETATM   22 CL   UNL     1       1.122  30.713  50.264  1.00  0.00    -0.084 Cl
HETATM   23  C   UNL     1       2.834  28.681  49.792  1.00  0.00     0.024 A 
HETATM   24  C   UNL     1       3.908  27.853  50.122  1.00  0.00     0.010 A 
ENDBRANCH  17  18
ENDBRANCH  14  17
ENDBRANCH   2  13
BRANCH   2  25
HETATM   25  O   UNL     1       4.765  25.185  56.093  1.00  0.00    -0.359 OA
HETATM   26  H   UNL     1       4.353  25.790  56.738  1.00  0.00     0.213 HD
ENDBRANCH   2  25
BRANCH   1  27
HETATM   27  C   UNL     1       7.442  24.196  54.929  1.00  0.00     0.045 A 
HETATM   28  C   UNL     1       7.353  22.957  55.588  1.00  0.00     0.066 A 
HETATM   29  C   UNL     1       7.718  21.763  54.958  1.00  0.00     0.070 A 
HETATM   30  C   UNL     1       8.243  21.782  53.672  1.00  0.00     0.037 A 
HETATM   31  C   UNL     1       8.361  22.996  53.005  1.00  0.00     0.005 A 
HETATM   32  C   UNL     1       7.958  24.186  53.623  1.00  0.00     0.030 A 
BRANCH  29  33
HETATM   33  O   UNL     1       7.586  20.617  55.696  1.00  0.00    -0.356 OA
HETATM   34  C   UNL     1       8.736  20.337  56.493  1.00  0.00     0.210 C 
ENDBRANCH  29  33
ENDBRANCH   1  27
TORSDOF 6
ENDMDL
MODEL 5
REMARK VINA RESULT:      -8.7      3.150      6.585
REMARK  6 active torsions:
REMARK  status: ('A' for Active; 'I' for Inactive)
REMARK    1  A    between atoms: O_2  and  C_3 
REMARK    2  A    between atoms: C_5  and  N_6 
REMARK    3  A    between atoms: C_7  and  C_9 
REMARK    4  A    between atoms: C_7  and  O_8 
REMARK       I    between atoms: C_9  and  N_10 
REMARK    5  A    between atoms: N_10  and  C_11 
REMARK    6  A    between atoms: C_11  and  C_12 
ROOT
HETATM    1  N   UNL     1       6.698  25.388  55.278  1.00  0.00    -0.254 N 
HETATM    2  C   UNL     1       7.078  24.771  53.990  1.00  0.00     0.256 C 
HETATM    3  C   UNL     1       7.353  23.277  54.059  1.00  0.00     0.034 A 
HETATM    4  C   UNL     1       7.533  22.684  55.297  1.00  0.00     0.048 A 
HETATM    5  N   UNL     1       7.418  23.463  56.433  1.00  0.00    -0.308 N 
HETATM    6  C   UNL     1       7.041  24.770  56.474  1.00  0.00     0.330 C 
HETATM    7  O   UNL     1       7.008  25.286  57.592  1.00  0.00    -0.246 OA
HETATM    8  C   UNL     1       7.505  22.475  52.911  1.00  0.00     0.015 A 
HETATM    9  C   UNL     1       7.800  21.114  53.023  1.00  0.00     0.001 A 
HETATM   10  C   UNL     1       7.970  20.541  54.280  1.00  0.00     0.002 A 
HETATM   11  C   UNL     1       7.843  21.328  55.421  1.00  0.00     0.030 A 
HETATM   12  H   UNL     1       7.615  23.067  57.342  1.00  0.00     0.170 HD
ENDROOT
BRANCH   2  13
HETATM   13  C   UNL     1       5.939  25.001  52.905  1.00  0.00     0.279 C 
HETATM   14  N   UNL     1       6.248  25.839  51.854  1.00  0.00    -0.352 N 
HETATM   15  H   UNL     1       7.220  26.086  51.709  1.00  0.00     0.162 HD
HETATM   16  O   UNL     1       4.810  24.526  53.074  1.00  0.00    -0.268 OA
BRANCH  14  17
HETATM   17  C   UNL     1       5.320  26.071  50.774  1.00  0.00     0.161 C 
BRANCH  17  18
HETATM   18  C   UNL     1       5.297  27.526  50.390  1.00  0.00    -0.040 A 
HETATM   19  C   UNL     1       5.426  28.530  51.360  1.00  0.00     0.010 A 
HETATM   20  C   UNL     1       5.417  29.876  50.988  1.00  0.00     0.024 A 
HETATM   21  C   UNL     1       5.274  30.226  49.647  1.00  0.00     0.034 A 
HETATM   22 CL   UNL     1       5.270  31.885  49.190  1.00  0.00    -0.084 Cl
HETATM   23  C   UNL     1       5.136  29.240  48.672  1.00  0.00     0.024 A 
HETATM   24  C   UNL     1       5.146  27.894  49.044  1.00  0.00     0.010 A 
ENDBRANCH  17  18
ENDBRANCH  14  17
ENDBRANCH   2  13
BRANCH   2  25
HETATM   25  O   UNL     1       8.310  25.356  53.565  1.00  0.00    -0.359 OA
HETATM   26  H   UNL     1       8.998  24.720  53.838  1.00  0.00     0.213 HD
ENDBRANCH   2  25
BRANCH   1  27
HETATM   27  C   UNL     1       6.177  26.744  55.304  1.00  0.00     0.045 A 
HETATM   28  C   UNL     1       6.978  27.809  55.750  1.00  0.00     0.066 A 
HETATM   29  C   UNL     1       6.502  29.123  55.783  1.00  0.00     0.070 A 
HETATM   30  C   UNL     1       5.187  29.400  55.430  1.00  0.00     0.037 A 
HETATM   31  C   UNL     1       4.366  28.362  55.004  1.00  0.00     0.005 A 
HETATM   32  C   UNL     1       4.857  27.053  54.935  1.00  0.00     0.030 A 
BRANCH  29  33
HETATM   33  O   UNL     1       7.373  30.079  56.234  1.00  0.00    -0.356 OA
HETATM   34  C   UNL     1       7.561  30.034  57.648  1.00  0.00     0.210 C 
ENDBRANCH  29  33
ENDBRANCH   1  27
TORSDOF 6
ENDMDL
MODEL 6
REMARK VINA RESULT:      -8.6      3.472      6.088
REMARK  6 active torsions:
REMARK  status: ('A' for Active; 'I' for Inactive)
REMARK    1  A    between atoms: O_2  and  C_3 
REMARK    2  A    between atoms: C_5  and  N_6 
REMARK    3  A    between atoms: C_7  and  C_9 
REMARK    4  A    between atoms: C_7  and  O_8 
REMARK       I    between atoms: C_9  and  N_10 
REMARK    5  A    between atoms: N_10  and  C_11 
REMARK    6  A    between atoms: C_11  and  C_12 
ROOT
HETATM    1  N   UNL     1       6.394  27.363  52.874  1.00  0.00    -0.254 N 
HETATM    2  C   UNL     1       5.525  28.398  52.277  1.00  0.00     0.256 C 
HETATM    3  C   UNL     1       4.714  27.931  51.078  1.00  0.00     0.034 A 
HETATM    4  C   UNL     1       5.054  26.739  50.461  1.00  0.00     0.048 A 
HETATM    5  N   UNL     1       6.096  25.994  50.978  1.00  0.00    -0.308 N 
HETATM    6  C   UNL     1       6.784  26.262  52.121  1.00  0.00     0.330 C 
HETATM    7  O   UNL     1       7.686  25.472  52.405  1.00  0.00    -0.246 OA
HETATM    8  C   UNL     1       3.670  28.694  50.520  1.00  0.00     0.015 A 
HETATM    9  C   UNL     1       2.980  28.244  49.391  1.00  0.00     0.001 A 
HETATM   10  C   UNL     1       3.338  27.040  48.792  1.00  0.00     0.002 A 
HETATM   11  C   UNL     1       4.382  26.287  49.323  1.00  0.00     0.030 A 
HETATM   12  H   UNL     1       6.407  25.158  50.501  1.00  0.00     0.170 HD
ENDROOT
BRANCH   2  13
HETATM   13  C   UNL     1       4.505  28.959  53.360  1.00  0.00     0.279 C 
HETATM   14  N   UNL     1       4.705  30.257  53.782  1.00  0.00    -0.352 N 
HETATM   15  H   UNL     1       5.332  30.843  53.244  1.00  0.00     0.162 HD
HETATM   16  O   UNL     1       3.651  28.217  53.858  1.00  0.00    -0.268 OA
BRANCH  14  17
HETATM   17  C   UNL     1       3.805  30.898  54.709  1.00  0.00     0.161 C 
BRANCH  17  18
HETATM   18  C   UNL     1       4.525  31.288  55.973  1.00  0.00    -0.040 A 
HETATM   19  C   UNL     1       4.323  32.545  56.559  1.00  0.00     0.010 A 
HETATM   20  C   UNL     1       4.988  32.888  57.739  1.00  0.00     0.024 A 
HETATM   21  C   UNL     1       5.859  31.980  58.335  1.00  0.00     0.034 A 
HETATM   22 CL   UNL     1       6.671  32.403  59.792  1.00  0.00    -0.084 Cl
HETATM   23  C   UNL     1       6.077  30.730  57.760  1.00  0.00     0.024 A 
HETATM   24  C   UNL     1       5.412  30.386  56.581  1.00  0.00     0.010 A 
ENDBRANCH  17  18
ENDBRANCH  14  17
ENDBRANCH   2  13
BRANCH   2  25
HETATM   25  O   UNL     1       6.360  29.444  51.776  1.00  0.00    -0.359 OA
HETATM   26  H   UNL     1       6.449  29.259  50.823  1.00  0.00     0.213 HD
ENDBRANCH   2  25
BRANCH   1  27
HETATM   27  C   UNL     1       7.029  27.605  54.158  1.00  0.00     0.045 A 
HETATM   28  C   UNL     1       8.103  28.507  54.266  1.00  0.00     0.066 A 
HETATM   29  C   UNL     1       8.730  28.759  55.490  1.00  0.00     0.070 A 
HETATM   30  C   UNL     1       8.342  28.068  56.631  1.00  0.00     0.037 A 
HETATM   31  C   UNL     1       7.297  27.155  56.549  1.00  0.00     0.005 A 
HETATM   32  C   UNL     1       6.644  26.933  55.329  1.00  0.00     0.030 A 
BRANCH  29  33
HETATM   33  O   UNL     1       9.762  29.658  55.474  1.00  0.00    -0.356 OA
HETATM   34  C   UNL     1      10.554  29.614  56.660  1.00  0.00     0.210 C 
ENDBRANCH  29  33
ENDBRANCH   1  27
TORSDOF 6
ENDMDL
MODEL 7
REMARK VINA RESULT:      -8.6      2.983      6.145
REMARK  6 active torsions:
REMARK  status: ('A' for Active; 'I' for Inactive)
REMARK    1  A    between atoms: O_2  and  C_3 
REMARK    2  A    between atoms: C_5  and  N_6 
REMARK    3  A    between atoms: C_7  and  C_9 
REMARK    4  A    between atoms: C_7  and  O_8 
REMARK       I    between atoms: C_9  and  N_10 
REMARK    5  A    between atoms: N_10  and  C_11 
REMARK    6  A    between atoms: C_11  and  C_12 
ROOT
HETATM    1  N   UNL     1       6.878  27.648  56.096  1.00  0.00    -0.254 N 
HETATM    2  C   UNL     1       6.952  27.644  54.621  1.00  0.00     0.256 C 
HETATM    3  C   UNL     1       7.253  26.288  54.004  1.00  0.00     0.034 A 
HETATM    4  C   UNL     1       7.726  25.271  54.817  1.00  0.00     0.048 A 
HETATM    5  N   UNL     1       7.873  25.512  56.170  1.00  0.00    -0.308 N 
HETATM    6  C   UNL     1       7.500  26.644  56.828  1.00  0.00     0.330 C 
HETATM    7  O   UNL     1       7.725  26.661  58.039  1.00  0.00    -0.246 OA
HETATM    8  C   UNL     1       7.140  26.035  52.623  1.00  0.00     0.015 A 
HETATM    9  C   UNL     1       7.469  24.783  52.096  1.00  0.00     0.001 A 
HETATM   10  C   UNL     1       7.937  23.777  52.935  1.00  0.00     0.002 A 
HETATM   11  C   UNL     1       8.073  24.022  54.299  1.00  0.00     0.030 A 
HETATM   12  H   UNL     1       8.283  24.808  56.769  1.00  0.00     0.170 HD
ENDROOT
BRANCH   2  13
HETATM   13  C   UNL     1       5.586  28.166  53.995  1.00  0.00     0.279 C 
HETATM   14  N   UNL     1       5.649  29.333  53.264  1.00  0.00    -0.352 N 
HETATM   15  H   UNL     1       6.561  29.675  52.985  1.00  0.00     0.162 HD
HETATM   16  O   UNL     1       4.522  27.592  54.252  1.00  0.00    -0.268 OA
BRANCH  14  17
HETATM   17  C   UNL     1       4.489  29.867  52.591  1.00  0.00     0.161 C 
BRANCH  17  18
HETATM   18  C   UNL     1       4.266  29.172  51.274  1.00  0.00    -0.040 A 
HETATM   19  C   UNL     1       2.975  29.024  50.747  1.00  0.00     0.010 A 
HETATM   20  C   UNL     1       2.784  28.389  49.517  1.00  0.00     0.024 A 
HETATM   21  C   UNL     1       3.879  27.895  48.813  1.00  0.00     0.034 A 
HETATM   22 CL   UNL     1       3.642  27.119  47.295  1.00  0.00    -0.084 Cl
HETATM   23  C   UNL     1       5.167  28.026  49.328  1.00  0.00     0.024 A 
HETATM   24  C   UNL     1       5.359  28.661  50.557  1.00  0.00     0.010 A 
ENDBRANCH  17  18
ENDBRANCH  14  17
ENDBRANCH   2  13
BRANCH   2  25
HETATM   25  O   UNL     1       8.042  28.481  54.229  1.00  0.00    -0.359 OA
HETATM   26  H   UNL     1       8.204  28.259  53.293  1.00  0.00     0.213 HD
ENDBRANCH   2  25
BRANCH   1  27
HETATM   27  C   UNL     1       6.361  28.814  56.792  1.00  0.00     0.045 A 
HETATM   28  C   UNL     1       7.238  29.781  57.314  1.00  0.00     0.066 A 
HETATM   29  C   UNL     1       6.767  30.914  57.986  1.00  0.00     0.070 A 
HETATM   30  C   UNL     1       5.405  31.080  58.209  1.00  0.00     0.037 A 
HETATM   31  C   UNL     1       4.517  30.129  57.720  1.00  0.00     0.005 A 
HETATM   32  C   UNL     1       4.989  29.015  57.014  1.00  0.00     0.030 A 
BRANCH  29  33
HETATM   33  O   UNL     1       7.713  31.788  58.449  1.00  0.00    -0.356 OA
HETATM   34  C   UNL     1       8.941  31.146  58.791  1.00  0.00     0.210 C 
ENDBRANCH  29  33
ENDBRANCH   1  27
TORSDOF 6
ENDMDL
MODEL 8
REMARK VINA RESULT:      -8.4      3.353      7.406
REMARK  6 active torsions:
REMARK  status: ('A' for Active; 'I' for Inactive)
REMARK    1  A    between atoms: O_2  and  C_3 
REMARK    2  A    between atoms: C_5  and  N_6 
REMARK    3  A    between atoms: C_7  and  C_9 
REMARK    4  A    between atoms: C_7  and  O_8 
REMARK       I    between atoms: C_9  and  N_10 
REMARK    5  A    between atoms: N_10  and  C_11 
REMARK    6  A    between atoms: C_11  and  C_12 
ROOT
HETATM    1  N   UNL     1       5.698  26.222  53.490  1.00  0.00    -0.254 N 
HETATM    2  C   UNL     1       6.162  25.966  54.869  1.00  0.00     0.256 C 
HETATM    3  C   UNL     1       6.964  24.686  55.042  1.00  0.00     0.034 A 
HETATM    4  C   UNL     1       6.941  23.738  54.033  1.00  0.00     0.048 A 
HETATM    5  N   UNL     1       6.218  24.004  52.885  1.00  0.00    -0.308 N 
HETATM    6  C   UNL     1       5.587  25.172  52.587  1.00  0.00     0.330 C 
HETATM    7  O   UNL     1       4.990  25.202  51.510  1.00  0.00    -0.246 OA
HETATM    8  C   UNL     1       7.679  24.387  56.218  1.00  0.00     0.015 A 
HETATM    9  C   UNL     1       8.368  23.177  56.347  1.00  0.00     0.001 A 
HETATM   10  C   UNL     1       8.332  22.243  55.316  1.00  0.00     0.002 A 
HETATM   11  C   UNL     1       7.611  22.520  54.157  1.00  0.00     0.030 A 
HETATM   12  H   UNL     1       6.128  23.297  52.167  1.00  0.00     0.170 HD
ENDROOT
BRANCH   2  13
HETATM   13  C   UNL     1       7.062  27.172  55.385  1.00  0.00     0.279 C 
HETATM   14  N   UNL     1       6.679  27.765  56.569  1.00  0.00    -0.352 N 
HETATM   15  H   UNL     1       5.999  27.285  57.147  1.00  0.00     0.162 HD
HETATM   16  O   UNL     1       7.989  27.602  54.689  1.00  0.00    -0.268 OA
BRANCH  14  17
HETATM   17  C   UNL     1       7.455  28.822  57.171  1.00  0.00     0.161 C 
BRANCH  17  18
HETATM   18  C   UNL     1       6.645  30.087  57.281  1.00  0.00    -0.040 A 
HETATM   19  C   UNL     1       5.736  30.450  56.278  1.00  0.00     0.010 A 
HETATM   20  C   UNL     1       4.980  31.619  56.400  1.00  0.00     0.024 A 
HETATM   21  C   UNL     1       5.133  32.431  57.521  1.00  0.00     0.034 A 
HETATM   22 CL   UNL     1       4.196  33.867  57.672  1.00  0.00    -0.084 Cl
HETATM   23  C   UNL     1       6.039  32.088  58.522  1.00  0.00     0.024 A 
HETATM   24  C   UNL     1       6.794  30.919  58.401  1.00  0.00     0.010 A 
ENDBRANCH  17  18
ENDBRANCH  14  17
ENDBRANCH   2  13
BRANCH   2  25
HETATM   25  O   UNL     1       5.013  25.800  55.701  1.00  0.00    -0.359 OA
HETATM   26  H   UNL     1       4.700  24.894  55.518  1.00  0.00     0.213 HD
ENDBRANCH   2  25
BRANCH   1  27
HETATM   27  C   UNL     1       5.137  27.517  53.144  1.00  0.00     0.045 A 
HETATM   28  C   UNL     1       5.723  28.303  52.136  1.00  0.00     0.066 A 
HETATM   29  C   UNL     1       5.203  29.552  51.783  1.00  0.00     0.070 A 
HETATM   30  C   UNL     1       4.117  30.078  52.472  1.00  0.00     0.037 A 
HETATM   31  C   UNL     1       3.530  29.331  53.486  1.00  0.00     0.005 A 
HETATM   32  C   UNL     1       4.030  28.063  53.812  1.00  0.00     0.030 A 
BRANCH  29  33
HETATM   33  O   UNL     1       5.854  30.226  50.785  1.00  0.00    -0.356 OA
HETATM   34  C   UNL     1       5.741  29.584  49.516  1.00  0.00     0.210 C 
ENDBRANCH  29  33
ENDBRANCH   1  27
TORSDOF 6
ENDMDL
MODEL 9
REMARK VINA RESULT:      -8.4      4.444      7.688
REMARK  6 active torsions:
REMARK  status: ('A' for Active; 'I' for Inactive)
REMARK    1  A    between atoms: O_2  and  C_3 
REMARK    2  A    between atoms: C_5  and  N_6 
REMARK    3  A    between atoms: C_7  and  C_9 
REMARK    4  A    between atoms: C_7  and  O_8 
REMARK       I    between atoms: C_9  and  N_10 
REMARK    5  A    between atoms: N_10  and  C_11 
REMARK    6  A    between atoms: C_11  and  C_12 
ROOT
HETATM    1  N   UNL     1       4.821  29.836  56.020  1.00  0.00    -0.254 N 
HETATM    2  C   UNL     1       5.681  28.763  56.560  1.00  0.00     0.256 C 
HETATM    3  C   UNL     1       5.969  27.630  55.587  1.00  0.00     0.034 A 
HETATM    4  C   UNL     1       5.201  27.519  54.441  1.00  0.00     0.048 A 
HETATM    5  N   UNL     1       4.221  28.463  54.200  1.00  0.00    -0.308 N 
HETATM    6  C   UNL     1       3.986  29.581  54.940  1.00  0.00     0.330 C 
HETATM    7  O   UNL     1       3.056  30.294  54.558  1.00  0.00    -0.246 OA
HETATM    8  C   UNL     1       6.942  26.642  55.833  1.00  0.00     0.015 A 
HETATM    9  C   UNL     1       7.142  25.595  54.929  1.00  0.00     0.001 A 
HETATM   10  C   UNL     1       6.360  25.508  53.782  1.00  0.00     0.002 A 
HETATM   11  C   UNL     1       5.381  26.469  53.538  1.00  0.00     0.030 A 
HETATM   12  H   UNL     1       3.602  28.361  53.407  1.00  0.00     0.170 HD
ENDROOT
BRANCH   2  13
HETATM   13  C   UNL     1       7.078  29.356  57.035  1.00  0.00     0.279 C 
HETATM   14  N   UNL     1       7.234  29.557  58.391  1.00  0.00    -0.352 N 
HETATM   15  H   UNL     1       6.562  29.130  59.018  1.00  0.00     0.162 HD
HETATM   16  O   UNL     1       7.922  29.709  56.204  1.00  0.00    -0.268 OA
BRANCH  14  17
HETATM   17  C   UNL     1       8.480  30.026  58.947  1.00  0.00     0.161 C 
BRANCH  17  18
HETATM   18  C   UNL     1       8.239  30.832  60.197  1.00  0.00    -0.040 A 
HETATM   19  C   UNL     1       8.999  30.611  61.353  1.00  0.00     0.010 A 
HETATM   20  C   UNL     1       8.774  31.375  62.501  1.00  0.00     0.024 A 
HETATM   21  C   UNL     1       7.788  32.358  62.500  1.00  0.00     0.034 A 
HETATM   22 CL   UNL     1       7.517  33.303  63.912  1.00  0.00    -0.084 Cl
HETATM   23  C   UNL     1       7.018  32.583  61.360  1.00  0.00     0.024 A 
HETATM   24  C   UNL     1       7.243  31.820  60.212  1.00  0.00     0.010 A 
ENDBRANCH  17  18
ENDBRANCH  14  17
ENDBRANCH   2  13
BRANCH   2  25
HETATM   25  O   UNL     1       4.993  28.149  57.651  1.00  0.00    -0.359 OA
HETATM   26  H   UNL     1       4.049  28.195  57.410  1.00  0.00     0.213 HD
ENDBRANCH   2  25
BRANCH   1  27
HETATM   27  C   UNL     1       4.671  31.080  56.755  1.00  0.00     0.045 A 
HETATM   28  C   UNL     1       3.917  31.124  57.940  1.00  0.00     0.066 A 
HETATM   29  C   UNL     1       3.758  32.308  58.667  1.00  0.00     0.070 A 
HETATM   30  C   UNL     1       4.298  33.498  58.193  1.00  0.00     0.037 A 
HETATM   31  C   UNL     1       5.032  33.487  57.013  1.00  0.00     0.005 A 
HETATM   32  C   UNL     1       5.222  32.292  56.307  1.00  0.00     0.030 A 
BRANCH  29  33
HETATM   33  O   UNL     1       3.005  32.230  59.808  1.00  0.00    -0.356 OA
HETATM   34  C   UNL     1       2.794  33.502  60.421  1.00  0.00     0.210 C 
ENDBRANCH  29  33
ENDBRANCH   1  27
TORSDOF 6
ENDMDL
MODEL 10
REMARK VINA RESULT:      -8.1      7.821     11.390
REMARK  6 active torsions:
REMARK  status: ('A' for Active; 'I' for Inactive)
REMARK    1  A    between atoms: O_2  and  C_3 
REMARK    2  A    between atoms: C_5  and  N_6 
REMARK    3  A    between atoms: C_7  and  C_9 
REMARK    4  A    between atoms: C_7  and  O_8 
REMARK       I    between atoms: C_9  and  N_10 
REMARK    5  A    between atoms: N_10  and  C_11 
REMARK    6  A    between atoms: C_11  and  C_12 
ROOT
HETATM    1  N   UNL     1       3.891  33.800  62.160  1.00  0.00    -0.254 N 
HETATM    2  C   UNL     1       5.137  33.960  62.938  1.00  0.00     0.256 C 
HETATM    3  C   UNL     1       4.929  34.228  64.420  1.00  0.00     0.034 A 
HETATM    4  C   UNL     1       3.672  34.600  64.865  1.00  0.00     0.048 A 
HETATM    5  N   UNL     1       2.637  34.679  63.952  1.00  0.00    -0.308 N 
HETATM    6  C   UNL     1       2.698  34.327  62.639  1.00  0.00     0.330 C 
HETATM    7  O   UNL     1       1.661  34.481  61.992  1.00  0.00    -0.246 OA
HETATM    8  C   UNL     1       5.979  34.183  65.358  1.00  0.00     0.015 A 
HETATM    9  C   UNL     1       5.748  34.479  66.704  1.00  0.00     0.001 A 
HETATM   10  C   UNL     1       4.474  34.845  67.127  1.00  0.00     0.002 A 
HETATM   11  C   UNL     1       3.433  34.913  66.205  1.00  0.00     0.030 A 
HETATM   12  H   UNL     1       1.730  35.018  64.242  1.00  0.00     0.170 HD
ENDROOT
BRANCH   2  13
HETATM   13  C   UNL     1       6.046  32.662  62.805  1.00  0.00     0.279 C 
HETATM   14  N   UNL     1       7.263  32.823  62.178  1.00  0.00    -0.352 N 
HETATM   15  H   UNL     1       7.605  33.765  62.032  1.00  0.00     0.162 HD
HETATM   16  O   UNL     1       5.615  31.560  63.161  1.00  0.00    -0.268 OA
BRANCH  14  17
HETATM   17  C   UNL     1       8.202  31.734  62.060  1.00  0.00     0.161 C 
BRANCH  17  18
HETATM   18  C   UNL     1       8.275  31.241  60.638  1.00  0.00    -0.040 A 
HETATM   19  C   UNL     1       9.463  30.707  60.122  1.00  0.00     0.010 A 
HETATM   20  C   UNL     1       9.513  30.241  58.805  1.00  0.00     0.024 A 
HETATM   21  C   UNL     1       8.379  30.311  58.000  1.00  0.00     0.034 A 
HETATM   22 CL   UNL     1       8.441  29.731  56.381  1.00  0.00    -0.084 Cl
HETATM   23  C   UNL     1       7.194  30.848  58.497  1.00  0.00     0.024 A 
HETATM   24  C   UNL     1       7.143  31.313  59.812  1.00  0.00     0.010 A 
ENDBRANCH  17  18
ENDBRANCH  14  17
ENDBRANCH   2  13
BRANCH   2  25
HETATM   25  O   UNL     1       5.823  35.112  62.445  1.00  0.00    -0.359 OA
HETATM   26  H   UNL     1       6.410  34.773  61.743  1.00  0.00     0.213 HD
ENDBRANCH   2  25
BRANCH   1  27
HETATM   27  C   UNL     1       3.949  33.304  60.796  1.00  0.00     0.045 A 
HETATM   28  C   UNL     1       4.460  34.110  59.763  1.00  0.00     0.066 A 
HETATM   29  C   UNL     1       4.528  33.655  58.442  1.00  0.00     0.070 A 
HETATM   30  C   UNL     1       4.030  32.403  58.106  1.00  0.00     0.037 A 
HETATM   31  C   UNL     1       3.502  31.592  59.104  1.00  0.00     0.005 A 
HETATM   32  C   UNL     1       3.469  32.035  60.433  1.00  0.00     0.030 A 
BRANCH  29  33
HETATM   33  O   UNL     1       5.046  34.527  57.521  1.00  0.00    -0.356 OA
HETATM   34  C   UNL     1       4.184  35.634  57.260  1.00  0.00     0.210 C 
ENDBRANCH  29  33
ENDBRANCH   1  27
TORSDOF 6
ENDMDL
