MODEL 1
REMARK VINA RESULT:      -9.7      0.000      0.000
REMARK  6 active torsions:
REMARK  status: ('A' for Active; 'I' for Inactive)
REMARK    1  A    between atoms: O_2  and  C_3 
REMARK    2  A    between atoms: C_5  and  O_6 
REMARK    3  A    between atoms: C_9  and  C_10 
REMARK       I    between atoms: C_10  and  N_11 
REMARK    4  A    between atoms: N_11  and  C_12 
REMARK    5  A    between atoms: N_15  and  C_16 
REMARK    6  A    between atoms: C_20  and  C_21 
ROOT
HETATM    1  C   UNL     1       7.227  31.027  57.844  1.00  0.00     0.087 C 
HETATM    2  C   UNL     1       8.371  29.999  57.925  1.00  0.00     0.045 C 
HETATM    3  C   UNL     1       7.882  28.658  58.464  1.00  0.00     0.126 C 
HETATM    4  N   UNL     1       6.777  28.166  57.625  1.00  0.00    -0.366 N 
HETATM    5  C   UNL     1       5.626  29.076  57.603  1.00  0.00     0.126 C 
HETATM    6  C   UNL     1       6.050  30.437  57.048  1.00  0.00     0.045 C 
ENDROOT
BRANCH   1   7
HETATM    7  N   UNL     1       6.770  31.488  59.159  1.00  0.00    -0.352 N 
HETATM    8  C   UNL     1       7.537  32.311  59.962  1.00  0.00     0.252 C 
HETATM    9  O   UNL     1       8.669  32.676  59.670  1.00  0.00    -0.268 OA
HETATM   10  H   UNL     1       5.770  31.543  59.298  1.00  0.00     0.163 HD
BRANCH   8  11
HETATM   11  C   UNL     1       6.904  32.774  61.231  1.00  0.00     0.037 A 
HETATM   12  C   UNL     1       7.572  32.707  62.463  1.00  0.00     0.054 A 
HETATM   13  C   UNL     1       6.939  33.158  63.622  1.00  0.00     0.071 A 
HETATM   14  C   UNL     1       5.647  33.693  63.545  1.00  0.00     0.073 A 
HETATM   15  C   UNL     1       4.988  33.794  62.320  1.00  0.00     0.071 A 
HETATM   16  C   UNL     1       5.619  33.326  61.167  1.00  0.00     0.054 A 
BRANCH  13  17
HETATM   17  O   UNL     1       7.467  33.137  64.885  1.00  0.00    -0.356 OA
HETATM   18  C   UNL     1       6.763  33.846  65.898  1.00  0.00     0.210 C 
ENDBRANCH  13  17
BRANCH  15  19
HETATM   19  O   UNL     1       3.740  34.316  62.121  1.00  0.00    -0.356 OA
HETATM   20  C   UNL     1       2.850  34.289  63.231  1.00  0.00     0.210 C 
ENDBRANCH  15  19
ENDBRANCH   8  11
ENDBRANCH   1   7
BRANCH   4  21
HETATM   21  C   UNL     1       6.996  27.323  56.568  1.00  0.00     0.121 A 
HETATM   22  N   UNL     1       7.187  27.756  55.280  1.00  0.00    -0.262 N 
HETATM   23  H   UNL     1       7.204  28.709  54.946  1.00  0.00     0.191 HD
HETATM   24  N   UNL     1       7.388  26.776  54.385  1.00  0.00    -0.173 NA
HETATM   25  C   UNL     1       7.377  25.649  55.114  1.00  0.00     0.090 A 
HETATM   26  C   UNL     1       7.131  25.953  56.482  1.00  0.00     0.084 A 
BRANCH  25  27
HETATM   27  C   UNL     1       7.598  24.334  54.501  1.00  0.00    -0.005 A 
HETATM   28  C   UNL     1       7.741  24.196  53.111  1.00  0.00     0.015 A 
HETATM   29  C   UNL     1       7.949  22.937  52.536  1.00  0.00     0.024 A 
HETATM   30  C   UNL     1       8.016  21.806  53.346  1.00  0.00     0.034 A 
HETATM   31 CL   UNL     1       8.272  20.260  52.637  1.00  0.00    -0.084 Cl
HETATM   32  C   UNL     1       7.873  21.921  54.726  1.00  0.00     0.024 A 
HETATM   33  C   UNL     1       7.664  23.180  55.299  1.00  0.00     0.015 A 
ENDBRANCH  25  27
ENDBRANCH   4  21
TORSDOF 6
ENDMDL
MODEL 2
REMARK VINA RESULT:      -9.5      0.479      1.947
REMARK  6 active torsions:
REMARK  status: ('A' for Active; 'I' for Inactive)
REMARK    1  A    between atoms: O_2  and  C_3 
REMARK    2  A    between atoms: C_5  and  O_6 
REMARK    3  A    between atoms: C_9  and  C_10 
REMARK       I    between atoms: C_10  and  N_11 
REMARK    4  A    between atoms: N_11  and  C_12 
REMARK    5  A    between atoms: N_15  and  C_16 
REMARK    6  A    between atoms: C_20  and  C_21 
ROOT
HETATM    1  C   UNL     1       6.712  30.897  57.601  1.00  0.00     0.087 C 
HETATM    2  C   UNL     1       7.919  29.943  57.680  1.00  0.00     0.045 C 
HETATM    3  C   UNL     1       7.524  28.590  58.266  1.00  0.00     0.126 C 
HETATM    4  N   UNL     1       6.433  28.010  57.467  1.00  0.00    -0.366 N 
HETATM    5  C   UNL     1       5.228  28.847  57.450  1.00  0.00     0.126 C 
HETATM    6  C   UNL     1       5.555  30.216  56.850  1.00  0.00     0.045 C 
ENDROOT
BRANCH   1   7
HETATM    7  N   UNL     1       6.258  31.366  58.915  1.00  0.00    -0.352 N 
HETATM    8  C   UNL     1       7.043  32.161  59.728  1.00  0.00     0.252 C 
HETATM    9  O   UNL     1       8.189  32.493  59.448  1.00  0.00    -0.268 OA
HETATM   10  H   UNL     1       5.259  31.451  59.046  1.00  0.00     0.163 HD
BRANCH   8  11
HETATM   11  C   UNL     1       6.414  32.637  60.994  1.00  0.00     0.037 A 
HETATM   12  C   UNL     1       5.040  32.902  61.088  1.00  0.00     0.054 A 
HETATM   13  C   UNL     1       4.497  33.340  62.297  1.00  0.00     0.071 A 
HETATM   14  C   UNL     1       5.326  33.493  63.416  1.00  0.00     0.073 A 
HETATM   15  C   UNL     1       6.687  33.201  63.340  1.00  0.00     0.071 A 
HETATM   16  C   UNL     1       7.227  32.779  62.125  1.00  0.00     0.054 A 
BRANCH  13  17
HETATM   17  O   UNL     1       3.183  33.648  62.523  1.00  0.00    -0.356 OA
HETATM   18  C   UNL     1       2.874  34.358  63.716  1.00  0.00     0.210 C 
ENDBRANCH  13  17
BRANCH  15  19
HETATM   19  O   UNL     1       7.585  33.291  64.368  1.00  0.00    -0.356 OA
HETATM   20  C   UNL     1       7.076  33.707  65.629  1.00  0.00     0.210 C 
ENDBRANCH  15  19
ENDBRANCH   8  11
ENDBRANCH   1   7
BRANCH   4  21
HETATM   21  C   UNL     1       6.678  27.153  56.427  1.00  0.00     0.121 A 
HETATM   22  N   UNL     1       6.746  27.552  55.116  1.00  0.00    -0.262 N 
HETATM   23  H   UNL     1       6.643  28.489  54.750  1.00  0.00     0.191 HD
HETATM   24  N   UNL     1       6.998  26.564  54.244  1.00  0.00    -0.173 NA
HETATM   25  C   UNL     1       7.150  25.472  55.009  1.00  0.00     0.090 A 
HETATM   26  C   UNL     1       6.953  25.802  56.379  1.00  0.00     0.084 A 
BRANCH  25  27
HETATM   27  C   UNL     1       7.473  24.164  54.427  1.00  0.00    -0.005 A 
HETATM   28  C   UNL     1       7.824  24.037  53.073  1.00  0.00     0.015 A 
HETATM   29  C   UNL     1       8.129  22.785  52.528  1.00  0.00     0.024 A 
HETATM   30  C   UNL     1       8.085  21.648  53.331  1.00  0.00     0.034 A 
HETATM   31 CL   UNL     1       8.460  20.111  52.659  1.00  0.00    -0.084 Cl
HETATM   32  C   UNL     1       7.736  21.751  54.675  1.00  0.00     0.024 A 
HETATM   33  C   UNL     1       7.430  23.004  55.218  1.00  0.00     0.015 A 
ENDBRANCH  25  27
ENDBRANCH   4  21
TORSDOF 6
ENDMDL
MODEL 3
REMARK VINA RESULT:      -9.2      1.465      1.717
REMARK  6 active torsions:
REMARK  status: ('A' for Active; 'I' for Inactive)
REMARK    1  A    between atoms: O_2  and  C_3 
REMARK    2  A    between atoms: C_5  and  O_6 
REMARK    3  A    between atoms: C_9  and  C_10 
REMARK       I    between atoms: C_10  and  N_11 
REMARK    4  A    between atoms: N_11  and  C_12 
REMARK    5  A    between atoms: N_15  and  C_16 
REMARK    6  A    between atoms: C_20  and  C_21 
ROOT
HETATM    1  C   UNL     1       6.378  30.955  57.493  1.00  0.00     0.087 C 
HETATM    2  C   UNL     1       7.673  30.141  57.672  1.00  0.00     0.045 C 
HETATM    3  C   UNL     1       7.392  28.769  58.278  1.00  0.00     0.126 C 
HETATM    4  N   UNL     1       6.419  28.052  57.439  1.00  0.00    -0.366 N 
HETATM    5  C   UNL     1       5.134  28.752  57.326  1.00  0.00     0.126 C 
HETATM    6  C   UNL     1       5.348  30.132  56.701  1.00  0.00     0.045 C 
ENDROOT
BRANCH   1   7
HETATM    7  N   UNL     1       5.798  31.406  58.764  1.00  0.00    -0.352 N 
HETATM    8  C   UNL     1       5.309  32.687  58.940  1.00  0.00     0.252 C 
HETATM    9  O   UNL     1       5.367  33.557  58.081  1.00  0.00    -0.268 OA
HETATM   10  H   UNL     1       5.394  30.693  59.356  1.00  0.00     0.163 HD
BRANCH   8  11
HETATM   11  C   UNL     1       4.666  32.973  60.255  1.00  0.00     0.037 A 
HETATM   12  C   UNL     1       5.247  32.578  61.470  1.00  0.00     0.054 A 
HETATM   13  C   UNL     1       4.608  32.875  62.675  1.00  0.00     0.071 A 
HETATM   14  C   UNL     1       3.400  33.583  62.665  1.00  0.00     0.073 A 
HETATM   15  C   UNL     1       2.832  34.009  61.464  1.00  0.00     0.071 A 
HETATM   16  C   UNL     1       3.466  33.695  60.262  1.00  0.00     0.054 A 
BRANCH  13  17
HETATM   17  O   UNL     1       5.054  32.537  63.924  1.00  0.00    -0.356 OA
HETATM   18  C   UNL     1       4.871  33.492  64.962  1.00  0.00     0.210 C 
ENDBRANCH  13  17
BRANCH  15  19
HETATM   19  O   UNL     1       1.673  34.723  61.334  1.00  0.00    -0.356 OA
HETATM   20  C   UNL     1       1.598  35.626  60.237  1.00  0.00     0.210 C 
ENDBRANCH  15  19
ENDBRANCH   8  11
ENDBRANCH   1   7
BRANCH   4  21
HETATM   21  C   UNL     1       6.816  27.200  56.442  1.00  0.00     0.121 A 
HETATM   22  N   UNL     1       7.183  27.619  55.189  1.00  0.00    -0.262 N 
HETATM   23  H   UNL     1       7.223  28.567  54.842  1.00  0.00     0.191 HD
HETATM   24  N   UNL     1       7.543  26.632  54.353  1.00  0.00    -0.173 NA
HETATM   25  C   UNL     1       7.458  25.516  55.095  1.00  0.00     0.090 A 
HETATM   26  C   UNL     1       7.002  25.834  56.406  1.00  0.00     0.084 A 
BRANCH  25  27
HETATM   27  C   UNL     1       7.805  24.200  54.548  1.00  0.00    -0.005 A 
HETATM   28  C   UNL     1       7.636  23.913  53.183  1.00  0.00     0.015 A 
HETATM   29  C   UNL     1       7.969  22.654  52.672  1.00  0.00     0.024 A 
HETATM   30  C   UNL     1       8.472  21.670  53.520  1.00  0.00     0.034 A 
HETATM   31 CL   UNL     1       8.879  20.123  52.889  1.00  0.00    -0.084 Cl
HETATM   32  C   UNL     1       8.643  21.933  54.876  1.00  0.00     0.024 A 
HETATM   33  C   UNL     1       8.309  23.192  55.386  1.00  0.00     0.015 A 
ENDBRANCH  25  27
ENDBRANCH   4  21
TORSDOF 6
ENDMDL
MODEL 4
REMARK VINA RESULT:      -9.1      5.182     11.413
REMARK  6 active torsions:
REMARK  status: ('A' for Active; 'I' for Inactive)
REMARK    1  A    between atoms: O_2  and  C_3 
REMARK    2  A    between atoms: C_5  and  O_6 
REMARK    3  A    between atoms: C_9  and  C_10 
REMARK       I    between atoms: C_10  and  N_11 
REMARK    4  A    between atoms: N_11  and  C_12 
REMARK    5  A    between atoms: N_15  and  C_16 
REMARK    6  A    between atoms: C_20  and  C_21 
ROOT
HETATM    1  C   UNL     1       6.198  28.014  57.381  1.00  0.00     0.087 C 
HETATM    2  C   UNL     1       7.546  28.000  58.125  1.00  0.00     0.045 C 
HETATM    3  C   UNL     1       8.468  29.113  57.635  1.00  0.00     0.126 C 
HETATM    4  N   UNL     1       7.789  30.411  57.779  1.00  0.00    -0.366 N 
HETATM    5  C   UNL     1       6.547  30.497  57.002  1.00  0.00     0.126 C 
HETATM    6  C   UNL     1       5.569  29.415  57.465  1.00  0.00     0.045 C 
ENDROOT
BRANCH   1   7
HETATM    7  N   UNL     1       6.307  27.590  55.980  1.00  0.00    -0.352 N 
HETATM    8  C   UNL     1       5.806  26.382  55.532  1.00  0.00     0.252 C 
HETATM    9  O   UNL     1       5.285  25.552  56.267  1.00  0.00    -0.268 OA
HETATM   10  H   UNL     1       6.374  28.324  55.288  1.00  0.00     0.163 HD
BRANCH   8  11
HETATM   11  C   UNL     1       5.907  26.127  54.066  1.00  0.00     0.037 A 
HETATM   12  C   UNL     1       5.174  26.871  53.129  1.00  0.00     0.054 A 
HETATM   13  C   UNL     1       5.307  26.598  51.767  1.00  0.00     0.071 A 
HETATM   14  C   UNL     1       6.187  25.595  51.342  1.00  0.00     0.073 A 
HETATM   15  C   UNL     1       6.944  24.873  52.264  1.00  0.00     0.071 A 
HETATM   16  C   UNL     1       6.795  25.139  53.626  1.00  0.00     0.054 A 
BRANCH  13  17
HETATM   17  O   UNL     1       4.643  27.233  50.753  1.00  0.00    -0.356 OA
HETATM   18  C   UNL     1       4.622  26.591  49.484  1.00  0.00     0.210 C 
ENDBRANCH  13  17
BRANCH  15  19
HETATM   19  O   UNL     1       7.848  23.891  51.966  1.00  0.00    -0.356 OA
HETATM   20  C   UNL     1       7.943  22.808  52.884  1.00  0.00     0.210 C 
ENDBRANCH  15  19
ENDBRANCH   8  11
ENDBRANCH   1   7
BRANCH   4  21
HETATM   21  C   UNL     1       7.943  31.185  58.899  1.00  0.00     0.121 A 
HETATM   22  N   UNL     1       9.056  31.949  59.144  1.00  0.00    -0.262 N 
HETATM   23  H   UNL     1       9.873  32.056  58.559  1.00  0.00     0.191 HD
HETATM   24  N   UNL     1       9.017  32.638  60.296  1.00  0.00    -0.173 NA
HETATM   25  C   UNL     1       7.811  32.358  60.814  1.00  0.00     0.090 A 
HETATM   26  C   UNL     1       7.114  31.449  59.969  1.00  0.00     0.084 A 
BRANCH  25  27
HETATM   27  C   UNL     1       7.360  32.951  62.078  1.00  0.00    -0.005 A 
HETATM   28  C   UNL     1       6.325  33.900  62.106  1.00  0.00     0.015 A 
HETATM   29  C   UNL     1       5.903  34.460  63.317  1.00  0.00     0.024 A 
HETATM   30  C   UNL     1       6.512  34.077  64.510  1.00  0.00     0.034 A 
HETATM   31 CL   UNL     1       5.992  34.768  65.996  1.00  0.00    -0.084 Cl
HETATM   32  C   UNL     1       7.542  33.141  64.503  1.00  0.00     0.024 A 
HETATM   33  C   UNL     1       7.964  32.582  63.292  1.00  0.00     0.015 A 
ENDBRANCH  25  27
ENDBRANCH   4  21
TORSDOF 6
ENDMDL
MODEL 5
REMARK VINA RESULT:      -9.0      5.062     11.242
REMARK  6 active torsions:
REMARK  status: ('A' for Active; 'I' for Inactive)
REMARK    1  A    between atoms: O_2  and  C_3 
REMARK    2  A    between atoms: C_5  and  O_6 
REMARK    3  A    between atoms: C_9  and  C_10 
REMARK       I    between atoms: C_10  and  N_11 
REMARK    4  A    between atoms: N_11  and  C_12 
REMARK    5  A    between atoms: N_15  and  C_16 
REMARK    6  A    between atoms: C_20  and  C_21 
ROOT
HETATM    1  C   UNL     1       6.529  27.527  57.346  1.00  0.00     0.087 C 
HETATM    2  C   UNL     1       7.786  27.566  58.234  1.00  0.00     0.045 C 
HETATM    3  C   UNL     1       8.806  28.576  57.715  1.00  0.00     0.126 C 
HETATM    4  N   UNL     1       8.177  29.902  57.617  1.00  0.00    -0.366 N 
HETATM    5  C   UNL     1       7.032  29.927  56.700  1.00  0.00     0.126 C 
HETATM    6  C   UNL     1       5.960  28.947  57.181  1.00  0.00     0.045 C 
ENDROOT
BRANCH   1   7
HETATM    7  N   UNL     1       6.769  26.921  56.031  1.00  0.00    -0.352 N 
HETATM    8  C   UNL     1       6.968  25.563  55.868  1.00  0.00     0.252 C 
HETATM    9  O   UNL     1       7.016  24.770  56.800  1.00  0.00    -0.268 OA
HETATM   10  H   UNL     1       6.393  27.412  55.230  1.00  0.00     0.163 HD
BRANCH   8  11
HETATM   11  C   UNL     1       7.107  25.079  54.463  1.00  0.00     0.037 A 
HETATM   12  C   UNL     1       7.651  23.822  54.160  1.00  0.00     0.054 A 
HETATM   13  C   UNL     1       7.755  23.412  52.830  1.00  0.00     0.071 A 
HETATM   14  C   UNL     1       7.296  24.251  51.807  1.00  0.00     0.073 A 
HETATM   15  C   UNL     1       6.724  25.488  52.101  1.00  0.00     0.071 A 
HETATM   16  C   UNL     1       6.638  25.900  53.431  1.00  0.00     0.054 A 
BRANCH  13  17
HETATM   17  O   UNL     1       8.277  22.224  52.395  1.00  0.00    -0.356 OA
HETATM   18  C   UNL     1       7.949  21.056  53.138  1.00  0.00     0.210 C 
ENDBRANCH  13  17
BRANCH  15  19
HETATM   19  O   UNL     1       6.224  26.377  51.190  1.00  0.00    -0.356 OA
HETATM   20  C   UNL     1       5.013  27.038  51.539  1.00  0.00     0.210 C 
ENDBRANCH  15  19
ENDBRANCH   8  11
ENDBRANCH   1   7
BRANCH   4  21
HETATM   21  C   UNL     1       8.245  30.810  58.642  1.00  0.00     0.121 A 
HETATM   22  N   UNL     1       9.165  31.826  58.694  1.00  0.00    -0.262 N 
HETATM   23  H   UNL     1       9.879  32.048  58.014  1.00  0.00     0.191 HD
HETATM   24  N   UNL     1       9.069  32.611  59.778  1.00  0.00    -0.173 NA
HETATM   25  C   UNL     1       8.013  32.127  60.450  1.00  0.00     0.090 A 
HETATM   26  C   UNL     1       7.476  30.998  59.771  1.00  0.00     0.084 A 
BRANCH  25  27
HETATM   27  C   UNL     1       7.550  32.740  61.701  1.00  0.00    -0.005 A 
HETATM   28  C   UNL     1       6.502  33.675  61.707  1.00  0.00     0.015 A 
HETATM   29  C   UNL     1       6.068  34.254  62.905  1.00  0.00     0.024 A 
HETATM   30  C   UNL     1       6.680  33.904  64.107  1.00  0.00     0.034 A 
HETATM   31 CL   UNL     1       6.145  34.618  65.577  1.00  0.00    -0.084 Cl
HETATM   32  C   UNL     1       7.723  32.982  64.122  1.00  0.00     0.024 A 
HETATM   33  C   UNL     1       8.155  32.405  62.923  1.00  0.00     0.015 A 
ENDBRANCH  25  27
ENDBRANCH   4  21
TORSDOF 6
ENDMDL
MODEL 6
REMARK VINA RESULT:      -8.9      5.994     11.440
REMARK  6 active torsions:
REMARK  status: ('A' for Active; 'I' for Inactive)
REMARK    1  A    between atoms: O_2  and  C_3 
REMARK    2  A    between atoms: C_5  and  O_6 
REMARK    3  A    between atoms: C_9  and  C_10 
REMARK       I    between atoms: C_10  and  N_11 
REMARK    4  A    between atoms: N_11  and  C_12 
REMARK    5  A    between atoms: N_15  and  C_16 
REMARK    6  A    between atoms: C_20  and  C_21 
ROOT
HETATM    1  C   UNL     1       5.822  27.362  55.061  1.00  0.00     0.087 C 
HETATM    2  C   UNL     1       7.306  27.411  55.471  1.00  0.00     0.045 C 
HETATM    3  C   UNL     1       7.868  28.826  55.365  1.00  0.00     0.126 C 
HETATM    4  N   UNL     1       7.055  29.739  56.184  1.00  0.00    -0.366 N 
HETATM    5  C   UNL     1       5.651  29.793  55.759  1.00  0.00     0.126 C 
HETATM    6  C   UNL     1       5.023  28.402  55.864  1.00  0.00     0.045 C 
ENDROOT
BRANCH   1   7
HETATM    7  N   UNL     1       5.612  27.561  53.623  1.00  0.00    -0.352 N 
HETATM    8  C   UNL     1       5.618  26.512  52.722  1.00  0.00     0.252 C 
HETATM    9  O   UNL     1       5.851  25.351  53.038  1.00  0.00    -0.268 OA
HETATM   10  H   UNL     1       5.074  28.373  53.351  1.00  0.00     0.163 HD
BRANCH   8  11
HETATM   11  C   UNL     1       5.299  26.854  51.306  1.00  0.00     0.037 A 
HETATM   12  C   UNL     1       4.628  25.960  50.458  1.00  0.00     0.054 A 
HETATM   13  C   UNL     1       4.347  26.330  49.141  1.00  0.00     0.071 A 
HETATM   14  C   UNL     1       4.719  27.599  48.681  1.00  0.00     0.073 A 
HETATM   15  C   UNL     1       5.356  28.506  49.527  1.00  0.00     0.071 A 
HETATM   16  C   UNL     1       5.650  28.126  50.837  1.00  0.00     0.054 A 
BRANCH  13  17
HETATM   17  O   UNL     1       3.716  25.553  48.207  1.00  0.00    -0.356 OA
HETATM   18  C   UNL     1       2.879  26.215  47.267  1.00  0.00     0.210 C 
ENDBRANCH  13  17
BRANCH  15  19
HETATM   19  O   UNL     1       5.745  29.775  49.197  1.00  0.00    -0.356 OA
HETATM   20  C   UNL     1       5.035  30.843  49.813  1.00  0.00     0.210 C 
ENDBRANCH  15  19
ENDBRANCH   8  11
ENDBRANCH   1   7
BRANCH   4  21
HETATM   21  C   UNL     1       7.382  30.026  57.484  1.00  0.00     0.121 A 
HETATM   22  N   UNL     1       8.373  29.379  58.176  1.00  0.00    -0.262 N 
HETATM   23  H   UNL     1       8.981  28.643  57.842  1.00  0.00     0.191 HD
HETATM   24  N   UNL     1       8.543  29.805  59.437  1.00  0.00    -0.173 NA
HETATM   25  C   UNL     1       7.662  30.808  59.574  1.00  0.00     0.090 A 
HETATM   26  C   UNL     1       6.917  30.972  58.373  1.00  0.00     0.084 A 
BRANCH  25  27
HETATM   27  C   UNL     1       7.554  31.573  60.822  1.00  0.00    -0.005 A 
HETATM   28  C   UNL     1       8.509  31.437  61.842  1.00  0.00     0.015 A 
HETATM   29  C   UNL     1       8.396  32.169  63.029  1.00  0.00     0.024 A 
HETATM   30  C   UNL     1       7.326  33.043  63.207  1.00  0.00     0.034 A 
HETATM   31 CL   UNL     1       7.189  33.942  64.666  1.00  0.00    -0.084 Cl
HETATM   32  C   UNL     1       6.366  33.190  62.209  1.00  0.00     0.024 A 
HETATM   33  C   UNL     1       6.481  32.456  61.024  1.00  0.00     0.015 A 
ENDBRANCH  25  27
ENDBRANCH   4  21
TORSDOF 6
ENDMDL
MODEL 7
REMARK VINA RESULT:      -8.7      5.104     11.284
REMARK  6 active torsions:
REMARK  status: ('A' for Active; 'I' for Inactive)
REMARK    1  A    between atoms: O_2  and  C_3 
REMARK    2  A    between atoms: C_5  and  O_6 
REMARK    3  A    between atoms: C_9  and  C_10 
REMARK       I    between atoms: C_10  and  N_11 
REMARK    4  A    between atoms: N_11  and  C_12 
REMARK    5  A    between atoms: N_15  and  C_16 
REMARK    6  A    between atoms: C_20  and  C_21 
ROOT
HETATM    1  C   UNL     1       7.258  27.112  57.434  1.00  0.00     0.087 C 
HETATM    2  C   UNL     1       8.235  28.301  57.500  1.00  0.00     0.045 C 
HETATM    3  C   UNL     1       7.919  29.345  56.433  1.00  0.00     0.126 C 
HETATM    4  N   UNL     1       6.524  29.790  56.581  1.00  0.00    -0.366 N 
HETATM    5  C   UNL     1       5.556  28.698  56.424  1.00  0.00     0.126 C 
HETATM    6  C   UNL     1       5.808  27.624  57.485  1.00  0.00     0.045 C 
ENDROOT
BRANCH   1   7
HETATM    7  N   UNL     1       7.455  26.266  56.251  1.00  0.00    -0.352 N 
HETATM    8  C   UNL     1       7.947  24.977  56.338  1.00  0.00     0.252 C 
HETATM    9  O   UNL     1       8.305  24.459  57.388  1.00  0.00    -0.268 OA
HETATM   10  H   UNL     1       6.871  26.463  55.450  1.00  0.00     0.163 HD
BRANCH   8  11
HETATM   11  C   UNL     1       8.007  24.205  55.063  1.00  0.00     0.037 A 
HETATM   12  C   UNL     1       8.314  22.837  55.036  1.00  0.00     0.054 A 
HETATM   13  C   UNL     1       8.352  22.157  53.817  1.00  0.00     0.071 A 
HETATM   14  C   UNL     1       8.064  22.841  52.630  1.00  0.00     0.073 A 
HETATM   15  C   UNL     1       7.725  24.194  52.651  1.00  0.00     0.071 A 
HETATM   16  C   UNL     1       7.705  24.873  53.870  1.00  0.00     0.054 A 
BRANCH  13  17
HETATM   17  O   UNL     1       8.652  20.832  53.647  1.00  0.00    -0.356 OA
HETATM   18  C   UNL     1       8.763  20.032  54.818  1.00  0.00     0.210 C 
ENDBRANCH  13  17
BRANCH  15  19
HETATM   19  O   UNL     1       7.404  24.958  51.563  1.00  0.00    -0.356 OA
HETATM   20  C   UNL     1       6.272  25.810  51.690  1.00  0.00     0.210 C 
ENDBRANCH  15  19
ENDBRANCH   8  11
ENDBRANCH   1   7
BRANCH   4  21
HETATM   21  C   UNL     1       6.193  30.888  57.330  1.00  0.00     0.121 A 
HETATM   22  N   UNL     1       5.521  31.973  56.827  1.00  0.00    -0.262 N 
HETATM   23  H   UNL     1       5.180  32.106  55.884  1.00  0.00     0.191 HD
HETATM   24  N   UNL     1       5.288  32.948  57.719  1.00  0.00    -0.173 NA
HETATM   25  C   UNL     1       5.782  32.473  58.872  1.00  0.00     0.090 A 
HETATM   26  C   UNL     1       6.360  31.189  58.665  1.00  0.00     0.084 A 
BRANCH  25  27
HETATM   27  C   UNL     1       5.696  33.239  60.121  1.00  0.00    -0.005 A 
HETATM   28  C   UNL     1       4.673  34.180  60.326  1.00  0.00     0.015 A 
HETATM   29  C   UNL     1       4.600  34.906  61.520  1.00  0.00     0.024 A 
HETATM   30  C   UNL     1       5.549  34.699  62.518  1.00  0.00     0.034 A 
HETATM   31 CL   UNL     1       5.456  35.593  63.984  1.00  0.00    -0.084 Cl
HETATM   32  C   UNL     1       6.572  33.774  62.333  1.00  0.00     0.024 A 
HETATM   33  C   UNL     1       6.645  33.049  61.139  1.00  0.00     0.015 A 
ENDBRANCH  25  27
ENDBRANCH   4  21
TORSDOF 6
ENDMDL
MODEL 8
REMARK VINA RESULT:      -8.7      5.634     11.275
REMARK  6 active torsions:
REMARK  status: ('A' for Active; 'I' for Inactive)
REMARK    1  A    between atoms: O_2  and  C_3 
REMARK    2  A    between atoms: C_5  and  O_6 
REMARK    3  A    between atoms: C_9  and  C_10 
REMARK       I    between atoms: C_10  and  N_11 
REMARK    4  A    between atoms: N_11  and  C_12 
REMARK    5  A    between atoms: N_15  and  C_16 
REMARK    6  A    between atoms: C_20  and  C_21 
ROOT
HETATM    1  C   UNL     1       5.982  28.185  56.713  1.00  0.00     0.087 C 
HETATM    2  C   UNL     1       7.424  28.253  57.251  1.00  0.00     0.045 C 
HETATM    3  C   UNL     1       8.002  29.660  57.124  1.00  0.00     0.126 C 
HETATM    4  N   UNL     1       7.125  30.616  57.819  1.00  0.00    -0.366 N 
HETATM    5  C   UNL     1       5.765  30.650  57.267  1.00  0.00     0.126 C 
HETATM    6  C   UNL     1       5.121  29.267  57.386  1.00  0.00     0.045 C 
ENDROOT
BRANCH   1   7
HETATM    7  N   UNL     1       5.904  28.310  55.253  1.00  0.00    -0.352 N 
HETATM    8  C   UNL     1       5.597  27.239  54.435  1.00  0.00     0.252 C 
HETATM    9  O   UNL     1       5.421  26.100  54.849  1.00  0.00    -0.268 OA
HETATM   10  H   UNL     1       5.675  29.225  54.887  1.00  0.00     0.163 HD
BRANCH   8  11
HETATM   11  C   UNL     1       5.462  27.536  52.979  1.00  0.00     0.037 A 
HETATM   12  C   UNL     1       5.070  26.558  52.053  1.00  0.00     0.054 A 
HETATM   13  C   UNL     1       4.952  26.887  50.702  1.00  0.00     0.071 A 
HETATM   14  C   UNL     1       5.207  28.198  50.281  1.00  0.00     0.073 A 
HETATM   15  C   UNL     1       5.565  29.185  51.199  1.00  0.00     0.071 A 
HETATM   16  C   UNL     1       5.698  28.847  52.546  1.00  0.00     0.054 A 
BRANCH  13  17
HETATM   17  O   UNL     1       4.595  26.031  49.696  1.00  0.00    -0.356 OA
HETATM   18  C   UNL     1       3.820  26.565  48.629  1.00  0.00     0.210 C 
ENDBRANCH  13  17
BRANCH  15  19
HETATM   19  O   UNL     1       5.815  30.498  50.909  1.00  0.00    -0.356 OA
HETATM   20  C   UNL     1       5.933  30.838  49.533  1.00  0.00     0.210 C 
ENDBRANCH  15  19
ENDBRANCH   8  11
ENDBRANCH   1   7
BRANCH   4  21
HETATM   21  C   UNL     1       7.336  30.969  59.126  1.00  0.00     0.121 A 
HETATM   22  N   UNL     1       8.505  30.720  59.798  1.00  0.00    -0.262 N 
HETATM   23  H   UNL     1       9.339  30.274  59.443  1.00  0.00     0.191 HD
HETATM   24  N   UNL     1       8.518  31.145  61.072  1.00  0.00    -0.173 NA
HETATM   25  C   UNL     1       7.328  31.743  61.238  1.00  0.00     0.090 A 
HETATM   26  C   UNL     1       6.561  31.648  60.042  1.00  0.00     0.084 A 
BRANCH  25  27
HETATM   27  C   UNL     1       6.956  32.378  62.507  1.00  0.00    -0.005 A 
HETATM   28  C   UNL     1       5.610  32.601  62.841  1.00  0.00     0.015 A 
HETATM   29  C   UNL     1       5.266  33.208  64.054  1.00  0.00     0.024 A 
HETATM   30  C   UNL     1       6.265  33.598  64.943  1.00  0.00     0.034 A 
HETATM   31 CL   UNL     1       5.839  34.344  66.433  1.00  0.00    -0.084 Cl
HETATM   32  C   UNL     1       7.605  33.390  64.630  1.00  0.00     0.024 A 
HETATM   33  C   UNL     1       7.947  32.783  63.416  1.00  0.00     0.015 A 
ENDBRANCH  25  27
ENDBRANCH   4  21
TORSDOF 6
ENDMDL
MODEL 9
REMARK VINA RESULT:      -8.7      3.270      3.740
REMARK  6 active torsions:
REMARK  status: ('A' for Active; 'I' for Inactive)
REMARK    1  A    between atoms: O_2  and  C_3 
REMARK    2  A    between atoms: C_5  and  O_6 
REMARK    3  A    between atoms: C_9  and  C_10 
REMARK       I    between atoms: C_10  and  N_11 
REMARK    4  A    between atoms: N_11  and  C_12 
REMARK    5  A    between atoms: N_15  and  C_16 
REMARK    6  A    between atoms: C_20  and  C_21 
ROOT
HETATM    1  C   UNL     1       6.614  30.908  57.502  1.00  0.00     0.087 C 
HETATM    2  C   UNL     1       7.280  29.532  57.315  1.00  0.00     0.045 C 
HETATM    3  C   UNL     1       6.288  28.395  57.550  1.00  0.00     0.126 C 
HETATM    4  N   UNL     1       5.133  28.559  56.653  1.00  0.00    -0.366 N 
HETATM    5  C   UNL     1       4.413  29.819  56.870  1.00  0.00     0.126 C 
HETATM    6  C   UNL     1       5.353  31.002  56.627  1.00  0.00     0.045 C 
ENDROOT
BRANCH   1   7
HETATM    7  N   UNL     1       6.285  31.207  58.901  1.00  0.00    -0.352 N 
HETATM    8  C   UNL     1       7.126  31.938  59.718  1.00  0.00     0.252 C 
HETATM    9  O   UNL     1       8.226  32.346  59.365  1.00  0.00    -0.268 OA
HETATM   10  H   UNL     1       5.303  31.235  59.140  1.00  0.00     0.163 HD
BRANCH   8  11
HETATM   11  C   UNL     1       6.618  32.242  61.088  1.00  0.00     0.037 A 
HETATM   12  C   UNL     1       7.483  32.482  62.166  1.00  0.00     0.054 A 
HETATM   13  C   UNL     1       6.958  32.767  63.427  1.00  0.00     0.071 A 
HETATM   14  C   UNL     1       5.571  32.831  63.605  1.00  0.00     0.073 A 
HETATM   15  C   UNL     1       4.704  32.626  62.531  1.00  0.00     0.071 A 
HETATM   16  C   UNL     1       5.233  32.325  61.276  1.00  0.00     0.054 A 
BRANCH  13  17
HETATM   17  O   UNL     1       7.684  33.006  64.563  1.00  0.00    -0.356 OA
HETATM   18  C   UNL     1       7.042  33.726  65.608  1.00  0.00     0.210 C 
ENDBRANCH  13  17
BRANCH  15  19
HETATM   19  O   UNL     1       3.339  32.685  62.580  1.00  0.00    -0.356 OA
HETATM   20  C   UNL     1       2.733  33.884  62.111  1.00  0.00     0.210 C 
ENDBRANCH  15  19
ENDBRANCH   8  11
ENDBRANCH   1   7
BRANCH   4  21
HETATM   21  C   UNL     1       5.082  27.951  55.426  1.00  0.00     0.121 A 
HETATM   22  N   UNL     1       5.248  26.602  55.242  1.00  0.00    -0.262 N 
HETATM   23  H   UNL     1       5.410  25.898  55.948  1.00  0.00     0.191 HD
HETATM   24  N   UNL     1       5.161  26.198  53.965  1.00  0.00    -0.173 NA
HETATM   25  C   UNL     1       4.879  27.316  53.278  1.00  0.00     0.090 A 
HETATM   26  C   UNL     1       4.826  28.432  54.160  1.00  0.00     0.084 A 
BRANCH  25  27
HETATM   27  C   UNL     1       4.671  27.296  51.825  1.00  0.00    -0.005 A 
HETATM   28  C   UNL     1       4.940  26.143  51.070  1.00  0.00     0.015 A 
HETATM   29  C   UNL     1       4.739  26.134  49.685  1.00  0.00     0.024 A 
HETATM   30  C   UNL     1       4.270  27.278  49.043  1.00  0.00     0.034 A 
HETATM   31 CL   UNL     1       4.025  27.263  47.341  1.00  0.00    -0.084 Cl
HETATM   32  C   UNL     1       4.001  28.432  49.774  1.00  0.00     0.024 A 
HETATM   33  C   UNL     1       4.203  28.439  51.158  1.00  0.00     0.015 A 
ENDBRANCH  25  27
ENDBRANCH   4  21
TORSDOF 6
ENDMDL
MODEL 10
REMARK VINA RESULT:      -8.6      5.089     11.491
REMARK  6 active torsions:
REMARK  status: ('A' for Active; 'I' for Inactive)
REMARK    1  A    between atoms: O_2  and  C_3 
REMARK    2  A    between atoms: C_5  and  O_6 
REMARK    3  A    between atoms: C_9  and  C_10 
REMARK       I    between atoms: C_10  and  N_11 
REMARK    4  A    between atoms: N_11  and  C_12 
REMARK    5  A    between atoms: N_15  and  C_16 
REMARK    6  A    between atoms: C_20  and  C_21 
ROOT
HETATM    1  C   UNL     1       6.942  27.411  57.511  1.00  0.00     0.087 C 
HETATM    2  C   UNL     1       7.980  28.522  57.755  1.00  0.00     0.045 C 
HETATM    3  C   UNL     1       7.831  29.657  56.746  1.00  0.00     0.126 C 
HETATM    4  N   UNL     1       6.459  30.185  56.799  1.00  0.00    -0.366 N 
HETATM    5  C   UNL     1       5.444  29.175  56.474  1.00  0.00     0.126 C 
HETATM    6  C   UNL     1       5.528  28.016  57.470  1.00  0.00     0.045 C 
ENDROOT
BRANCH   1   7
HETATM    7  N   UNL     1       7.198  26.637  56.291  1.00  0.00    -0.352 N 
HETATM    8  C   UNL     1       7.571  25.307  56.324  1.00  0.00     0.252 C 
HETATM    9  O   UNL     1       7.768  24.685  57.360  1.00  0.00    -0.268 OA
HETATM   10  H   UNL     1       6.723  26.942  55.452  1.00  0.00     0.163 HD
BRANCH   8  11
HETATM   11  C   UNL     1       7.707  24.625  55.003  1.00  0.00     0.037 A 
HETATM   12  C   UNL     1       7.326  25.245  53.804  1.00  0.00     0.054 A 
HETATM   13  C   UNL     1       7.478  24.568  52.593  1.00  0.00     0.071 A 
HETATM   14  C   UNL     1       8.030  23.280  52.581  1.00  0.00     0.073 A 
HETATM   15  C   UNL     1       8.442  22.670  53.765  1.00  0.00     0.071 A 
HETATM   16  C   UNL     1       8.271  23.344  54.975  1.00  0.00     0.054 A 
BRANCH  13  17
HETATM   17  O   UNL     1       7.135  25.046  51.357  1.00  0.00    -0.356 OA
HETATM   18  C   UNL     1       6.012  25.916  51.283  1.00  0.00     0.210 C 
ENDBRANCH  13  17
BRANCH  15  19
HETATM   19  O   UNL     1       9.011  21.431  53.874  1.00  0.00    -0.356 OA
HETATM   20  C   UNL     1       8.550  20.434  52.970  1.00  0.00     0.210 C 
ENDBRANCH  15  19
ENDBRANCH   8  11
ENDBRANCH   1   7
BRANCH   4  21
HETATM   21  C   UNL     1       6.126  31.249  57.596  1.00  0.00     0.121 A 
HETATM   22  N   UNL     1       5.455  32.355  57.140  1.00  0.00    -0.262 N 
HETATM   23  H   UNL     1       5.116  32.530  56.204  1.00  0.00     0.191 HD
HETATM   24  N   UNL     1       5.220  33.290  58.075  1.00  0.00    -0.173 NA
HETATM   25  C   UNL     1       5.712  32.763  59.207  1.00  0.00     0.090 A 
HETATM   26  C   UNL     1       6.290  31.489  58.943  1.00  0.00     0.084 A 
BRANCH  25  27
HETATM   27  C   UNL     1       5.623  33.473  60.488  1.00  0.00    -0.005 A 
HETATM   28  C   UNL     1       4.630  34.439  60.716  1.00  0.00     0.015 A 
HETATM   29  C   UNL     1       4.554  35.111  61.941  1.00  0.00     0.024 A 
HETATM   30  C   UNL     1       5.471  34.824  62.949  1.00  0.00     0.034 A 
HETATM   31 CL   UNL     1       5.376  35.651  64.453  1.00  0.00    -0.084 Cl
HETATM   32  C   UNL     1       6.466  33.872  62.742  1.00  0.00     0.024 A 
HETATM   33  C   UNL     1       6.541  33.202  61.516  1.00  0.00     0.015 A 
ENDBRANCH  25  27
ENDBRANCH   4  21
TORSDOF 6
ENDMDL
