MODEL 1
REMARK VINA RESULT:      -7.9      0.000      0.000
REMARK  6 active torsions:
REMARK  status: ('A' for Active; 'I' for Inactive)
REMARK    1  A    between atoms: C_4  and  C_5 
REMARK    2  A    between atoms: C_7  and  N_8 
REMARK    3  A    between atoms: N_8  and  C_9 
REMARK    4  A    between atoms: C_9  and  C_10 
REMARK    5  A    between atoms: C_10  and  C_11 
REMARK    6  A    between atoms: C_11  and  N_12 
ROOT
HETATM    1  C   UNL     1       7.132  23.964  54.834  1.00  0.00     0.162 C 
HETATM    2  N   UNL     1       6.195  24.514  54.027  1.00  0.00    -0.216 NA
HETATM    3  C   UNL     1       5.659  25.685  54.442  1.00  0.00     0.118 C 
HETATM    4  C   UNL     1       6.192  26.422  55.521  1.00  0.00     0.033 A 
HETATM    5  C   UNL     1       7.216  25.787  56.227  1.00  0.00     0.072 A 
HETATM    6  N   UNL     1       7.661  24.573  55.903  1.00  0.00    -0.228 NA
HETATM    7  C   UNL     1       5.780  27.721  55.923  1.00  0.00     0.017 A 
HETATM    8  C   UNL     1       6.374  28.357  57.011  1.00  0.00     0.001 A 
HETATM    9  C   UNL     1       7.382  27.711  57.711  1.00  0.00     0.002 A 
HETATM   10  C   UNL     1       7.792  26.437  57.312  1.00  0.00     0.032 A 
ENDROOT
BRANCH   3  11
HETATM   11  N   UNL     1       4.594  26.238  53.690  1.00  0.00    -0.277 NA
HETATM   12  H   UNL     1       3.845  25.539  53.671  1.00  0.00     0.129 HD
BRANCH  11  13
HETATM   13  C   UNL     1       4.877  26.683  52.328  1.00  0.00     0.095 C 
BRANCH  13  14
HETATM   14  C   UNL     1       5.029  28.203  52.292  1.00  0.00     0.042 C 
BRANCH  14  15
HETATM   15  C   UNL     1       3.838  28.991  52.819  1.00  0.00     0.230 C 
BRANCH  15  16
HETATM   16  N   UNL     1       2.561  28.452  52.311  1.00  0.00    -0.079 N 
HETATM   17  H   UNL     1       1.968  29.233  51.961  1.00  0.00     0.274 HD
HETATM   18  H   UNL     1       2.684  27.783  51.545  1.00  0.00     0.274 HD
HETATM   19  H   UNL     1       2.019  28.001  53.057  1.00  0.00     0.274 HD
ENDBRANCH  15  16
ENDBRANCH  14  15
ENDBRANCH  13  14
ENDBRANCH  11  13
ENDBRANCH   3  11
BRANCH   1  20
HETATM   20  C   UNL     1       7.622  22.603  54.528  1.00  0.00     0.012 A 
HETATM   21  C   UNL     1       7.803  22.143  53.210  1.00  0.00     0.015 A 
HETATM   22  C   UNL     1       8.282  20.855  52.942  1.00  0.00     0.001 A 
HETATM   23  C   UNL     1       8.572  19.987  53.990  1.00  0.00     0.000 A 
HETATM   24  C   UNL     1       8.385  20.404  55.302  1.00  0.00     0.001 A 
HETATM   25  C   UNL     1       7.921  21.696  55.565  1.00  0.00     0.015 A 
ENDBRANCH   1  20
TORSDOF 6
ENDMDL
MODEL 2
REMARK VINA RESULT:      -7.8      0.906      1.277
REMARK  6 active torsions:
REMARK  status: ('A' for Active; 'I' for Inactive)
REMARK    1  A    between atoms: C_4  and  C_5 
REMARK    2  A    between atoms: C_7  and  N_8 
REMARK    3  A    between atoms: N_8  and  C_9 
REMARK    4  A    between atoms: C_9  and  C_10 
REMARK    5  A    between atoms: C_10  and  C_11 
REMARK    6  A    between atoms: C_11  and  N_12 
ROOT
HETATM    1  C   UNL     1       7.035  24.325  54.919  1.00  0.00     0.162 C 
HETATM    2  N   UNL     1       6.047  24.904  54.196  1.00  0.00    -0.216 NA
HETATM    3  C   UNL     1       5.583  26.089  54.657  1.00  0.00     0.118 C 
HETATM    4  C   UNL     1       6.229  26.807  55.686  1.00  0.00     0.033 A 
HETATM    5  C   UNL     1       7.291  26.141  56.301  1.00  0.00     0.072 A 
HETATM    6  N   UNL     1       7.672  24.916  55.938  1.00  0.00    -0.228 NA
HETATM    7  C   UNL     1       5.890  28.116  56.123  1.00  0.00     0.017 A 
HETATM    8  C   UNL     1       6.594  28.732  57.155  1.00  0.00     0.001 A 
HETATM    9  C   UNL     1       7.640  28.055  57.765  1.00  0.00     0.002 A 
HETATM   10  C   UNL     1       7.977  26.771  57.332  1.00  0.00     0.032 A 
ENDROOT
BRANCH   3  11
HETATM   11  N   UNL     1       4.474  26.673  54.000  1.00  0.00    -0.277 NA
HETATM   12  H   UNL     1       3.971  25.917  53.528  1.00  0.00     0.129 HD
BRANCH  11  13
HETATM   13  C   UNL     1       4.732  27.752  53.049  1.00  0.00     0.095 C 
BRANCH  13  14
HETATM   14  C   UNL     1       5.711  27.283  51.974  1.00  0.00     0.042 C 
BRANCH  14  15
HETATM   15  C   UNL     1       5.106  26.436  50.863  1.00  0.00     0.230 C 
BRANCH  15  16
HETATM   16  N   UNL     1       4.619  25.139  51.371  1.00  0.00    -0.079 N 
HETATM   17  H   UNL     1       5.388  24.439  51.330  1.00  0.00     0.274 HD
HETATM   18  H   UNL     1       4.287  25.186  52.339  1.00  0.00     0.274 HD
HETATM   19  H   UNL     1       3.865  24.763  50.784  1.00  0.00     0.274 HD
ENDBRANCH  15  16
ENDBRANCH  14  15
ENDBRANCH  13  14
ENDBRANCH  11  13
ENDBRANCH   3  11
BRANCH   1  20
HETATM   20  C   UNL     1       7.458  22.952  54.571  1.00  0.00     0.012 A 
HETATM   21  C   UNL     1       7.691  22.546  53.244  1.00  0.00     0.015 A 
HETATM   22  C   UNL     1       8.106  21.244  52.937  1.00  0.00     0.001 A 
HETATM   23  C   UNL     1       8.276  20.309  53.952  1.00  0.00     0.000 A 
HETATM   24  C   UNL     1       8.033  20.672  55.272  1.00  0.00     0.001 A 
HETATM   25  C   UNL     1       7.635  21.978  55.575  1.00  0.00     0.015 A 
ENDBRANCH   1  20
TORSDOF 6
ENDMDL
MODEL 3
REMARK VINA RESULT:      -7.8      1.091      1.718
REMARK  6 active torsions:
REMARK  status: ('A' for Active; 'I' for Inactive)
REMARK    1  A    between atoms: C_4  and  C_5 
REMARK    2  A    between atoms: C_7  and  N_8 
REMARK    3  A    between atoms: N_8  and  C_9 
REMARK    4  A    between atoms: C_9  and  C_10 
REMARK    5  A    between atoms: C_10  and  C_11 
REMARK    6  A    between atoms: C_11  and  N_12 
ROOT
HETATM    1  C   UNL     1       7.176  23.893  54.893  1.00  0.00     0.162 C 
HETATM    2  N   UNL     1       6.226  24.411  54.079  1.00  0.00    -0.216 NA
HETATM    3  C   UNL     1       5.677  25.585  54.471  1.00  0.00     0.118 C 
HETATM    4  C   UNL     1       6.208  26.355  55.527  1.00  0.00     0.033 A 
HETATM    5  C   UNL     1       7.245  25.750  56.241  1.00  0.00     0.072 A 
HETATM    6  N   UNL     1       7.704  24.535  55.943  1.00  0.00    -0.228 NA
HETATM    7  C   UNL     1       5.780  27.657  55.901  1.00  0.00     0.017 A 
HETATM    8  C   UNL     1       6.373  28.327  56.969  1.00  0.00     0.001 A 
HETATM    9  C   UNL     1       7.395  27.711  57.678  1.00  0.00     0.002 A 
HETATM   10  C   UNL     1       7.819  26.434  57.307  1.00  0.00     0.032 A 
ENDROOT
BRANCH   3  11
HETATM   11  N   UNL     1       4.600  26.104  53.714  1.00  0.00    -0.277 NA
HETATM   12  H   UNL     1       4.002  25.313  53.459  1.00  0.00     0.129 HD
BRANCH  11  13
HETATM   13  C   UNL     1       4.916  26.878  52.516  1.00  0.00     0.095 C 
BRANCH  13  14
HETATM   14  C   UNL     1       5.105  25.945  51.320  1.00  0.00     0.042 C 
BRANCH  14  15
HETATM   15  C   UNL     1       4.887  26.580  49.954  1.00  0.00     0.230 C 
BRANCH  15  16
HETATM   16  N   UNL     1       3.791  25.923  49.216  1.00  0.00    -0.079 N 
HETATM   17  H   UNL     1       3.189  26.645  48.770  1.00  0.00     0.274 HD
HETATM   18  H   UNL     1       4.124  25.293  48.480  1.00  0.00     0.274 HD
HETATM   19  H   UNL     1       3.176  25.394  49.846  1.00  0.00     0.274 HD
ENDBRANCH  15  16
ENDBRANCH  14  15
ENDBRANCH  13  14
ENDBRANCH  11  13
ENDBRANCH   3  11
BRANCH   1  20
HETATM   20  C   UNL     1       7.683  22.532  54.616  1.00  0.00     0.012 A 
HETATM   21  C   UNL     1       7.979  21.612  55.639  1.00  0.00     0.015 A 
HETATM   22  C   UNL     1       8.444  20.322  55.354  1.00  0.00     0.001 A 
HETATM   23  C   UNL     1       8.646  19.930  54.035  1.00  0.00     0.000 A 
HETATM   24  C   UNL     1       8.383  20.822  53.002  1.00  0.00     0.001 A 
HETATM   25  C   UNL     1       7.903  22.103  53.291  1.00  0.00     0.015 A 
ENDBRANCH   1  20
TORSDOF 6
ENDMDL
MODEL 4
REMARK VINA RESULT:      -7.8      1.386      1.589
REMARK  6 active torsions:
REMARK  status: ('A' for Active; 'I' for Inactive)
REMARK    1  A    between atoms: C_4  and  C_5 
REMARK    2  A    between atoms: C_7  and  N_8 
REMARK    3  A    between atoms: N_8  and  C_9 
REMARK    4  A    between atoms: C_9  and  C_10 
REMARK    5  A    between atoms: C_10  and  C_11 
REMARK    6  A    between atoms: C_11  and  N_12 
ROOT
HETATM    1  C   UNL     1       6.821  23.809  54.393  1.00  0.00     0.162 C 
HETATM    2  N   UNL     1       6.164  24.241  53.292  1.00  0.00    -0.216 NA
HETATM    3  C   UNL     1       5.434  25.372  53.435  1.00  0.00     0.118 C 
HETATM    4  C   UNL     1       5.525  26.193  54.580  1.00  0.00     0.033 A 
HETATM    5  C   UNL     1       6.304  25.679  55.620  1.00  0.00     0.072 A 
HETATM    6  N   UNL     1       6.921  24.501  55.535  1.00  0.00    -0.228 NA
HETATM    7  C   UNL     1       4.906  27.461  54.742  1.00  0.00     0.017 A 
HETATM    8  C   UNL     1       5.059  28.187  55.922  1.00  0.00     0.001 A 
HETATM    9  C   UNL     1       5.826  27.661  56.952  1.00  0.00     0.002 A 
HETATM   10  C   UNL     1       6.439  26.417  56.789  1.00  0.00     0.032 A 
ENDROOT
BRANCH   3  11
HETATM   11  N   UNL     1       4.638  25.797  52.345  1.00  0.00    -0.277 NA
HETATM   12  H   UNL     1       3.861  25.135  52.263  1.00  0.00     0.129 HD
BRANCH  11  13
HETATM   13  C   UNL     1       5.285  25.949  51.043  1.00  0.00     0.095 C 
BRANCH  13  14
HETATM   14  C   UNL     1       5.018  27.345  50.482  1.00  0.00     0.042 C 
BRANCH  14  15
HETATM   15  C   UNL     1       4.398  27.383  49.092  1.00  0.00     0.230 C 
BRANCH  15  16
HETATM   16  N   UNL     1       2.932  27.214  49.145  1.00  0.00    -0.079 N 
HETATM   17  H   UNL     1       2.607  26.726  48.286  1.00  0.00     0.274 HD
HETATM   18  H   UNL     1       2.621  26.666  49.954  1.00  0.00     0.274 HD
HETATM   19  H   UNL     1       2.448  28.119  49.156  1.00  0.00     0.274 HD
ENDBRANCH  15  16
ENDBRANCH  14  15
ENDBRANCH  13  14
ENDBRANCH  11  13
ENDBRANCH   3  11
BRANCH   1  20
HETATM   20  C   UNL     1       7.486  22.489  54.350  1.00  0.00     0.012 A 
HETATM   21  C   UNL     1       7.891  21.885  53.145  1.00  0.00     0.015 A 
HETATM   22  C   UNL     1       8.533  20.640  53.128  1.00  0.00     0.001 A 
HETATM   23  C   UNL     1       8.766  19.959  54.317  1.00  0.00     0.000 A 
HETATM   24  C   UNL     1       8.359  20.519  55.523  1.00  0.00     0.001 A 
HETATM   25  C   UNL     1       7.733  21.769  55.537  1.00  0.00     0.015 A 
ENDBRANCH   1  20
TORSDOF 6
ENDMDL
MODEL 5
REMARK VINA RESULT:      -7.7      1.660      3.702
REMARK  6 active torsions:
REMARK  status: ('A' for Active; 'I' for Inactive)
REMARK    1  A    between atoms: C_4  and  C_5 
REMARK    2  A    between atoms: C_7  and  N_8 
REMARK    3  A    between atoms: N_8  and  C_9 
REMARK    4  A    between atoms: C_9  and  C_10 
REMARK    5  A    between atoms: C_10  and  C_11 
REMARK    6  A    between atoms: C_11  and  N_12 
ROOT
HETATM    1  C   UNL     1       6.843  23.774  54.110  1.00  0.00     0.162 C 
HETATM    2  N   UNL     1       6.610  24.488  55.236  1.00  0.00    -0.216 NA
HETATM    3  C   UNL     1       6.151  25.749  55.062  1.00  0.00     0.118 C 
HETATM    4  C   UNL     1       5.715  26.231  53.810  1.00  0.00     0.033 A 
HETATM    5  C   UNL     1       5.931  25.368  52.733  1.00  0.00     0.072 A 
HETATM    6  N   UNL     1       6.503  24.173  52.878  1.00  0.00    -0.228 NA
HETATM    7  C   UNL     1       5.090  27.485  53.575  1.00  0.00     0.017 A 
HETATM    8  C   UNL     1       4.702  27.863  52.291  1.00  0.00     0.001 A 
HETATM    9  C   UNL     1       4.932  27.002  51.228  1.00  0.00     0.002 A 
HETATM   10  C   UNL     1       5.541  25.767  51.460  1.00  0.00     0.032 A 
ENDROOT
BRANCH   3  11
HETATM   11  N   UNL     1       6.004  26.571  56.205  1.00  0.00    -0.277 NA
HETATM   12  H   UNL     1       6.001  27.542  55.880  1.00  0.00     0.129 HD
BRANCH  11  13
HETATM   13  C   UNL     1       6.978  26.424  57.284  1.00  0.00     0.095 C 
BRANCH  13  14
HETATM   14  C   UNL     1       7.953  27.601  57.277  1.00  0.00     0.042 C 
BRANCH  14  15
HETATM   15  C   UNL     1       7.348  28.949  56.910  1.00  0.00     0.230 C 
BRANCH  15  16
HETATM   16  N   UNL     1       7.571  29.277  55.489  1.00  0.00    -0.079 N 
HETATM   17  H   UNL     1       6.914  30.031  55.199  1.00  0.00     0.274 HD
HETATM   18  H   UNL     1       8.524  29.600  55.296  1.00  0.00     0.274 HD
HETATM   19  H   UNL     1       7.366  28.476  54.880  1.00  0.00     0.274 HD
ENDBRANCH  15  16
ENDBRANCH  14  15
ENDBRANCH  13  14
ENDBRANCH  11  13
ENDBRANCH   3  11
BRANCH   1  20
HETATM   20  C   UNL     1       7.511  22.460  54.228  1.00  0.00     0.012 A 
HETATM   21  C   UNL     1       7.956  21.735  53.107  1.00  0.00     0.015 A 
HETATM   22  C   UNL     1       8.600  20.498  53.242  1.00  0.00     0.001 A 
HETATM   23  C   UNL     1       8.794  19.947  54.504  1.00  0.00     0.000 A 
HETATM   24  C   UNL     1       8.348  20.629  55.630  1.00  0.00     0.001 A 
HETATM   25  C   UNL     1       7.720  21.870  55.491  1.00  0.00     0.015 A 
ENDBRANCH   1  20
TORSDOF 6
ENDMDL
MODEL 6
REMARK VINA RESULT:      -7.4      2.424      6.176
REMARK  6 active torsions:
REMARK  status: ('A' for Active; 'I' for Inactive)
REMARK    1  A    between atoms: C_4  and  C_5 
REMARK    2  A    between atoms: C_7  and  N_8 
REMARK    3  A    between atoms: N_8  and  C_9 
REMARK    4  A    between atoms: C_9  and  C_10 
REMARK    5  A    between atoms: C_10  and  C_11 
REMARK    6  A    between atoms: C_11  and  N_12 
ROOT
HETATM    1  C   UNL     1       8.118  27.929  57.099  1.00  0.00     0.162 C 
HETATM    2  N   UNL     1       7.068  28.016  56.250  1.00  0.00    -0.216 NA
HETATM    3  C   UNL     1       6.702  26.871  55.630  1.00  0.00     0.118 C 
HETATM    4  C   UNL     1       7.213  25.610  56.004  1.00  0.00     0.033 A 
HETATM    5  C   UNL     1       8.237  25.641  56.955  1.00  0.00     0.072 A 
HETATM    6  N   UNL     1       8.694  26.780  57.475  1.00  0.00    -0.228 NA
HETATM    7  C   UNL     1       6.774  24.354  55.504  1.00  0.00     0.017 A 
HETATM    8  C   UNL     1       7.356  23.166  55.940  1.00  0.00     0.001 A 
HETATM    9  C   UNL     1       8.379  23.211  56.876  1.00  0.00     0.002 A 
HETATM   10  C   UNL     1       8.806  24.444  57.373  1.00  0.00     0.032 A 
ENDROOT
BRANCH   3  11
HETATM   11  N   UNL     1       5.685  26.937  54.647  1.00  0.00    -0.277 NA
HETATM   12  H   UNL     1       5.270  26.004  54.581  1.00  0.00     0.129 HD
BRANCH  11  13
HETATM   13  C   UNL     1       6.054  27.401  53.312  1.00  0.00     0.095 C 
BRANCH  13  14
HETATM   14  C   UNL     1       6.394  26.210  52.416  1.00  0.00     0.042 C 
BRANCH  14  15
HETATM   15  C   UNL     1       5.199  25.440  51.870  1.00  0.00     0.230 C 
BRANCH  15  16
HETATM   16  N   UNL     1       4.244  25.087  52.939  1.00  0.00    -0.079 N 
HETATM   17  H   UNL     1       4.216  25.849  53.647  1.00  0.00     0.274 HD
HETATM   18  H   UNL     1       3.290  24.944  52.594  1.00  0.00     0.274 HD
HETATM   19  H   UNL     1       4.539  24.244  53.445  1.00  0.00     0.274 HD
ENDBRANCH  15  16
ENDBRANCH  14  15
ENDBRANCH  13  14
ENDBRANCH  11  13
ENDBRANCH   3  11
BRANCH   1  20
HETATM   20  C   UNL     1       8.678  29.174  57.668  1.00  0.00     0.012 A 
HETATM   21  C   UNL     1       7.994  29.940  58.630  1.00  0.00     0.015 A 
HETATM   22  C   UNL     1       8.548  31.109  59.166  1.00  0.00     0.001 A 
HETATM   23  C   UNL     1       9.793  31.553  58.734  1.00  0.00     0.000 A 
HETATM   24  C   UNL     1      10.485  30.830  57.769  1.00  0.00     0.001 A 
HETATM   25  C   UNL     1       9.935  29.655  57.248  1.00  0.00     0.015 A 
ENDBRANCH   1  20
TORSDOF 6
ENDMDL
MODEL 7
REMARK VINA RESULT:      -7.4      1.661      5.469
REMARK  6 active torsions:
REMARK  status: ('A' for Active; 'I' for Inactive)
REMARK    1  A    between atoms: C_4  and  C_5 
REMARK    2  A    between atoms: C_7  and  N_8 
REMARK    3  A    between atoms: N_8  and  C_9 
REMARK    4  A    between atoms: C_9  and  C_10 
REMARK    5  A    between atoms: C_10  and  C_11 
REMARK    6  A    between atoms: C_11  and  N_12 
ROOT
HETATM    1  C   UNL     1       7.314  26.470  55.072  1.00  0.00     0.162 C 
HETATM    2  N   UNL     1       6.855  26.576  53.803  1.00  0.00    -0.216 NA
HETATM    3  C   UNL     1       7.093  25.520  52.990  1.00  0.00     0.118 C 
HETATM    4  C   UNL     1       7.576  24.286  53.473  1.00  0.00     0.033 A 
HETATM    5  C   UNL     1       7.937  24.275  54.823  1.00  0.00     0.072 A 
HETATM    6  N   UNL     1       7.828  25.352  55.600  1.00  0.00    -0.228 NA
HETATM    7  C   UNL     1       7.713  23.093  52.713  1.00  0.00     0.017 A 
HETATM    8  C   UNL     1       8.209  21.927  53.292  1.00  0.00     0.001 A 
HETATM    9  C   UNL     1       8.574  21.932  54.630  1.00  0.00     0.002 A 
HETATM   10  C   UNL     1       8.433  23.102  55.379  1.00  0.00     0.032 A 
ENDROOT
BRANCH   3  11
HETATM   11  N   UNL     1       6.735  25.633  51.625  1.00  0.00    -0.277 NA
HETATM   12  H   UNL     1       7.225  26.452  51.253  1.00  0.00     0.129 HD
BRANCH  11  13
HETATM   13  C   UNL     1       5.315  25.726  51.295  1.00  0.00     0.095 C 
BRANCH  13  14
HETATM   14  C   UNL     1       5.109  26.681  50.120  1.00  0.00     0.042 C 
BRANCH  14  15
HETATM   15  C   UNL     1       4.870  28.137  50.495  1.00  0.00     0.230 C 
BRANCH  15  16
HETATM   16  N   UNL     1       5.586  28.505  51.733  1.00  0.00    -0.079 N 
HETATM   17  H   UNL     1       4.896  28.711  52.485  1.00  0.00     0.274 HD
HETATM   18  H   UNL     1       6.208  27.764  52.072  1.00  0.00     0.274 HD
HETATM   19  H   UNL     1       6.134  29.363  51.610  1.00  0.00     0.274 HD
ENDBRANCH  15  16
ENDBRANCH  14  15
ENDBRANCH  13  14
ENDBRANCH  11  13
ENDBRANCH   3  11
BRANCH   1  20
HETATM   20  C   UNL     1       7.244  27.656  55.953  1.00  0.00     0.012 A 
HETATM   21  C   UNL     1       6.505  28.805  55.617  1.00  0.00     0.015 A 
HETATM   22  C   UNL     1       6.440  29.912  56.473  1.00  0.00     0.001 A 
HETATM   23  C   UNL     1       7.134  29.903  57.678  1.00  0.00     0.000 A 
HETATM   24  C   UNL     1       7.891  28.791  58.030  1.00  0.00     0.001 A 
HETATM   25  C   UNL     1       7.939  27.682  57.179  1.00  0.00     0.015 A 
ENDBRANCH   1  20
TORSDOF 6
ENDMDL
MODEL 8
REMARK VINA RESULT:      -7.4      9.598     12.229
REMARK  6 active torsions:
REMARK  status: ('A' for Active; 'I' for Inactive)
REMARK    1  A    between atoms: C_4  and  C_5 
REMARK    2  A    between atoms: C_7  and  N_8 
REMARK    3  A    between atoms: N_8  and  C_9 
REMARK    4  A    between atoms: C_9  and  C_10 
REMARK    5  A    between atoms: C_10  and  C_11 
REMARK    6  A    between atoms: C_11  and  N_12 
ROOT
HETATM    1  C   UNL     1       6.695  32.888  63.340  1.00  0.00     0.162 C 
HETATM    2  N   UNL     1       5.414  33.109  62.961  1.00  0.00    -0.216 NA
HETATM    3  C   UNL     1       4.560  33.495  63.937  1.00  0.00     0.118 C 
HETATM    4  C   UNL     1       5.000  33.877  65.222  1.00  0.00     0.033 A 
HETATM    5  C   UNL     1       6.362  33.684  65.467  1.00  0.00     0.072 A 
HETATM    6  N   UNL     1       7.188  33.179  64.550  1.00  0.00    -0.228 NA
HETATM    7  C   UNL     1       4.187  34.430  66.248  1.00  0.00     0.017 A 
HETATM    8  C   UNL     1       4.726  34.768  67.487  1.00  0.00     0.001 A 
HETATM    9  C   UNL     1       6.078  34.560  67.721  1.00  0.00     0.002 A 
HETATM   10  C   UNL     1       6.879  34.023  66.711  1.00  0.00     0.032 A 
ENDROOT
BRANCH   3  11
HETATM   11  N   UNL     1       3.188  33.625  63.612  1.00  0.00    -0.277 NA
HETATM   12  H   UNL     1       2.922  32.784  63.092  1.00  0.00     0.129 HD
BRANCH  11  13
HETATM   13  C   UNL     1       2.771  34.809  62.866  1.00  0.00     0.095 C 
BRANCH  13  14
HETATM   14  C   UNL     1       1.959  34.399  61.638  1.00  0.00     0.042 C 
BRANCH  14  15
HETATM   15  C   UNL     1       2.749  33.713  60.532  1.00  0.00     0.230 C 
BRANCH  15  16
HETATM   16  N   UNL     1       3.022  32.299  60.855  1.00  0.00    -0.079 N 
HETATM   17  H   UNL     1       2.187  31.722  60.625  1.00  0.00     0.274 HD
HETATM   18  H   UNL     1       3.820  31.916  60.337  1.00  0.00     0.274 HD
HETATM   19  H   UNL     1       3.189  32.167  61.859  1.00  0.00     0.274 HD
ENDBRANCH  15  16
ENDBRANCH  14  15
ENDBRANCH  13  14
ENDBRANCH  11  13
ENDBRANCH   3  11
BRANCH   1  20
HETATM   20  C   UNL     1       7.632  32.294  62.361  1.00  0.00     0.012 A 
HETATM   21  C   UNL     1       8.435  31.178  62.664  1.00  0.00     0.015 A 
HETATM   22  C   UNL     1       9.304  30.622  61.718  1.00  0.00     0.001 A 
HETATM   23  C   UNL     1       9.408  31.184  60.450  1.00  0.00     0.000 A 
HETATM   24  C   UNL     1       8.643  32.299  60.126  1.00  0.00     0.001 A 
HETATM   25  C   UNL     1       7.765  32.841  61.069  1.00  0.00     0.015 A 
ENDBRANCH   1  20
TORSDOF 6
ENDMDL
MODEL 9
REMARK VINA RESULT:      -7.2      6.156      8.675
REMARK  6 active torsions:
REMARK  status: ('A' for Active; 'I' for Inactive)
REMARK    1  A    between atoms: C_4  and  C_5 
REMARK    2  A    between atoms: C_7  and  N_8 
REMARK    3  A    between atoms: N_8  and  C_9 
REMARK    4  A    between atoms: C_9  and  C_10 
REMARK    5  A    between atoms: C_10  and  C_11 
REMARK    6  A    between atoms: C_11  and  N_12 
ROOT
HETATM    1  C   UNL     1       8.108  31.483  59.557  1.00  0.00     0.162 C 
HETATM    2  N   UNL     1       6.991  32.103  59.109  1.00  0.00    -0.216 NA
HETATM    3  C   UNL     1       6.206  32.676  60.050  1.00  0.00     0.118 C 
HETATM    4  C   UNL     1       6.622  32.835  61.390  1.00  0.00     0.033 A 
HETATM    5  C   UNL     1       7.836  32.223  61.712  1.00  0.00     0.072 A 
HETATM    6  N   UNL     1       8.553  31.543  60.818  1.00  0.00    -0.228 NA
HETATM    7  C   UNL     1       5.920  33.551  62.397  1.00  0.00     0.017 A 
HETATM    8  C   UNL     1       6.422  33.640  63.694  1.00  0.00     0.001 A 
HETATM    9  C   UNL     1       7.623  33.019  64.004  1.00  0.00     0.002 A 
HETATM   10  C   UNL     1       8.315  32.320  63.013  1.00  0.00     0.032 A 
ENDROOT
BRANCH   3  11
HETATM   11  N   UNL     1       4.971  33.234  59.642  1.00  0.00    -0.277 NA
HETATM   12  H   UNL     1       4.704  33.924  60.350  1.00  0.00     0.129 HD
BRANCH  11  13
HETATM   13  C   UNL     1       3.853  32.323  59.408  1.00  0.00     0.095 C 
BRANCH  13  14
HETATM   14  C   UNL     1       3.648  32.115  57.908  1.00  0.00     0.042 C 
BRANCH  14  15
HETATM   15  C   UNL     1       3.682  30.667  57.438  1.00  0.00     0.230 C 
BRANCH  15  16
HETATM   16  N   UNL     1       4.669  29.872  58.195  1.00  0.00    -0.079 N 
HETATM   17  H   UNL     1       4.193  29.384  58.981  1.00  0.00     0.274 HD
HETATM   18  H   UNL     1       5.137  29.163  57.622  1.00  0.00     0.274 HD
HETATM   19  H   UNL     1       5.384  30.470  58.625  1.00  0.00     0.274 HD
ENDBRANCH  15  16
ENDBRANCH  14  15
ENDBRANCH  13  14
ENDBRANCH  11  13
ENDBRANCH   3  11
BRANCH   1  20
HETATM   20  C   UNL     1       8.909  30.687  58.602  1.00  0.00     0.012 A 
HETATM   21  C   UNL     1       8.452  29.471  58.059  1.00  0.00     0.015 A 
HETATM   22  C   UNL     1       9.220  28.741  57.145  1.00  0.00     0.001 A 
HETATM   23  C   UNL     1      10.478  29.199  56.768  1.00  0.00     0.000 A 
HETATM   24  C   UNL     1      10.967  30.386  57.301  1.00  0.00     0.001 A 
HETATM   25  C   UNL     1      10.189  31.120  58.202  1.00  0.00     0.015 A 
ENDBRANCH   1  20
TORSDOF 6
ENDMDL
MODEL 10
REMARK VINA RESULT:      -7.1      1.921      2.927
REMARK  6 active torsions:
REMARK  status: ('A' for Active; 'I' for Inactive)
REMARK    1  A    between atoms: C_4  and  C_5 
REMARK    2  A    between atoms: C_7  and  N_8 
REMARK    3  A    between atoms: N_8  and  C_9 
REMARK    4  A    between atoms: C_9  and  C_10 
REMARK    5  A    between atoms: C_10  and  C_11 
REMARK    6  A    between atoms: C_11  and  N_12 
ROOT
HETATM    1  C   UNL     1       5.959  25.666  53.909  1.00  0.00     0.162 C 
HETATM    2  N   UNL     1       5.454  26.019  52.704  1.00  0.00    -0.216 NA
HETATM    3  C   UNL     1       4.652  27.109  52.686  1.00  0.00     0.118 C 
HETATM    4  C   UNL     1       4.525  27.974  53.794  1.00  0.00     0.033 A 
HETATM    5  C   UNL     1       5.164  27.545  54.960  1.00  0.00     0.072 A 
HETATM    6  N   UNL     1       5.848  26.403  55.021  1.00  0.00    -0.228 NA
HETATM    7  C   UNL     1       3.822  29.209  53.806  1.00  0.00     0.017 A 
HETATM    8  C   UNL     1       3.756  29.985  54.962  1.00  0.00     0.001 A 
HETATM    9  C   UNL     1       4.385  29.542  56.117  1.00  0.00     0.002 A 
HETATM   10  C   UNL     1       5.081  28.332  56.103  1.00  0.00     0.032 A 
ENDROOT
BRANCH   3  11
HETATM   11  N   UNL     1       4.008  27.447  51.472  1.00  0.00    -0.277 NA
HETATM   12  H   UNL     1       3.238  26.784  51.345  1.00  0.00     0.129 HD
BRANCH  11  13
HETATM   13  C   UNL     1       4.818  27.487  50.256  1.00  0.00     0.095 C 
BRANCH  13  14
HETATM   14  C   UNL     1       4.424  26.344  49.322  1.00  0.00     0.042 C 
BRANCH  14  15
HETATM   15  C   UNL     1       3.329  26.670  48.316  1.00  0.00     0.230 C 
BRANCH  15  16
HETATM   16  N   UNL     1       2.134  27.234  48.974  1.00  0.00    -0.079 N 
HETATM   17  H   UNL     1       1.358  26.541  48.939  1.00  0.00     0.274 HD
HETATM   18  H   UNL     1       2.294  27.475  49.957  1.00  0.00     0.274 HD
HETATM   19  H   UNL     1       1.791  28.067  48.484  1.00  0.00     0.274 HD
ENDBRANCH  15  16
ENDBRANCH  14  15
ENDBRANCH  13  14
ENDBRANCH  11  13
ENDBRANCH   3  11
BRANCH   1  20
HETATM   20  C   UNL     1       6.692  24.387  54.024  1.00  0.00     0.012 A 
HETATM   21  C   UNL     1       7.206  23.706  52.904  1.00  0.00     0.015 A 
HETATM   22  C   UNL     1       7.910  22.503  53.037  1.00  0.00     0.001 A 
HETATM   23  C   UNL     1       8.098  21.940  54.295  1.00  0.00     0.000 A 
HETATM   24  C   UNL     1       7.585  22.577  55.419  1.00  0.00     0.001 A 
HETATM   25  C   UNL     1       6.896  23.786  55.283  1.00  0.00     0.015 A 
ENDBRANCH   1  20
TORSDOF 6
ENDMDL
