MODEL 1
REMARK VINA RESULT:      -9.3      0.000      0.000
REMARK  6 active torsions:
REMARK  status: ('A' for Active; 'I' for Inactive)
REMARK    1  A    between atoms: C_3  and  N_4 
REMARK       I    between atoms: N_4  and  C_5 
REMARK       I    between atoms: C_5  and  N_6 
REMARK    2  A    between atoms: N_6  and  C_7 
REMARK    3  A    between atoms: C_7  and  C_8 
REMARK    4  A    between atoms: C_8  and  C_9 
REMARK    5  A    between atoms: C_21  and  O_22 
REMARK    6  A    between atoms: O_22  and  C_23 
ROOT
HETATM    1  N   UNL     1       5.333  26.143  55.126  1.00  0.00    -0.308 N 
HETATM    2  C   UNL     1       5.542  27.281  55.844  1.00  0.00     0.322 C 
HETATM    3  N   UNL     1       6.637  28.071  55.562  1.00  0.00    -0.338 N 
HETATM    4  C   UNL     1       7.311  28.094  54.266  1.00  0.00     0.154 C 
HETATM    5  O   UNL     1       4.689  27.614  56.669  1.00  0.00    -0.247 OA
HETATM    6  H   UNL     1       4.363  25.853  55.163  1.00  0.00     0.170 HD
ENDROOT
BRANCH   1   7
HETATM    7  C   UNL     1       6.245  25.133  54.749  1.00  0.00     0.042 A 
HETATM    8  C   UNL     1       6.185  24.619  53.437  1.00  0.00    -0.033 A 
HETATM    9  C   UNL     1       5.213  25.152  52.417  1.00  0.00     0.050 C 
HETATM   10  C   UNL     1       7.052  23.577  53.064  1.00  0.00     0.045 A 
HETATM   11  C   UNL     1       7.981  23.072  53.973  1.00  0.00     0.075 A 
HETATM   12  C   UNL     1       8.013  23.553  55.277  1.00  0.00     0.039 A 
HETATM   13  C   UNL     1       7.152  24.583  55.662  1.00  0.00     0.033 A 
BRANCH  11  14
HETATM   14  O   UNL     1       8.820  22.038  53.667  1.00  0.00    -0.290 OA
BRANCH  14  15
HETATM   15  C   UNL     1       8.116  20.916  53.149  1.00  0.00     0.505 C 
HETATM   16  F   UNL     1       9.007  19.972  52.755  1.00  0.00    -0.184 F 
HETATM   17  F   UNL     1       7.408  20.376  54.174  1.00  0.00    -0.184 F 
ENDBRANCH  14  15
ENDBRANCH  11  14
ENDBRANCH   1   7
BRANCH   3  18
HETATM   18  C   UNL     1       6.875  29.239  56.416  1.00  0.00     0.132 C 
BRANCH  18  19
HETATM   19  C   UNL     1       7.811  28.936  57.599  1.00  0.00     0.062 C 
BRANCH  19  20
HETATM   20  C   UNL     1       8.682  30.095  57.960  1.00  0.00    -0.007 A 
HETATM   21  C   UNL     1       8.340  31.224  58.760  1.00  0.00     0.059 A 
HETATM   22  C   UNL     1       7.054  31.517  59.440  1.00  0.00     0.073 C 
HETATM   23  N   UNL     1       9.364  32.075  58.881  1.00  0.00    -0.179 NA
HETATM   24  N   UNL     1      10.354  31.500  58.187  1.00  0.00    -0.282 N 
HETATM   25  H   UNL     1      11.250  31.975  58.148  1.00  0.00     0.189 HD
HETATM   26  C   UNL     1      10.003  30.311  57.611  1.00  0.00     0.032 A 
HETATM   27  C   UNL     1      10.955  29.516  56.802  1.00  0.00     0.070 C 
ENDBRANCH  19  20
ENDBRANCH  18  19
ENDBRANCH   3  18
TORSDOF 6
ENDMDL
MODEL 2
REMARK VINA RESULT:      -8.3      0.992      2.371
REMARK  6 active torsions:
REMARK  status: ('A' for Active; 'I' for Inactive)
REMARK    1  A    between atoms: C_3  and  N_4 
REMARK       I    between atoms: N_4  and  C_5 
REMARK       I    between atoms: C_5  and  N_6 
REMARK    2  A    between atoms: N_6  and  C_7 
REMARK    3  A    between atoms: C_7  and  C_8 
REMARK    4  A    between atoms: C_8  and  C_9 
REMARK    5  A    between atoms: C_21  and  O_22 
REMARK    6  A    between atoms: O_22  and  C_23 
ROOT
HETATM    1  N   UNL     1       5.158  26.582  54.820  1.00  0.00    -0.308 N 
HETATM    2  C   UNL     1       5.459  27.701  55.538  1.00  0.00     0.322 C 
HETATM    3  N   UNL     1       6.739  28.213  55.492  1.00  0.00    -0.338 N 
HETATM    4  C   UNL     1       7.665  27.991  54.385  1.00  0.00     0.154 C 
HETATM    5  O   UNL     1       4.545  28.270  56.137  1.00  0.00    -0.247 OA
HETATM    6  H   UNL     1       4.164  26.511  54.642  1.00  0.00     0.170 HD
ENDROOT
BRANCH   1   7
HETATM    7  C   UNL     1       5.877  25.374  54.688  1.00  0.00     0.042 A 
HETATM    8  C   UNL     1       6.298  24.703  55.855  1.00  0.00    -0.033 A 
HETATM    9  C   UNL     1       5.957  25.211  57.232  1.00  0.00     0.050 C 
HETATM   10  C   UNL     1       7.059  23.527  55.738  1.00  0.00     0.045 A 
HETATM   11  C   UNL     1       7.376  23.013  54.481  1.00  0.00     0.075 A 
HETATM   12  C   UNL     1       6.993  23.696  53.331  1.00  0.00     0.039 A 
HETATM   13  C   UNL     1       6.243  24.869  53.434  1.00  0.00     0.033 A 
BRANCH  11  14
HETATM   14  O   UNL     1       8.141  21.893  54.317  1.00  0.00    -0.290 OA
BRANCH  14  15
HETATM   15  C   UNL     1       8.406  21.243  55.554  1.00  0.00     0.505 C 
HETATM   16  F   UNL     1       7.470  20.284  55.765  1.00  0.00    -0.184 F 
HETATM   17  F   UNL     1       9.596  20.602  55.425  1.00  0.00    -0.184 F 
ENDBRANCH  14  15
ENDBRANCH  11  14
ENDBRANCH   1   7
BRANCH   3  18
HETATM   18  C   UNL     1       7.043  29.364  56.348  1.00  0.00     0.132 C 
BRANCH  18  19
HETATM   19  C   UNL     1       8.001  29.018  57.501  1.00  0.00     0.062 C 
BRANCH  19  20
HETATM   20  C   UNL     1       8.745  30.208  58.014  1.00  0.00    -0.007 A 
HETATM   21  C   UNL     1      10.115  30.534  57.799  1.00  0.00     0.059 A 
HETATM   22  C   UNL     1      11.128  29.792  57.008  1.00  0.00     0.073 C 
HETATM   23  N   UNL     1      10.455  31.676  58.406  1.00  0.00    -0.179 NA
HETATM   24  N   UNL     1       9.321  32.088  58.988  1.00  0.00    -0.282 N 
HETATM   25  H   UNL     1       9.340  32.960  59.508  1.00  0.00     0.189 HD
HETATM   26  C   UNL     1       8.263  31.248  58.789  1.00  0.00     0.032 A 
HETATM   27  C   UNL     1       6.920  31.523  59.348  1.00  0.00     0.070 C 
ENDBRANCH  19  20
ENDBRANCH  18  19
ENDBRANCH   3  18
TORSDOF 6
ENDMDL
MODEL 3
REMARK VINA RESULT:      -8.2      4.537      7.170
REMARK  6 active torsions:
REMARK  status: ('A' for Active; 'I' for Inactive)
REMARK    1  A    between atoms: C_3  and  N_4 
REMARK       I    between atoms: N_4  and  C_5 
REMARK       I    between atoms: C_5  and  N_6 
REMARK    2  A    between atoms: N_6  and  C_7 
REMARK    3  A    between atoms: C_7  and  C_8 
REMARK    4  A    between atoms: C_8  and  C_9 
REMARK    5  A    between atoms: C_21  and  O_22 
REMARK    6  A    between atoms: O_22  and  C_23 
ROOT
HETATM    1  N   UNL     1       4.926  26.372  55.163  1.00  0.00    -0.308 N 
HETATM    2  C   UNL     1       5.567  25.434  55.915  1.00  0.00     0.322 C 
HETATM    3  N   UNL     1       6.917  25.218  55.725  1.00  0.00    -0.338 N 
HETATM    4  C   UNL     1       7.830  26.216  55.174  1.00  0.00     0.154 C 
HETATM    5  O   UNL     1       4.932  24.869  56.806  1.00  0.00    -0.247 OA
HETATM    6  H   UNL     1       4.076  26.689  55.612  1.00  0.00     0.170 HD
ENDROOT
BRANCH   1   7
HETATM    7  C   UNL     1       4.999  26.621  53.775  1.00  0.00     0.042 A 
HETATM    8  C   UNL     1       5.060  27.957  53.327  1.00  0.00    -0.033 A 
HETATM    9  C   UNL     1       5.102  29.117  54.288  1.00  0.00     0.050 C 
HETATM   10  C   UNL     1       5.081  28.222  51.947  1.00  0.00     0.045 A 
HETATM   11  C   UNL     1       5.067  27.174  51.027  1.00  0.00     0.075 A 
HETATM   12  C   UNL     1       4.968  25.859  51.469  1.00  0.00     0.039 A 
HETATM   13  C   UNL     1       4.940  25.583  52.837  1.00  0.00     0.033 A 
BRANCH  11  14
HETATM   14  O   UNL     1       5.051  27.383  49.677  1.00  0.00    -0.290 OA
BRANCH  14  15
HETATM   15  C   UNL     1       4.384  26.336  48.983  1.00  0.00     0.505 C 
HETATM   16  F   UNL     1       3.090  26.689  48.776  1.00  0.00    -0.184 F 
HETATM   17  F   UNL     1       4.959  26.234  47.757  1.00  0.00    -0.184 F 
ENDBRANCH  14  15
ENDBRANCH  11  14
ENDBRANCH   1   7
BRANCH   3  18
HETATM   18  C   UNL     1       7.549  24.140  56.490  1.00  0.00     0.132 C 
BRANCH  18  19
HETATM   19  C   UNL     1       8.783  23.549  55.788  1.00  0.00     0.062 C 
BRANCH  19  20
HETATM   20  C   UNL     1       8.443  22.425  54.864  1.00  0.00    -0.007 A 
HETATM   21  C   UNL     1       8.403  21.033  55.168  1.00  0.00     0.059 A 
HETATM   22  C   UNL     1       8.669  20.363  56.465  1.00  0.00     0.073 C 
HETATM   23  N   UNL     1       8.059  20.302  54.102  1.00  0.00    -0.179 NA
HETATM   24  N   UNL     1       7.865  21.206  53.133  1.00  0.00    -0.282 N 
HETATM   25  H   UNL     1       7.581  20.872  52.218  1.00  0.00     0.189 HD
HETATM   26  C   UNL     1       8.081  22.495  53.531  1.00  0.00     0.032 A 
HETATM   27  C   UNL     1       7.919  23.643  52.610  1.00  0.00     0.070 C 
ENDBRANCH  19  20
ENDBRANCH  18  19
ENDBRANCH   3  18
TORSDOF 6
ENDMDL
MODEL 4
REMARK VINA RESULT:      -8.2      4.454      8.083
REMARK  6 active torsions:
REMARK  status: ('A' for Active; 'I' for Inactive)
REMARK    1  A    between atoms: C_3  and  N_4 
REMARK       I    between atoms: N_4  and  C_5 
REMARK       I    between atoms: C_5  and  N_6 
REMARK    2  A    between atoms: N_6  and  C_7 
REMARK    3  A    between atoms: C_7  and  C_8 
REMARK    4  A    between atoms: C_8  and  C_9 
REMARK    5  A    between atoms: C_21  and  O_22 
REMARK    6  A    between atoms: O_22  and  C_23 
ROOT
HETATM    1  N   UNL     1       6.247  28.084  54.624  1.00  0.00    -0.308 N 
HETATM    2  C   UNL     1       6.287  26.874  53.999  1.00  0.00     0.322 C 
HETATM    3  N   UNL     1       6.247  25.719  54.753  1.00  0.00    -0.338 N 
HETATM    4  C   UNL     1       5.667  25.640  56.091  1.00  0.00     0.154 C 
HETATM    5  O   UNL     1       6.267  26.855  52.767  1.00  0.00    -0.247 OA
HETATM    6  H   UNL     1       5.927  28.814  53.999  1.00  0.00     0.170 HD
ENDROOT
BRANCH   1   7
HETATM    7  C   UNL     1       6.949  28.536  55.762  1.00  0.00     0.042 A 
HETATM    8  C   UNL     1       6.231  29.176  56.794  1.00  0.00    -0.033 A 
HETATM    9  C   UNL     1       4.735  29.342  56.737  1.00  0.00     0.050 C 
HETATM   10  C   UNL     1       6.925  29.677  57.910  1.00  0.00     0.045 A 
HETATM   11  C   UNL     1       8.308  29.522  58.009  1.00  0.00     0.075 A 
HETATM   12  C   UNL     1       9.019  28.925  56.974  1.00  0.00     0.039 A 
HETATM   13  C   UNL     1       8.342  28.430  55.858  1.00  0.00     0.033 A 
BRANCH  11  14
HETATM   14  O   UNL     1       9.028  30.022  59.056  1.00  0.00    -0.290 OA
BRANCH  14  15
HETATM   15  C   UNL     1       9.232  31.425  58.942  1.00  0.00     0.505 C 
HETATM   16  F   UNL     1       9.092  31.998  60.163  1.00  0.00    -0.184 F 
HETATM   17  F   UNL     1      10.524  31.615  58.569  1.00  0.00    -0.184 F 
ENDBRANCH  14  15
ENDBRANCH  11  14
ENDBRANCH   1   7
BRANCH   3  18
HETATM   18  C   UNL     1       6.382  24.441  54.048  1.00  0.00     0.132 C 
BRANCH  18  19
HETATM   19  C   UNL     1       7.838  23.950  53.969  1.00  0.00     0.062 C 
BRANCH  19  20
HETATM   20  C   UNL     1       8.108  22.786  54.866  1.00  0.00    -0.007 A 
HETATM   21  C   UNL     1       8.072  21.402  54.527  1.00  0.00     0.059 A 
HETATM   22  C   UNL     1       7.779  20.781  53.212  1.00  0.00     0.073 C 
HETATM   23  N   UNL     1       8.367  20.627  55.576  1.00  0.00    -0.179 NA
HETATM   24  N   UNL     1       8.604  21.494  56.569  1.00  0.00    -0.282 N 
HETATM   25  H   UNL     1       8.862  21.121  57.477  1.00  0.00     0.189 HD
HETATM   26  C   UNL     1       8.463  22.802  56.203  1.00  0.00     0.032 A 
HETATM   27  C   UNL     1       8.682  23.916  57.154  1.00  0.00     0.070 C 
ENDBRANCH  19  20
ENDBRANCH  18  19
ENDBRANCH   3  18
TORSDOF 6
ENDMDL
MODEL 5
REMARK VINA RESULT:      -8.1      4.692      7.180
REMARK  6 active torsions:
REMARK  status: ('A' for Active; 'I' for Inactive)
REMARK    1  A    between atoms: C_3  and  N_4 
REMARK       I    between atoms: N_4  and  C_5 
REMARK       I    between atoms: C_5  and  N_6 
REMARK    2  A    between atoms: N_6  and  C_7 
REMARK    3  A    between atoms: C_7  and  C_8 
REMARK    4  A    between atoms: C_8  and  C_9 
REMARK    5  A    between atoms: C_21  and  O_22 
REMARK    6  A    between atoms: O_22  and  C_23 
ROOT
HETATM    1  N   UNL     1       4.815  26.394  55.010  1.00  0.00    -0.308 N 
HETATM    2  C   UNL     1       5.527  25.592  55.850  1.00  0.00     0.322 C 
HETATM    3  N   UNL     1       6.890  25.470  55.679  1.00  0.00    -0.338 N 
HETATM    4  C   UNL     1       7.722  26.480  55.029  1.00  0.00     0.154 C 
HETATM    5  O   UNL     1       4.935  25.067  56.795  1.00  0.00    -0.247 OA
HETATM    6  H   UNL     1       3.939  26.683  55.427  1.00  0.00     0.170 HD
ENDROOT
BRANCH   1   7
HETATM    7  C   UNL     1       4.875  26.509  53.604  1.00  0.00     0.042 A 
HETATM    8  C   UNL     1       4.784  27.792  53.023  1.00  0.00    -0.033 A 
HETATM    9  C   UNL     1       4.678  29.039  53.861  1.00  0.00     0.050 C 
HETATM   10  C   UNL     1       4.791  27.917  51.623  1.00  0.00     0.045 A 
HETATM   11  C   UNL     1       4.910  26.787  50.814  1.00  0.00     0.075 A 
HETATM   12  C   UNL     1       4.962  25.521  51.387  1.00  0.00     0.039 A 
HETATM   13  C   UNL     1       4.949  25.383  52.776  1.00  0.00     0.033 A 
BRANCH  11  14
HETATM   14  O   UNL     1       4.887  26.856  49.450  1.00  0.00    -0.290 OA
BRANCH  14  15
HETATM   15  C   UNL     1       4.902  28.199  48.983  1.00  0.00     0.505 C 
HETATM   16  F   UNL     1       6.184  28.580  48.758  1.00  0.00    -0.184 F 
HETATM   17  F   UNL     1       4.275  28.215  47.779  1.00  0.00    -0.184 F 
ENDBRANCH  14  15
ENDBRANCH  11  14
ENDBRANCH   1   7
BRANCH   3  18
HETATM   18  C   UNL     1       7.605  24.529  56.546  1.00  0.00     0.132 C 
BRANCH  18  19
HETATM   19  C   UNL     1       8.788  23.843  55.841  1.00  0.00     0.062 C 
BRANCH  19  20
HETATM   20  C   UNL     1       8.375  22.650  55.042  1.00  0.00    -0.007 A 
HETATM   21  C   UNL     1       8.053  22.603  53.655  1.00  0.00     0.059 A 
HETATM   22  C   UNL     1       8.065  23.709  52.666  1.00  0.00     0.073 C 
HETATM   23  N   UNL     1       7.724  21.367  53.263  1.00  0.00    -0.179 NA
HETATM   24  N   UNL     1       7.846  20.627  54.373  1.00  0.00    -0.282 N 
HETATM   25  H   UNL     1       7.651  19.634  54.309  1.00  0.00     0.189 HD
HETATM   26  C   UNL     1       8.232  21.342  55.471  1.00  0.00     0.032 A 
HETATM   27  C   UNL     1       8.426  20.710  56.796  1.00  0.00     0.070 C 
ENDBRANCH  19  20
ENDBRANCH  18  19
ENDBRANCH   3  18
TORSDOF 6
ENDMDL
MODEL 6
REMARK VINA RESULT:      -8.0      3.410      5.788
REMARK  6 active torsions:
REMARK  status: ('A' for Active; 'I' for Inactive)
REMARK    1  A    between atoms: C_3  and  N_4 
REMARK       I    between atoms: N_4  and  C_5 
REMARK       I    between atoms: C_5  and  N_6 
REMARK    2  A    between atoms: N_6  and  C_7 
REMARK    3  A    between atoms: C_7  and  C_8 
REMARK    4  A    between atoms: C_8  and  C_9 
REMARK    5  A    between atoms: C_21  and  O_22 
REMARK    6  A    between atoms: O_22  and  C_23 
ROOT
HETATM    1  N   UNL     1       7.933  26.523  55.024  1.00  0.00    -0.308 N 
HETATM    2  C   UNL     1       7.353  27.604  54.433  1.00  0.00     0.322 C 
HETATM    3  N   UNL     1       6.002  27.582  54.153  1.00  0.00    -0.338 N 
HETATM    4  C   UNL     1       5.038  26.747  54.864  1.00  0.00     0.154 C 
HETATM    5  O   UNL     1       8.044  28.607  54.249  1.00  0.00    -0.247 OA
HETATM    6  H   UNL     1       8.795  26.774  55.492  1.00  0.00     0.170 HD
ENDROOT
BRANCH   1   7
HETATM    7  C   UNL     1       7.788  25.149  54.733  1.00  0.00     0.042 A 
HETATM    8  C   UNL     1       7.513  24.256  55.790  1.00  0.00    -0.033 A 
HETATM    9  C   UNL     1       7.318  24.734  57.205  1.00  0.00     0.050 C 
HETATM   10  C   UNL     1       7.417  22.879  55.522  1.00  0.00     0.045 A 
HETATM   11  C   UNL     1       7.569  22.400  54.220  1.00  0.00     0.075 A 
HETATM   12  C   UNL     1       7.878  23.277  53.187  1.00  0.00     0.039 A 
HETATM   13  C   UNL     1       7.982  24.646  53.441  1.00  0.00     0.033 A 
BRANCH  11  14
HETATM   14  O   UNL     1       7.519  21.069  53.918  1.00  0.00    -0.290 OA
BRANCH  14  15
HETATM   15  C   UNL     1       8.738  20.605  53.353  1.00  0.00     0.505 C 
HETATM   16  F   UNL     1       9.200  19.559  54.083  1.00  0.00    -0.184 F 
HETATM   17  F   UNL     1       8.450  20.118  52.118  1.00  0.00    -0.184 F 
ENDBRANCH  14  15
ENDBRANCH  11  14
ENDBRANCH   1   7
BRANCH   3  18
HETATM   18  C   UNL     1       5.436  28.729  53.437  1.00  0.00     0.132 C 
BRANCH  18  19
HETATM   19  C   UNL     1       4.258  28.344  52.524  1.00  0.00     0.062 C 
BRANCH  19  20
HETATM   20  C   UNL     1       4.695  27.933  51.155  1.00  0.00    -0.007 A 
HETATM   21  C   UNL     1       4.875  28.767  50.014  1.00  0.00     0.059 A 
HETATM   22  C   UNL     1       4.693  30.235  49.906  1.00  0.00     0.073 C 
HETATM   23  N   UNL     1       5.275  28.068  48.947  1.00  0.00    -0.179 NA
HETATM   24  N   UNL     1       5.368  26.809  49.394  1.00  0.00    -0.282 N 
HETATM   25  H   UNL     1       5.672  26.092  48.744  1.00  0.00     0.189 HD
HETATM   26  C   UNL     1       5.032  26.667  50.711  1.00  0.00     0.032 A 
HETATM   27  C   UNL     1       5.069  25.356  51.398  1.00  0.00     0.070 C 
ENDBRANCH  19  20
ENDBRANCH  18  19
ENDBRANCH   3  18
TORSDOF 6
ENDMDL
MODEL 7
REMARK VINA RESULT:      -7.9      4.030      7.356
REMARK  6 active torsions:
REMARK  status: ('A' for Active; 'I' for Inactive)
REMARK    1  A    between atoms: C_3  and  N_4 
REMARK       I    between atoms: N_4  and  C_5 
REMARK       I    between atoms: C_5  and  N_6 
REMARK    2  A    between atoms: N_6  and  C_7 
REMARK    3  A    between atoms: C_7  and  C_8 
REMARK    4  A    between atoms: C_8  and  C_9 
REMARK    5  A    between atoms: C_21  and  O_22 
REMARK    6  A    between atoms: O_22  and  C_23 
ROOT
HETATM    1  N   UNL     1       6.809  26.687  53.891  1.00  0.00    -0.308 N 
HETATM    2  C   UNL     1       6.256  27.355  52.841  1.00  0.00     0.322 C 
HETATM    3  N   UNL     1       5.211  26.781  52.146  1.00  0.00    -0.338 N 
HETATM    4  C   UNL     1       4.310  25.781  52.712  1.00  0.00     0.154 C 
HETATM    5  O   UNL     1       6.654  28.496  52.602  1.00  0.00    -0.247 OA
HETATM    6  H   UNL     1       7.290  27.318  54.521  1.00  0.00     0.170 HD
ENDROOT
BRANCH   1   7
HETATM    7  C   UNL     1       7.186  25.331  54.001  1.00  0.00     0.042 A 
HETATM    8  C   UNL     1       6.889  24.637  55.193  1.00  0.00    -0.033 A 
HETATM    9  C   UNL     1       6.138  25.288  56.325  1.00  0.00     0.050 C 
HETATM   10  C   UNL     1       7.304  23.302  55.336  1.00  0.00     0.045 A 
HETATM   11  C   UNL     1       7.982  22.658  54.301  1.00  0.00     0.075 A 
HETATM   12  C   UNL     1       8.307  23.354  53.142  1.00  0.00     0.039 A 
HETATM   13  C   UNL     1       7.907  24.683  52.990  1.00  0.00     0.033 A 
BRANCH  11  14
HETATM   14  O   UNL     1       8.435  21.374  54.408  1.00  0.00    -0.290 OA
BRANCH  14  15
HETATM   15  C   UNL     1       8.501  20.725  53.144  1.00  0.00     0.505 C 
HETATM   16  F   UNL     1       9.318  19.646  53.237  1.00  0.00    -0.184 F 
HETATM   17  F   UNL     1       7.259  20.250  52.869  1.00  0.00    -0.184 F 
ENDBRANCH  14  15
ENDBRANCH  11  14
ENDBRANCH   1   7
BRANCH   3  18
HETATM   18  C   UNL     1       4.703  27.492  50.969  1.00  0.00     0.132 C 
BRANCH  18  19
HETATM   19  C   UNL     1       5.020  26.769  49.649  1.00  0.00     0.062 C 
BRANCH  19  20
HETATM   20  C   UNL     1       3.999  27.025  48.588  1.00  0.00    -0.007 A 
HETATM   21  C   UNL     1       3.666  28.273  47.986  1.00  0.00     0.059 A 
HETATM   22  C   UNL     1       4.254  29.610  48.247  1.00  0.00     0.073 C 
HETATM   23  N   UNL     1       2.703  28.139  47.067  1.00  0.00    -0.179 NA
HETATM   24  N   UNL     1       2.431  26.828  47.064  1.00  0.00    -0.282 N 
HETATM   25  H   UNL     1       1.723  26.489  46.422  1.00  0.00     0.189 HD
HETATM   26  C   UNL     1       3.176  26.110  47.956  1.00  0.00     0.032 A 
HETATM   27  C   UNL     1       3.029  24.644  48.107  1.00  0.00     0.070 C 
ENDBRANCH  19  20
ENDBRANCH  18  19
ENDBRANCH   3  18
TORSDOF 6
ENDMDL
MODEL 8
REMARK VINA RESULT:      -7.8      1.843      2.700
REMARK  6 active torsions:
REMARK  status: ('A' for Active; 'I' for Inactive)
REMARK    1  A    between atoms: C_3  and  N_4 
REMARK       I    between atoms: N_4  and  C_5 
REMARK       I    between atoms: C_5  and  N_6 
REMARK    2  A    between atoms: N_6  and  C_7 
REMARK    3  A    between atoms: C_7  and  C_8 
REMARK    4  A    between atoms: C_8  and  C_9 
REMARK    5  A    between atoms: C_21  and  O_22 
REMARK    6  A    between atoms: O_22  and  C_23 
ROOT
HETATM    1  N   UNL     1       6.023  26.180  54.123  1.00  0.00    -0.308 N 
HETATM    2  C   UNL     1       5.597  27.113  55.018  1.00  0.00     0.322 C 
HETATM    3  N   UNL     1       6.457  27.550  56.005  1.00  0.00    -0.338 N 
HETATM    4  C   UNL     1       7.912  27.502  55.895  1.00  0.00     0.154 C 
HETATM    5  O   UNL     1       4.477  27.603  54.861  1.00  0.00    -0.247 OA
HETATM    6  H   UNL     1       5.473  26.203  53.273  1.00  0.00     0.170 HD
ENDROOT
BRANCH   1   7
HETATM    7  C   UNL     1       6.742  24.984  54.338  1.00  0.00     0.042 A 
HETATM    8  C   UNL     1       7.485  24.437  53.271  1.00  0.00    -0.033 A 
HETATM    9  C   UNL     1       7.575  25.120  51.931  1.00  0.00     0.050 C 
HETATM   10  C   UNL     1       8.164  23.220  53.456  1.00  0.00     0.045 A 
HETATM   11  C   UNL     1       8.124  22.569  54.688  1.00  0.00     0.075 A 
HETATM   12  C   UNL     1       7.359  23.089  55.727  1.00  0.00     0.039 A 
HETATM   13  C   UNL     1       6.675  24.294  55.554  1.00  0.00     0.033 A 
BRANCH  11  14
HETATM   14  O   UNL     1       8.738  21.368  54.904  1.00  0.00    -0.290 OA
BRANCH  14  15
HETATM   15  C   UNL     1       8.553  20.907  56.237  1.00  0.00     0.505 C 
HETATM   16  F   UNL     1       7.546  19.998  56.260  1.00  0.00    -0.184 F 
HETATM   17  F   UNL     1       9.683  20.243  56.594  1.00  0.00    -0.184 F 
ENDBRANCH  14  15
ENDBRANCH  11  14
ENDBRANCH   1   7
BRANCH   3  18
HETATM   18  C   UNL     1       5.931  28.487  57.002  1.00  0.00     0.132 C 
BRANCH  18  19
HETATM   19  C   UNL     1       6.431  29.927  56.794  1.00  0.00     0.062 C 
BRANCH  19  20
HETATM   20  C   UNL     1       6.424  30.731  58.054  1.00  0.00    -0.007 A 
HETATM   21  C   UNL     1       7.493  30.905  58.980  1.00  0.00     0.059 A 
HETATM   22  C   UNL     1       8.869  30.352  58.916  1.00  0.00     0.073 C 
HETATM   23  N   UNL     1       7.142  31.692  60.002  1.00  0.00    -0.179 NA
HETATM   24  N   UNL     1       5.875  32.033  59.734  1.00  0.00    -0.282 N 
HETATM   25  H   UNL     1       5.398  32.648  60.384  1.00  0.00     0.189 HD
HETATM   26  C   UNL     1       5.391  31.486  58.579  1.00  0.00     0.032 A 
HETATM   27  C   UNL     1       4.012  31.741  58.103  1.00  0.00     0.070 C 
ENDBRANCH  19  20
ENDBRANCH  18  19
ENDBRANCH   3  18
TORSDOF 6
ENDMDL
MODEL 9
REMARK VINA RESULT:      -7.4      5.506      9.591
REMARK  6 active torsions:
REMARK  status: ('A' for Active; 'I' for Inactive)
REMARK    1  A    between atoms: C_3  and  N_4 
REMARK       I    between atoms: N_4  and  C_5 
REMARK       I    between atoms: C_5  and  N_6 
REMARK    2  A    between atoms: N_6  and  C_7 
REMARK    3  A    between atoms: C_7  and  C_8 
REMARK    4  A    between atoms: C_8  and  C_9 
REMARK    5  A    between atoms: C_21  and  O_22 
REMARK    6  A    between atoms: O_22  and  C_23 
ROOT
HETATM    1  N   UNL     1       8.860  30.760  58.263  1.00  0.00    -0.308 N 
HETATM    2  C   UNL     1       9.103  29.572  57.641  1.00  0.00     0.322 C 
HETATM    3  N   UNL     1       8.147  28.578  57.679  1.00  0.00    -0.338 N 
HETATM    4  C   UNL     1       6.721  28.828  57.874  1.00  0.00     0.154 C 
HETATM    5  O   UNL     1      10.141  29.460  56.987  1.00  0.00    -0.247 OA
HETATM    6  H   UNL     1       9.434  31.502  57.883  1.00  0.00     0.170 HD
ENDROOT
BRANCH   1   7
HETATM    7  C   UNL     1       8.322  31.015  59.544  1.00  0.00     0.042 A 
HETATM    8  C   UNL     1       7.128  31.760  59.643  1.00  0.00    -0.033 A 
HETATM    9  C   UNL     1       6.388  32.242  58.423  1.00  0.00     0.050 C 
HETATM   10  C   UNL     1       6.610  32.065  60.913  1.00  0.00     0.045 A 
HETATM   11  C   UNL     1       7.255  31.617  62.066  1.00  0.00     0.075 A 
HETATM   12  C   UNL     1       8.451  30.916  61.968  1.00  0.00     0.039 A 
HETATM   13  C   UNL     1       8.981  30.612  60.712  1.00  0.00     0.033 A 
BRANCH  11  14
HETATM   14  O   UNL     1       6.808  31.919  63.321  1.00  0.00    -0.290 OA
BRANCH  14  15
HETATM   15  C   UNL     1       7.091  33.266  63.679  1.00  0.00     0.505 C 
HETATM   16  F   UNL     1       6.270  33.642  64.691  1.00  0.00    -0.184 F 
HETATM   17  F   UNL     1       8.355  33.294  64.174  1.00  0.00    -0.184 F 
ENDBRANCH  14  15
ENDBRANCH  11  14
ENDBRANCH   1   7
BRANCH   3  18
HETATM   18  C   UNL     1       8.483  27.286  57.075  1.00  0.00     0.132 C 
BRANCH  18  19
HETATM   19  C   UNL     1       7.494  26.171  57.453  1.00  0.00     0.062 C 
BRANCH  19  20
HETATM   20  C   UNL     1       7.114  25.312  56.291  1.00  0.00    -0.007 A 
HETATM   21  C   UNL     1       7.542  23.981  56.017  1.00  0.00     0.059 A 
HETATM   22  C   UNL     1       8.447  23.119  56.818  1.00  0.00     0.073 C 
HETATM   23  N   UNL     1       7.006  23.509  54.887  1.00  0.00    -0.179 NA
HETATM   24  N   UNL     1       6.234  24.511  54.446  1.00  0.00    -0.282 N 
HETATM   25  H   UNL     1       5.711  24.370  53.589  1.00  0.00     0.189 HD
HETATM   26  C   UNL     1       6.259  25.618  55.247  1.00  0.00     0.032 A 
HETATM   27  C   UNL     1       5.473  26.834  54.937  1.00  0.00     0.070 C 
ENDBRANCH  19  20
ENDBRANCH  18  19
ENDBRANCH   3  18
TORSDOF 6
ENDMDL
MODEL 10
REMARK VINA RESULT:      -7.2      2.552      3.680
REMARK  6 active torsions:
REMARK  status: ('A' for Active; 'I' for Inactive)
REMARK    1  A    between atoms: C_3  and  N_4 
REMARK       I    between atoms: N_4  and  C_5 
REMARK       I    between atoms: C_5  and  N_6 
REMARK    2  A    between atoms: N_6  and  C_7 
REMARK    3  A    between atoms: C_7  and  C_8 
REMARK    4  A    between atoms: C_8  and  C_9 
REMARK    5  A    between atoms: C_21  and  O_22 
REMARK    6  A    between atoms: O_22  and  C_23 
ROOT
HETATM    1  N   UNL     1       7.672  26.767  55.135  1.00  0.00    -0.308 N 
HETATM    2  C   UNL     1       6.702  27.702  54.934  1.00  0.00     0.322 C 
HETATM    3  N   UNL     1       5.422  27.462  55.390  1.00  0.00    -0.338 N 
HETATM    4  C   UNL     1       5.108  26.556  56.491  1.00  0.00     0.154 C 
HETATM    5  O   UNL     1       7.026  28.777  54.425  1.00  0.00    -0.247 OA
HETATM    6  H   UNL     1       8.597  27.177  55.093  1.00  0.00     0.170 HD
ENDROOT
BRANCH   1   7
HETATM    7  C   UNL     1       7.628  25.368  54.952  1.00  0.00     0.042 A 
HETATM    8  C   UNL     1       8.042  24.531  56.010  1.00  0.00    -0.033 A 
HETATM    9  C   UNL     1       8.476  25.087  57.341  1.00  0.00     0.050 C 
HETATM   10  C   UNL     1       8.052  23.138  55.823  1.00  0.00     0.045 A 
HETATM   11  C   UNL     1       7.636  22.584  54.613  1.00  0.00     0.075 A 
HETATM   12  C   UNL     1       7.265  23.411  53.558  1.00  0.00     0.039 A 
HETATM   13  C   UNL     1       7.257  24.797  53.728  1.00  0.00     0.033 A 
BRANCH  11  14
HETATM   14  O   UNL     1       7.662  21.239  54.374  1.00  0.00    -0.290 OA
BRANCH  14  15
HETATM   15  C   UNL     1       8.138  20.507  55.496  1.00  0.00     0.505 C 
HETATM   16  F   UNL     1       7.080  20.053  56.215  1.00  0.00    -0.184 F 
HETATM   17  F   UNL     1       8.781  19.411  55.019  1.00  0.00    -0.184 F 
ENDBRANCH  14  15
ENDBRANCH  11  14
ENDBRANCH   1   7
BRANCH   3  18
HETATM   18  C   UNL     1       4.389  28.453  55.076  1.00  0.00     0.132 C 
BRANCH  18  19
HETATM   19  C   UNL     1       3.788  29.112  56.329  1.00  0.00     0.062 C 
BRANCH  19  20
HETATM   20  C   UNL     1       4.289  30.503  56.550  1.00  0.00    -0.007 A 
HETATM   21  C   UNL     1       3.661  31.723  56.168  1.00  0.00     0.059 A 
HETATM   22  C   UNL     1       2.361  31.916  55.479  1.00  0.00     0.073 C 
HETATM   23  N   UNL     1       4.388  32.788  56.523  1.00  0.00    -0.179 NA
HETATM   24  N   UNL     1       5.457  32.266  57.137  1.00  0.00    -0.282 N 
HETATM   25  H   UNL     1       6.154  32.904  57.507  1.00  0.00     0.189 HD
HETATM   26  C   UNL     1       5.453  30.901  57.183  1.00  0.00     0.032 A 
HETATM   27  C   UNL     1       6.545  30.130  57.820  1.00  0.00     0.070 C 
ENDBRANCH  19  20
ENDBRANCH  18  19
ENDBRANCH   3  18
TORSDOF 6
ENDMDL
