MODEL 1
REMARK VINA RESULT:      -9.2      0.000      0.000
REMARK  8 active torsions:
REMARK  status: ('A' for Active; 'I' for Inactive)
REMARK    1  A    between atoms: O_2  and  C_3 
REMARK    2  A    between atoms: C_4  and  O_5 
REMARK    3  A    between atoms: C_8  and  C_9 
REMARK    4  A    between atoms: C_9  and  C_10 
REMARK    5  A    between atoms: C_10  and  N_11 
REMARK       I    between atoms: N_11  and  C_12 
REMARK    6  A    between atoms: C_12  and  C_13 
REMARK    7  A    between atoms: C_14  and  N_15 
REMARK       I    between atoms: N_15  and  C_16 
REMARK    8  A    between atoms: C_16  and  C_17 
ROOT
HETATM    1  C   UNL     1       8.260  29.285  57.562  1.00  0.00     0.058 A 
HETATM    2  C   UNL     1       8.429  30.298  58.525  1.00  0.00     0.050 A 
HETATM    3  C   UNL     1       9.669  30.960  58.587  1.00  0.00     0.030 A 
HETATM    4  C   UNL     1      10.684  30.692  57.665  1.00  0.00     0.002 A 
HETATM    5  C   UNL     1      10.482  29.744  56.670  1.00  0.00     0.001 A 
HETATM    6  C   UNL     1       9.282  29.037  56.625  1.00  0.00     0.019 A 
ENDROOT
BRANCH   1   7
HETATM    7  C   UNL     1       7.141  28.303  57.521  1.00  0.00     0.253 C 
HETATM    8  N   UNL     1       7.498  27.000  57.234  1.00  0.00    -0.356 N 
HETATM    9  H   UNL     1       8.480  26.763  57.202  1.00  0.00     0.162 HD
HETATM   10  O   UNL     1       5.980  28.682  57.626  1.00  0.00    -0.268 OA
BRANCH   8  11
HETATM   11  C   UNL     1       6.522  25.931  57.288  1.00  0.00     0.127 C 
BRANCH  11  12
HETATM   12  C   UNL     1       5.949  25.576  55.912  1.00  0.00     0.058 C 
BRANCH  12  13
HETATM   13  C   UNL     1       6.791  24.530  55.222  1.00  0.00    -0.054 A 
HETATM   14  C   UNL     1       7.542  23.609  55.968  1.00  0.00     0.046 A 
HETATM   15  C   UNL     1       8.287  22.609  55.329  1.00  0.00     0.102 A 
HETATM   16  C   UNL     1       8.270  22.528  53.926  1.00  0.00     0.101 A 
HETATM   17  C   UNL     1       7.541  23.460  53.179  1.00  0.00     0.040 A 
HETATM   18  C   UNL     1       6.799  24.449  53.825  1.00  0.00     0.010 A 
BRANCH  15  19
HETATM   19  O   UNL     1       9.043  21.665  55.978  1.00  0.00    -0.353 OA
HETATM   20  C   UNL     1       8.355  20.674  56.727  1.00  0.00     0.210 C 
ENDBRANCH  15  19
BRANCH  16  21
HETATM   21  O   UNL     1       9.029  21.540  53.345  1.00  0.00    -0.353 OA
HETATM   22  C   UNL     1       8.289  20.429  52.852  1.00  0.00     0.210 C 
ENDBRANCH  16  21
ENDBRANCH  12  13
ENDBRANCH  11  12
ENDBRANCH   8  11
ENDBRANCH   1   7
BRANCH   2  23
HETATM   23  N   UNL     1       7.464  30.762  59.451  1.00  0.00    -0.320 N 
HETATM   24  C   UNL     1       6.595  31.823  59.266  1.00  0.00     0.280 C 
HETATM   25  O   UNL     1       6.461  32.489  58.249  1.00  0.00    -0.265 OA
HETATM   26  H   UNL     1       7.608  30.523  60.427  1.00  0.00     0.169 HD
BRANCH  24  27
HETATM   27  C   UNL     1       5.846  32.149  60.538  1.00  0.00     0.143 C 
HETATM   28  O   UNL     1       6.492  31.868  61.734  1.00  0.00    -0.345 OA
HETATM   29  C   UNL     1       5.684  31.940  62.915  1.00  0.00     0.186 C 
HETATM   30  C   UNL     1       4.900  33.237  63.020  1.00  0.00     0.105 C 
HETATM   31  S   UNL     1       3.644  33.246  61.714  1.00  0.00    -0.136 SA
HETATM   32  C   UNL     1       4.633  32.714  60.396  1.00  0.00     0.087 C 
ENDBRANCH  24  27
ENDBRANCH   2  23
TORSDOF 8
ENDMDL
MODEL 2
REMARK VINA RESULT:      -9.0      3.648      9.478
REMARK  8 active torsions:
REMARK  status: ('A' for Active; 'I' for Inactive)
REMARK    1  A    between atoms: O_2  and  C_3 
REMARK    2  A    between atoms: C_4  and  O_5 
REMARK    3  A    between atoms: C_8  and  C_9 
REMARK    4  A    between atoms: C_9  and  C_10 
REMARK    5  A    between atoms: C_10  and  N_11 
REMARK       I    between atoms: N_11  and  C_12 
REMARK    6  A    between atoms: C_12  and  C_13 
REMARK    7  A    between atoms: C_14  and  N_15 
REMARK       I    between atoms: N_15  and  C_16 
REMARK    8  A    between atoms: C_16  and  C_17 
ROOT
HETATM    1  C   UNL     1       7.155  23.965  54.939  1.00  0.00     0.058 A 
HETATM    2  C   UNL     1       7.143  24.005  53.531  1.00  0.00     0.050 A 
HETATM    3  C   UNL     1       7.658  22.901  52.827  1.00  0.00     0.030 A 
HETATM    4  C   UNL     1       8.091  21.751  53.493  1.00  0.00     0.002 A 
HETATM    5  C   UNL     1       8.030  21.690  54.879  1.00  0.00     0.001 A 
HETATM    6  C   UNL     1       7.574  22.794  55.598  1.00  0.00     0.019 A 
ENDROOT
BRANCH   1   7
HETATM    7  C   UNL     1       6.913  25.123  55.843  1.00  0.00     0.253 C 
HETATM    8  N   UNL     1       7.830  25.290  56.862  1.00  0.00    -0.356 N 
HETATM    9  H   UNL     1       8.664  24.719  56.859  1.00  0.00     0.162 HD
HETATM   10  O   UNL     1       5.893  25.794  55.730  1.00  0.00    -0.268 OA
BRANCH   8  11
HETATM   11  C   UNL     1       7.777  26.448  57.731  1.00  0.00     0.127 C 
BRANCH  11  12
HETATM   12  C   UNL     1       8.580  27.635  57.191  1.00  0.00     0.058 C 
BRANCH  12  13
HETATM   13  C   UNL     1       7.992  28.948  57.650  1.00  0.00    -0.054 A 
HETATM   14  C   UNL     1       8.812  29.948  58.196  1.00  0.00     0.046 A 
HETATM   15  C   UNL     1       8.275  31.183  58.580  1.00  0.00     0.102 A 
HETATM   16  C   UNL     1       6.900  31.420  58.406  1.00  0.00     0.101 A 
HETATM   17  C   UNL     1       6.077  30.417  57.884  1.00  0.00     0.040 A 
HETATM   18  C   UNL     1       6.623  29.192  57.501  1.00  0.00     0.010 A 
BRANCH  15  19
HETATM   19  O   UNL     1       9.002  32.218  59.115  1.00  0.00    -0.353 OA
HETATM   20  C   UNL     1       9.520  32.048  60.426  1.00  0.00     0.210 C 
ENDBRANCH  15  19
BRANCH  16  21
HETATM   21  O   UNL     1       6.418  32.641  58.813  1.00  0.00    -0.353 OA
HETATM   22  C   UNL     1       5.652  32.613  60.011  1.00  0.00     0.210 C 
ENDBRANCH  16  21
ENDBRANCH  12  13
ENDBRANCH  11  12
ENDBRANCH   8  11
ENDBRANCH   1   7
BRANCH   2  23
HETATM   23  N   UNL     1       6.636  25.044  52.713  1.00  0.00    -0.320 N 
HETATM   24  C   UNL     1       5.305  25.283  52.424  1.00  0.00     0.280 C 
HETATM   25  O   UNL     1       4.339  24.690  52.882  1.00  0.00    -0.265 OA
HETATM   26  H   UNL     1       7.277  25.457  52.042  1.00  0.00     0.169 HD
BRANCH  24  27
HETATM   27  C   UNL     1       5.156  26.353  51.366  1.00  0.00     0.143 C 
HETATM   28  O   UNL     1       4.668  25.949  50.132  1.00  0.00    -0.345 OA
HETATM   29  C   UNL     1       4.772  26.908  49.072  1.00  0.00     0.186 C 
HETATM   30  C   UNL     1       4.217  28.271  49.448  1.00  0.00     0.105 C 
HETATM   31  S   UNL     1       5.301  28.996  50.707  1.00  0.00    -0.136 SA
HETATM   32  C   UNL     1       5.478  27.609  51.729  1.00  0.00     0.087 C 
ENDBRANCH  24  27
ENDBRANCH   2  23
TORSDOF 8
ENDMDL
MODEL 3
REMARK VINA RESULT:      -8.6      3.749      9.161
REMARK  8 active torsions:
REMARK  status: ('A' for Active; 'I' for Inactive)
REMARK    1  A    between atoms: O_2  and  C_3 
REMARK    2  A    between atoms: C_4  and  O_5 
REMARK    3  A    between atoms: C_8  and  C_9 
REMARK    4  A    between atoms: C_9  and  C_10 
REMARK    5  A    between atoms: C_10  and  N_11 
REMARK       I    between atoms: N_11  and  C_12 
REMARK    6  A    between atoms: C_12  and  C_13 
REMARK    7  A    between atoms: C_14  and  N_15 
REMARK       I    between atoms: N_15  and  C_16 
REMARK    8  A    between atoms: C_16  and  C_17 
ROOT
HETATM    1  C   UNL     1       7.228  23.653  54.996  1.00  0.00     0.058 A 
HETATM    2  C   UNL     1       7.197  23.860  53.604  1.00  0.00     0.050 A 
HETATM    3  C   UNL     1       7.657  22.829  52.765  1.00  0.00     0.030 A 
HETATM    4  C   UNL     1       8.053  21.593  53.282  1.00  0.00     0.002 A 
HETATM    5  C   UNL     1       8.010  21.370  54.652  1.00  0.00     0.001 A 
HETATM    6  C   UNL     1       7.610  22.397  55.505  1.00  0.00     0.019 A 
ENDROOT
BRANCH   1   7
HETATM    7  C   UNL     1       7.045  24.705  56.035  1.00  0.00     0.253 C 
HETATM    8  N   UNL     1       5.798  25.297  56.076  1.00  0.00    -0.356 N 
HETATM    9  H   UNL     1       5.058  24.905  55.509  1.00  0.00     0.162 HD
HETATM   10  O   UNL     1       7.996  25.075  56.715  1.00  0.00    -0.268 OA
BRANCH   8  11
HETATM   11  C   UNL     1       5.455  26.242  57.118  1.00  0.00     0.127 C 
BRANCH  11  12
HETATM   12  C   UNL     1       5.081  27.623  56.572  1.00  0.00     0.058 C 
BRANCH  12  13
HETATM   13  C   UNL     1       5.979  28.697  57.137  1.00  0.00    -0.054 A 
HETATM   14  C   UNL     1       5.553  30.033  57.188  1.00  0.00     0.046 A 
HETATM   15  C   UNL     1       6.367  31.023  57.754  1.00  0.00     0.102 A 
HETATM   16  C   UNL     1       7.620  30.666  58.281  1.00  0.00     0.101 A 
HETATM   17  C   UNL     1       8.057  29.339  58.210  1.00  0.00     0.040 A 
HETATM   18  C   UNL     1       7.237  28.360  57.649  1.00  0.00     0.010 A 
BRANCH  15  19
HETATM   19  O   UNL     1       6.028  32.350  57.852  1.00  0.00    -0.353 OA
HETATM   20  C   UNL     1       4.985  32.696  58.750  1.00  0.00     0.210 C 
ENDBRANCH  15  19
BRANCH  16  21
HETATM   21  O   UNL     1       8.389  31.674  58.811  1.00  0.00    -0.353 OA
HETATM   22  C   UNL     1       9.791  31.521  58.621  1.00  0.00     0.210 C 
ENDBRANCH  16  21
ENDBRANCH  12  13
ENDBRANCH  11  12
ENDBRANCH   8  11
ENDBRANCH   1   7
BRANCH   2  23
HETATM   23  N   UNL     1       6.719  25.006  52.924  1.00  0.00    -0.320 N 
HETATM   24  C   UNL     1       5.394  25.360  52.745  1.00  0.00     0.280 C 
HETATM   25  O   UNL     1       4.416  24.789  53.206  1.00  0.00    -0.265 OA
HETATM   26  H   UNL     1       7.348  25.442  52.256  1.00  0.00     0.169 HD
BRANCH  24  27
HETATM   27  C   UNL     1       5.261  26.539  51.807  1.00  0.00     0.143 C 
HETATM   28  O   UNL     1       5.512  27.795  52.341  1.00  0.00    -0.345 OA
HETATM   29  C   UNL     1       5.138  28.910  51.523  1.00  0.00     0.186 C 
HETATM   30  C   UNL     1       5.675  28.813  50.105  1.00  0.00     0.105 C 
HETATM   31  S   UNL     1       4.827  27.445  49.272  1.00  0.00    -0.136 SA
HETATM   32  C   UNL     1       4.944  26.260  50.529  1.00  0.00     0.087 C 
ENDBRANCH  24  27
ENDBRANCH   2  23
TORSDOF 8
ENDMDL
MODEL 4
REMARK VINA RESULT:      -8.6      4.848      7.859
REMARK  8 active torsions:
REMARK  status: ('A' for Active; 'I' for Inactive)
REMARK    1  A    between atoms: O_2  and  C_3 
REMARK    2  A    between atoms: C_4  and  O_5 
REMARK    3  A    between atoms: C_8  and  C_9 
REMARK    4  A    between atoms: C_9  and  C_10 
REMARK    5  A    between atoms: C_10  and  N_11 
REMARK       I    between atoms: N_11  and  C_12 
REMARK    6  A    between atoms: C_12  and  C_13 
REMARK    7  A    between atoms: C_14  and  N_15 
REMARK       I    between atoms: N_15  and  C_16 
REMARK    8  A    between atoms: C_16  and  C_17 
ROOT
HETATM    1  C   UNL     1       7.887  23.554  53.751  1.00  0.00     0.058 A 
HETATM    2  C   UNL     1       8.100  23.947  55.086  1.00  0.00     0.050 A 
HETATM    3  C   UNL     1       8.635  23.004  55.983  1.00  0.00     0.030 A 
HETATM    4  C   UNL     1       9.033  21.736  55.553  1.00  0.00     0.002 A 
HETATM    5  C   UNL     1       8.890  21.381  54.218  1.00  0.00     0.001 A 
HETATM    6  C   UNL     1       8.311  22.280  53.324  1.00  0.00     0.019 A 
ENDROOT
BRANCH   1   7
HETATM    7  C   UNL     1       7.092  24.305  52.740  1.00  0.00     0.253 C 
HETATM    8  N   UNL     1       5.725  24.312  52.938  1.00  0.00    -0.356 N 
HETATM    9  H   UNL     1       5.360  23.937  53.802  1.00  0.00     0.162 HD
HETATM   10  O   UNL     1       7.638  24.774  51.747  1.00  0.00    -0.268 OA
BRANCH   8  11
HETATM   11  C   UNL     1       4.855  25.109  52.098  1.00  0.00     0.127 C 
BRANCH  11  12
HETATM   12  C   UNL     1       5.147  26.610  52.191  1.00  0.00     0.058 C 
BRANCH  12  13
HETATM   13  C   UNL     1       5.133  27.257  50.827  1.00  0.00    -0.054 A 
HETATM   14  C   UNL     1       4.756  26.524  49.691  1.00  0.00     0.046 A 
HETATM   15  C   UNL     1       4.700  27.135  48.432  1.00  0.00     0.102 A 
HETATM   16  C   UNL     1       5.016  28.500  48.313  1.00  0.00     0.101 A 
HETATM   17  C   UNL     1       5.414  29.226  49.441  1.00  0.00     0.040 A 
HETATM   18  C   UNL     1       5.464  28.609  50.691  1.00  0.00     0.010 A 
BRANCH  15  19
HETATM   19  O   UNL     1       4.336  26.498  47.271  1.00  0.00    -0.353 OA
HETATM   20  C   UNL     1       3.060  25.878  47.235  1.00  0.00     0.210 C 
ENDBRANCH  15  19
BRANCH  16  21
HETATM   21  O   UNL     1       4.961  29.050  47.055  1.00  0.00    -0.353 OA
HETATM   22  C   UNL     1       4.439  30.373  47.004  1.00  0.00     0.210 C 
ENDBRANCH  16  21
ENDBRANCH  12  13
ENDBRANCH  11  12
ENDBRANCH   8  11
ENDBRANCH   1   7
BRANCH   2  23
HETATM   23  N   UNL     1       7.856  25.224  55.646  1.00  0.00    -0.320 N 
HETATM   24  C   UNL     1       6.622  25.748  55.986  1.00  0.00     0.280 C 
HETATM   25  O   UNL     1       5.544  25.173  55.933  1.00  0.00    -0.265 OA
HETATM   26  H   UNL     1       8.572  25.931  55.512  1.00  0.00     0.169 HD
BRANCH  24  27
HETATM   27  C   UNL     1       6.731  27.205  56.374  1.00  0.00     0.143 C 
HETATM   28  O   UNL     1       5.888  28.092  55.719  1.00  0.00    -0.345 OA
HETATM   29  C   UNL     1       6.175  29.483  55.905  1.00  0.00     0.186 C 
HETATM   30  C   UNL     1       6.325  29.868  57.367  1.00  0.00     0.105 C 
HETATM   31  S   UNL     1       7.835  29.093  58.004  1.00  0.00    -0.136 SA
HETATM   32  C   UNL     1       7.612  27.506  57.346  1.00  0.00     0.087 C 
ENDBRANCH  24  27
ENDBRANCH   2  23
TORSDOF 8
ENDMDL
MODEL 5
REMARK VINA RESULT:      -8.4      3.455      8.974
REMARK  8 active torsions:
REMARK  status: ('A' for Active; 'I' for Inactive)
REMARK    1  A    between atoms: O_2  and  C_3 
REMARK    2  A    between atoms: C_4  and  O_5 
REMARK    3  A    between atoms: C_8  and  C_9 
REMARK    4  A    between atoms: C_9  and  C_10 
REMARK    5  A    between atoms: C_10  and  N_11 
REMARK       I    between atoms: N_11  and  C_12 
REMARK    6  A    between atoms: C_12  and  C_13 
REMARK    7  A    between atoms: C_14  and  N_15 
REMARK       I    between atoms: N_15  and  C_16 
REMARK    8  A    between atoms: C_16  and  C_17 
ROOT
HETATM    1  C   UNL     1       7.734  22.657  55.342  1.00  0.00     0.058 A 
HETATM    2  C   UNL     1       7.379  22.927  54.006  1.00  0.00     0.050 A 
HETATM    3  C   UNL     1       7.611  21.933  53.038  1.00  0.00     0.030 A 
HETATM    4  C   UNL     1       8.097  20.672  53.394  1.00  0.00     0.002 A 
HETATM    5  C   UNL     1       8.375  20.387  54.724  1.00  0.00     0.001 A 
HETATM    6  C   UNL     1       8.204  21.376  55.691  1.00  0.00     0.019 A 
ENDROOT
BRANCH   1   7
HETATM    7  C   UNL     1       7.818  23.660  56.439  1.00  0.00     0.253 C 
HETATM    8  N   UNL     1       6.980  24.751  56.319  1.00  0.00    -0.356 N 
HETATM    9  H   UNL     1       6.280  24.745  55.591  1.00  0.00     0.162 HD
HETATM   10  O   UNL     1       8.671  23.550  57.313  1.00  0.00    -0.268 OA
BRANCH   8  11
HETATM   11  C   UNL     1       6.877  25.732  57.380  1.00  0.00     0.127 C 
BRANCH  11  12
HETATM   12  C   UNL     1       7.909  26.857  57.254  1.00  0.00     0.058 C 
BRANCH  12  13
HETATM   13  C   UNL     1       7.283  28.206  57.518  1.00  0.00    -0.054 A 
HETATM   14  C   UNL     1       8.059  29.275  57.991  1.00  0.00     0.046 A 
HETATM   15  C   UNL     1       7.489  30.538  58.193  1.00  0.00     0.102 A 
HETATM   16  C   UNL     1       6.127  30.733  57.908  1.00  0.00     0.101 A 
HETATM   17  C   UNL     1       5.346  29.663  57.458  1.00  0.00     0.040 A 
HETATM   18  C   UNL     1       5.924  28.410  57.256  1.00  0.00     0.010 A 
BRANCH  15  19
HETATM   19  O   UNL     1       8.174  31.639  58.646  1.00  0.00    -0.353 OA
HETATM   20  C   UNL     1       9.579  31.519  58.807  1.00  0.00     0.210 C 
ENDBRANCH  15  19
BRANCH  16  21
HETATM   21  O   UNL     1       5.610  31.986  58.137  1.00  0.00    -0.353 OA
HETATM   22  C   UNL     1       5.088  32.637  56.985  1.00  0.00     0.210 C 
ENDBRANCH  16  21
ENDBRANCH  12  13
ENDBRANCH  11  12
ENDBRANCH   8  11
ENDBRANCH   1   7
BRANCH   2  23
HETATM   23  N   UNL     1       6.774  24.107  53.509  1.00  0.00    -0.320 N 
HETATM   24  C   UNL     1       7.369  25.051  52.691  1.00  0.00     0.280 C 
HETATM   25  O   UNL     1       8.486  24.991  52.198  1.00  0.00    -0.265 OA
HETATM   26  H   UNL     1       5.968  24.461  54.015  1.00  0.00     0.169 HD
BRANCH  24  27
HETATM   27  C   UNL     1       6.486  26.267  52.522  1.00  0.00     0.143 C 
HETATM   28  O   UNL     1       6.525  27.214  53.535  1.00  0.00    -0.345 OA
HETATM   29  C   UNL     1       5.508  28.222  53.490  1.00  0.00     0.186 C 
HETATM   30  C   UNL     1       5.398  28.894  52.132  1.00  0.00     0.105 C 
HETATM   31  S   UNL     1       4.762  27.678  50.949  1.00  0.00    -0.136 SA
HETATM   32  C   UNL     1       5.768  26.338  51.385  1.00  0.00     0.087 C 
ENDBRANCH  24  27
ENDBRANCH   2  23
TORSDOF 8
ENDMDL
MODEL 6
REMARK VINA RESULT:      -8.4      1.168      2.005
REMARK  8 active torsions:
REMARK  status: ('A' for Active; 'I' for Inactive)
REMARK    1  A    between atoms: O_2  and  C_3 
REMARK    2  A    between atoms: C_4  and  O_5 
REMARK    3  A    between atoms: C_8  and  C_9 
REMARK    4  A    between atoms: C_9  and  C_10 
REMARK    5  A    between atoms: C_10  and  N_11 
REMARK       I    between atoms: N_11  and  C_12 
REMARK    6  A    between atoms: C_12  and  C_13 
REMARK    7  A    between atoms: C_14  and  N_15 
REMARK       I    between atoms: N_15  and  C_16 
REMARK    8  A    between atoms: C_16  and  C_17 
ROOT
HETATM    1  C   UNL     1       8.334  29.509  57.112  1.00  0.00     0.058 A 
HETATM    2  C   UNL     1       8.399  30.426  58.178  1.00  0.00     0.050 A 
HETATM    3  C   UNL     1       9.644  31.004  58.489  1.00  0.00     0.030 A 
HETATM    4  C   UNL     1      10.776  30.751  57.710  1.00  0.00     0.002 A 
HETATM    5  C   UNL     1      10.688  29.903  56.614  1.00  0.00     0.001 A 
HETATM    6  C   UNL     1       9.477  29.278  56.323  1.00  0.00     0.019 A 
ENDROOT
BRANCH   1   7
HETATM    7  C   UNL     1       7.190  28.604  56.812  1.00  0.00     0.253 C 
HETATM    8  N   UNL     1       7.092  28.175  55.503  1.00  0.00    -0.356 N 
HETATM    9  H   UNL     1       7.853  28.379  54.870  1.00  0.00     0.162 HD
HETATM   10  O   UNL     1       6.344  28.371  57.669  1.00  0.00    -0.268 OA
BRANCH   8  11
HETATM   11  C   UNL     1       6.100  27.195  55.112  1.00  0.00     0.127 C 
BRANCH  11  12
HETATM   12  C   UNL     1       6.593  26.255  54.008  1.00  0.00     0.058 C 
BRANCH  12  13
HETATM   13  C   UNL     1       7.217  25.008  54.588  1.00  0.00    -0.054 A 
HETATM   14  C   UNL     1       7.771  24.029  53.750  1.00  0.00     0.046 A 
HETATM   15  C   UNL     1       8.391  22.894  54.289  1.00  0.00     0.102 A 
HETATM   16  C   UNL     1       8.462  22.745  55.685  1.00  0.00     0.101 A 
HETATM   17  C   UNL     1       7.890  23.709  56.522  1.00  0.00     0.040 A 
HETATM   18  C   UNL     1       7.279  24.838  55.975  1.00  0.00     0.010 A 
BRANCH  15  19
HETATM   19  O   UNL     1       8.964  21.891  53.547  1.00  0.00    -0.353 OA
HETATM   20  C   UNL     1       8.096  20.960  52.919  1.00  0.00     0.210 C 
ENDBRANCH  15  19
BRANCH  16  21
HETATM   21  O   UNL     1       9.065  21.608  56.166  1.00  0.00    -0.353 OA
HETATM   22  C   UNL     1       8.168  20.596  56.609  1.00  0.00     0.210 C 
ENDBRANCH  16  21
ENDBRANCH  12  13
ENDBRANCH  11  12
ENDBRANCH   8  11
ENDBRANCH   1   7
BRANCH   2  23
HETATM   23  N   UNL     1       7.323  30.870  58.985  1.00  0.00    -0.320 N 
HETATM   24  C   UNL     1       6.339  31.769  58.616  1.00  0.00     0.280 C 
HETATM   25  O   UNL     1       6.186  32.273  57.513  1.00  0.00    -0.265 OA
HETATM   26  H   UNL     1       7.434  30.781  59.991  1.00  0.00     0.169 HD
BRANCH  24  27
HETATM   27  C   UNL     1       5.474  32.152  59.795  1.00  0.00     0.143 C 
HETATM   28  O   UNL     1       4.106  32.215  59.573  1.00  0.00    -0.345 OA
HETATM   29  C   UNL     1       3.328  32.820  60.614  1.00  0.00     0.186 C 
HETATM   30  C   UNL     1       3.622  32.242  61.987  1.00  0.00     0.105 C 
HETATM   31  S   UNL     1       5.304  32.725  62.457  1.00  0.00    -0.136 SA
HETATM   32  C   UNL     1       6.106  32.364  60.965  1.00  0.00     0.087 C 
ENDBRANCH  24  27
ENDBRANCH   2  23
TORSDOF 8
ENDMDL
MODEL 7
REMARK VINA RESULT:      -8.4      4.691      9.375
REMARK  8 active torsions:
REMARK  status: ('A' for Active; 'I' for Inactive)
REMARK    1  A    between atoms: O_2  and  C_3 
REMARK    2  A    between atoms: C_4  and  O_5 
REMARK    3  A    between atoms: C_8  and  C_9 
REMARK    4  A    between atoms: C_9  and  C_10 
REMARK    5  A    between atoms: C_10  and  N_11 
REMARK       I    between atoms: N_11  and  C_12 
REMARK    6  A    between atoms: C_12  and  C_13 
REMARK    7  A    between atoms: C_14  and  N_15 
REMARK       I    between atoms: N_15  and  C_16 
REMARK    8  A    between atoms: C_16  and  C_17 
ROOT
HETATM    1  C   UNL     1       7.064  30.190  57.924  1.00  0.00     0.058 A 
HETATM    2  C   UNL     1       6.178  30.180  56.830  1.00  0.00     0.050 A 
HETATM    3  C   UNL     1       6.190  29.068  55.969  1.00  0.00     0.030 A 
HETATM    4  C   UNL     1       6.994  27.955  56.230  1.00  0.00     0.002 A 
HETATM    5  C   UNL     1       7.812  27.940  57.353  1.00  0.00     0.001 A 
HETATM    6  C   UNL     1       7.854  29.054  58.189  1.00  0.00     0.019 A 
ENDROOT
BRANCH   1   7
HETATM    7  C   UNL     1       7.386  31.371  58.771  1.00  0.00     0.253 C 
HETATM    8  N   UNL     1       8.400  31.190  59.692  1.00  0.00    -0.356 N 
HETATM    9  H   UNL     1       8.943  30.338  59.651  1.00  0.00     0.162 HD
HETATM   10  O   UNL     1       6.698  32.384  58.708  1.00  0.00    -0.268 OA
BRANCH   8  11
HETATM   11  C   UNL     1       8.891  32.296  60.488  1.00  0.00     0.127 C 
BRANCH  11  12
HETATM   12  C   UNL     1       9.072  31.934  61.965  1.00  0.00     0.058 C 
BRANCH  12  13
HETATM   13  C   UNL     1       7.846  32.294  62.771  1.00  0.00    -0.054 A 
HETATM   14  C   UNL     1       6.572  31.867  62.366  1.00  0.00     0.046 A 
HETATM   15  C   UNL     1       5.441  32.162  63.137  1.00  0.00     0.102 A 
HETATM   16  C   UNL     1       5.591  32.886  64.333  1.00  0.00     0.101 A 
HETATM   17  C   UNL     1       6.858  33.332  64.726  1.00  0.00     0.040 A 
HETATM   18  C   UNL     1       7.979  33.030  63.953  1.00  0.00     0.010 A 
BRANCH  15  19
HETATM   19  O   UNL     1       4.160  31.779  62.822  1.00  0.00    -0.353 OA
HETATM   20  C   UNL     1       3.574  32.343  61.659  1.00  0.00     0.210 C 
ENDBRANCH  15  19
BRANCH  16  21
HETATM   21  O   UNL     1       4.450  33.164  65.046  1.00  0.00    -0.353 OA
HETATM   22  C   UNL     1       4.070  34.535  65.056  1.00  0.00     0.210 C 
ENDBRANCH  16  21
ENDBRANCH  12  13
ENDBRANCH  11  12
ENDBRANCH   8  11
ENDBRANCH   1   7
BRANCH   2  23
HETATM   23  N   UNL     1       5.226  31.174  56.497  1.00  0.00    -0.320 N 
HETATM   24  C   UNL     1       3.971  31.328  57.057  1.00  0.00     0.280 C 
HETATM   25  O   UNL     1       3.499  30.683  57.983  1.00  0.00    -0.265 OA
HETATM   26  H   UNL     1       5.320  31.617  55.588  1.00  0.00     0.169 HD
BRANCH  24  27
HETATM   27  C   UNL     1       3.164  32.373  56.320  1.00  0.00     0.143 C 
HETATM   28  O   UNL     1       1.947  31.965  55.792  1.00  0.00    -0.345 OA
HETATM   29  C   UNL     1       1.318  32.881  54.887  1.00  0.00     0.186 C 
HETATM   30  C   UNL     1       1.216  34.291  55.445  1.00  0.00     0.105 C 
HETATM   31  S   UNL     1       2.889  34.977  55.559  1.00  0.00    -0.136 SA
HETATM   32  C   UNL     1       3.683  33.614  56.273  1.00  0.00     0.087 C 
ENDBRANCH  24  27
ENDBRANCH   2  23
TORSDOF 8
ENDMDL
MODEL 8
REMARK VINA RESULT:      -8.3      3.410     10.210
REMARK  8 active torsions:
REMARK  status: ('A' for Active; 'I' for Inactive)
REMARK    1  A    between atoms: O_2  and  C_3 
REMARK    2  A    between atoms: C_4  and  O_5 
REMARK    3  A    between atoms: C_8  and  C_9 
REMARK    4  A    between atoms: C_9  and  C_10 
REMARK    5  A    between atoms: C_10  and  N_11 
REMARK       I    between atoms: N_11  and  C_12 
REMARK    6  A    between atoms: C_12  and  C_13 
REMARK    7  A    between atoms: C_14  and  N_15 
REMARK       I    between atoms: N_15  and  C_16 
REMARK    8  A    between atoms: C_16  and  C_17 
ROOT
HETATM    1  C   UNL     1       6.404  29.233  56.769  1.00  0.00     0.058 A 
HETATM    2  C   UNL     1       6.044  28.107  56.005  1.00  0.00     0.050 A 
HETATM    3  C   UNL     1       4.951  28.217  55.125  1.00  0.00     0.030 A 
HETATM    4  C   UNL     1       4.288  29.432  54.938  1.00  0.00     0.002 A 
HETATM    5  C   UNL     1       4.697  30.559  55.640  1.00  0.00     0.001 A 
HETATM    6  C   UNL     1       5.741  30.458  56.557  1.00  0.00     0.019 A 
ENDROOT
BRANCH   1   7
HETATM    7  C   UNL     1       7.336  29.234  57.930  1.00  0.00     0.253 C 
HETATM    8  N   UNL     1       7.520  30.455  58.550  1.00  0.00    -0.356 N 
HETATM    9  H   UNL     1       6.928  31.228  58.279  1.00  0.00     0.162 HD
HETATM   10  O   UNL     1       7.970  28.224  58.215  1.00  0.00    -0.268 OA
BRANCH   8  11
HETATM   11  C   UNL     1       8.302  30.563  59.764  1.00  0.00     0.127 C 
BRANCH  11  12
HETATM   12  C   UNL     1       8.430  32.006  60.263  1.00  0.00     0.058 C 
BRANCH  12  13
HETATM   13  C   UNL     1       7.527  32.258  61.447  1.00  0.00    -0.054 A 
HETATM   14  C   UNL     1       6.132  32.186  61.311  1.00  0.00     0.046 A 
HETATM   15  C   UNL     1       5.296  32.375  62.419  1.00  0.00     0.102 A 
HETATM   16  C   UNL     1       5.866  32.630  63.678  1.00  0.00     0.101 A 
HETATM   17  C   UNL     1       7.256  32.725  63.810  1.00  0.00     0.040 A 
HETATM   18  C   UNL     1       8.080  32.531  62.703  1.00  0.00     0.010 A 
BRANCH  15  19
HETATM   19  O   UNL     1       3.924  32.315  62.380  1.00  0.00    -0.353 OA
HETATM   20  C   UNL     1       3.241  33.360  61.704  1.00  0.00     0.210 C 
ENDBRANCH  15  19
BRANCH  16  21
HETATM   21  O   UNL     1       5.004  32.824  64.730  1.00  0.00    -0.353 OA
HETATM   22  C   UNL     1       5.360  33.886  65.608  1.00  0.00     0.210 C 
ENDBRANCH  16  21
ENDBRANCH  12  13
ENDBRANCH  11  12
ENDBRANCH   8  11
ENDBRANCH   1   7
BRANCH   2  23
HETATM   23  N   UNL     1       6.685  26.844  55.996  1.00  0.00    -0.320 N 
HETATM   24  C   UNL     1       7.368  26.280  54.934  1.00  0.00     0.280 C 
HETATM   25  O   UNL     1       7.600  26.802  53.853  1.00  0.00    -0.265 OA
HETATM   26  H   UNL     1       6.376  26.165  56.685  1.00  0.00     0.169 HD
BRANCH  24  27
HETATM   27  C   UNL     1       7.751  24.846  55.226  1.00  0.00     0.143 C 
HETATM   28  O   UNL     1       7.723  24.449  56.555  1.00  0.00    -0.345 OA
HETATM   29  C   UNL     1       8.326  23.182  56.844  1.00  0.00     0.186 C 
HETATM   30  C   UNL     1       7.828  22.067  55.940  1.00  0.00     0.105 C 
HETATM   31  S   UNL     1       8.430  22.387  54.261  1.00  0.00    -0.136 SA
HETATM   32  C   UNL     1       8.051  24.074  54.165  1.00  0.00     0.087 C 
ENDBRANCH  24  27
ENDBRANCH   2  23
TORSDOF 8
ENDMDL
MODEL 9
REMARK VINA RESULT:      -8.3      5.495      8.202
REMARK  8 active torsions:
REMARK  status: ('A' for Active; 'I' for Inactive)
REMARK    1  A    between atoms: O_2  and  C_3 
REMARK    2  A    between atoms: C_4  and  O_5 
REMARK    3  A    between atoms: C_8  and  C_9 
REMARK    4  A    between atoms: C_9  and  C_10 
REMARK    5  A    between atoms: C_10  and  N_11 
REMARK       I    between atoms: N_11  and  C_12 
REMARK    6  A    between atoms: C_12  and  C_13 
REMARK    7  A    between atoms: C_14  and  N_15 
REMARK       I    between atoms: N_15  and  C_16 
REMARK    8  A    between atoms: C_16  and  C_17 
ROOT
HETATM    1  C   UNL     1       7.290  23.963  53.845  1.00  0.00     0.058 A 
HETATM    2  C   UNL     1       7.944  24.337  55.035  1.00  0.00     0.050 A 
HETATM    3  C   UNL     1       8.895  23.456  55.581  1.00  0.00     0.030 A 
HETATM    4  C   UNL     1       9.256  22.277  54.923  1.00  0.00     0.002 A 
HETATM    5  C   UNL     1       8.661  21.951  53.711  1.00  0.00     0.001 A 
HETATM    6  C   UNL     1       7.677  22.783  53.181  1.00  0.00     0.019 A 
ENDROOT
BRANCH   1   7
HETATM    7  C   UNL     1       6.082  24.620  53.274  1.00  0.00     0.253 C 
HETATM    8  N   UNL     1       6.177  25.000  51.949  1.00  0.00    -0.356 N 
HETATM    9  H   UNL     1       6.983  24.701  51.417  1.00  0.00     0.162 HD
HETATM   10  O   UNL     1       5.128  24.894  53.993  1.00  0.00    -0.268 OA
BRANCH   8  11
HETATM   11  C   UNL     1       5.031  25.534  51.243  1.00  0.00     0.127 C 
BRANCH  11  12
HETATM   12  C   UNL     1       5.290  26.922  50.649  1.00  0.00     0.058 C 
BRANCH  12  13
HETATM   13  C   UNL     1       4.275  27.260  49.583  1.00  0.00    -0.054 A 
HETATM   14  C   UNL     1       3.703  28.540  49.520  1.00  0.00     0.046 A 
HETATM   15  C   UNL     1       2.796  28.868  48.504  1.00  0.00     0.102 A 
HETATM   16  C   UNL     1       2.465  27.903  47.537  1.00  0.00     0.101 A 
HETATM   17  C   UNL     1       3.017  26.619  47.613  1.00  0.00     0.040 A 
HETATM   18  C   UNL     1       3.923  26.304  48.625  1.00  0.00     0.010 A 
BRANCH  15  19
HETATM   19  O   UNL     1       2.195  30.094  48.362  1.00  0.00    -0.353 OA
HETATM   20  C   UNL     1       1.243  30.477  49.343  1.00  0.00     0.210 C 
ENDBRANCH  15  19
BRANCH  16  21
HETATM   21  O   UNL     1       1.559  28.267  46.571  1.00  0.00    -0.353 OA
HETATM   22  C   UNL     1       0.323  27.563  46.613  1.00  0.00     0.210 C 
ENDBRANCH  16  21
ENDBRANCH  12  13
ENDBRANCH  11  12
ENDBRANCH   8  11
ENDBRANCH   1   7
BRANCH   2  23
HETATM   23  N   UNL     1       7.773  25.543  55.757  1.00  0.00    -0.320 N 
HETATM   24  C   UNL     1       6.868  25.766  56.778  1.00  0.00     0.280 C 
HETATM   25  O   UNL     1       6.117  24.943  57.282  1.00  0.00    -0.265 OA
HETATM   26  H   UNL     1       8.101  26.396  55.314  1.00  0.00     0.169 HD
BRANCH  24  27
HETATM   27  C   UNL     1       6.837  27.223  57.178  1.00  0.00     0.143 C 
HETATM   28  O   UNL     1       8.001  27.749  57.720  1.00  0.00    -0.345 OA
HETATM   29  C   UNL     1       7.884  29.042  58.325  1.00  0.00     0.186 C 
HETATM   30  C   UNL     1       7.205  30.060  57.424  1.00  0.00     0.105 C 
HETATM   31  S   UNL     1       5.467  29.581  57.240  1.00  0.00    -0.136 SA
HETATM   32  C   UNL     1       5.691  27.890  56.941  1.00  0.00     0.087 C 
ENDBRANCH  24  27
ENDBRANCH   2  23
TORSDOF 8
ENDMDL
MODEL 10
REMARK VINA RESULT:      -8.2      5.210      8.976
REMARK  8 active torsions:
REMARK  status: ('A' for Active; 'I' for Inactive)
REMARK    1  A    between atoms: O_2  and  C_3 
REMARK    2  A    between atoms: C_4  and  O_5 
REMARK    3  A    between atoms: C_8  and  C_9 
REMARK    4  A    between atoms: C_9  and  C_10 
REMARK    5  A    between atoms: C_10  and  N_11 
REMARK       I    between atoms: N_11  and  C_12 
REMARK    6  A    between atoms: C_12  and  C_13 
REMARK    7  A    between atoms: C_14  and  N_15 
REMARK       I    between atoms: N_15  and  C_16 
REMARK    8  A    between atoms: C_16  and  C_17 
ROOT
HETATM    1  C   UNL     1       5.653  34.244  64.220  1.00  0.00     0.058 A 
HETATM    2  C   UNL     1       5.433  34.945  65.421  1.00  0.00     0.050 A 
HETATM    3  C   UNL     1       4.596  36.076  65.391  1.00  0.00     0.030 A 
HETATM    4  C   UNL     1       3.923  36.452  64.226  1.00  0.00     0.002 A 
HETATM    5  C   UNL     1       4.087  35.711  63.063  1.00  0.00     0.001 A 
HETATM    6  C   UNL     1       4.954  34.620  63.057  1.00  0.00     0.019 A 
ENDROOT
BRANCH   1   7
HETATM    7  C   UNL     1       6.700  33.209  63.997  1.00  0.00     0.253 C 
HETATM    8  N   UNL     1       6.536  32.423  62.874  1.00  0.00    -0.356 N 
HETATM    9  H   UNL     1       5.815  32.671  62.211  1.00  0.00     0.162 HD
HETATM   10  O   UNL     1       7.572  33.019  64.838  1.00  0.00    -0.268 OA
BRANCH   8  11
HETATM   11  C   UNL     1       7.550  31.466  62.479  1.00  0.00     0.127 C 
BRANCH  11  12
HETATM   12  C   UNL     1       8.506  32.016  61.416  1.00  0.00     0.058 C 
BRANCH  12  13
HETATM   13  C   UNL     1       8.210  31.429  60.057  1.00  0.00    -0.054 A 
HETATM   14  C   UNL     1       9.139  30.591  59.421  1.00  0.00     0.046 A 
HETATM   15  C   UNL     1       8.846  30.010  58.180  1.00  0.00     0.102 A 
HETATM   16  C   UNL     1       7.603  30.266  57.576  1.00  0.00     0.101 A 
HETATM   17  C   UNL     1       6.685  31.120  58.197  1.00  0.00     0.040 A 
HETATM   18  C   UNL     1       6.985  31.690  59.434  1.00  0.00     0.010 A 
BRANCH  15  19
HETATM   19  O   UNL     1       9.690  29.175  57.491  1.00  0.00    -0.353 OA
HETATM   20  C   UNL     1      10.925  29.713  57.043  1.00  0.00     0.210 C 
ENDBRANCH  15  19
BRANCH  16  21
HETATM   21  O   UNL     1       7.369  29.686  56.352  1.00  0.00    -0.353 OA
HETATM   22  C   UNL     1       6.010  29.347  56.101  1.00  0.00     0.210 C 
ENDBRANCH  16  21
ENDBRANCH  12  13
ENDBRANCH  11  12
ENDBRANCH   8  11
ENDBRANCH   1   7
BRANCH   2  23
HETATM   23  N   UNL     1       5.948  34.624  66.700  1.00  0.00    -0.320 N 
HETATM   24  C   UNL     1       5.215  34.212  67.799  1.00  0.00     0.280 C 
HETATM   25  O   UNL     1       4.015  33.983  67.833  1.00  0.00    -0.265 OA
HETATM   26  H   UNL     1       6.857  35.008  66.941  1.00  0.00     0.169 HD
BRANCH  24  27
HETATM   27  C   UNL     1       6.075  34.149  69.041  1.00  0.00     0.143 C 
HETATM   28  O   UNL     1       5.573  33.425  70.113  1.00  0.00    -0.345 OA
HETATM   29  C   UNL     1       6.267  33.584  71.357  1.00  0.00     0.186 C 
HETATM   30  C   UNL     1       7.767  33.383  71.229  1.00  0.00     0.105 C 
HETATM   31  S   UNL     1       8.441  34.754  70.255  1.00  0.00    -0.136 SA
HETATM   32  C   UNL     1       7.266  34.773  68.983  1.00  0.00     0.087 C 
ENDBRANCH  24  27
ENDBRANCH   2  23
TORSDOF 8
ENDMDL
