MODEL 1
REMARK VINA RESULT:      -9.2      0.000      0.000
REMARK  6 active torsions:
REMARK  status: ('A' for Active; 'I' for Inactive)
REMARK    1  A    between atoms: C_2  and  C_3 
REMARK    2  A    between atoms: C_3  and  C_4 
REMARK    3  A    between atoms: C_4  and  C_5 
REMARK    4  A    between atoms: C_4  and  C_21 
REMARK       I    between atoms: C_5  and  N_6 
REMARK    5  A    between atoms: N_6  and  C_7 
REMARK    6  A    between atoms: C_14  and  C_15 
REMARK       I    between atoms: C_15  and  N_16 
ROOT
HETATM    1  C   UNL     1       5.305  27.196  52.430  1.00  0.00     0.035 A 
HETATM    2  C   UNL     1       5.296  26.948  51.050  1.00  0.00     0.046 A 
HETATM    3  C   UNL     1       4.531  27.776  50.198  1.00  0.00     0.030 A 
HETATM    4  C   UNL     1       3.790  28.811  50.755  1.00  0.00     0.063 A 
HETATM    5  N   UNL     1       3.166  29.418  49.703  1.00  0.00    -0.277 N 
HETATM    6  H   UNL     1       2.538  30.213  49.738  1.00  0.00     0.189 HD
HETATM    7  N   UNL     1       3.446  28.882  48.504  1.00  0.00    -0.168 NA
HETATM    8  C   UNL     1       4.291  27.866  48.793  1.00  0.00     0.156 A 
HETATM    9  C   UNL     1       3.769  29.082  52.125  1.00  0.00     0.034 A 
HETATM   10  C   UNL     1       4.548  28.257  52.946  1.00  0.00     0.032 A 
ENDROOT
BRANCH   1  11
HETATM   11  N   UNL     1       6.065  26.452  53.356  1.00  0.00    -0.327 N 
HETATM   12  C   UNL     1       5.804  25.176  53.846  1.00  0.00     0.231 C 
HETATM   13  O   UNL     1       4.785  24.531  53.628  1.00  0.00    -0.272 OA
HETATM   14  H   UNL     1       6.929  26.880  53.668  1.00  0.00     0.169 HD
BRANCH  12  15
HETATM   15  C   UNL     1       6.949  24.650  54.742  1.00  0.00     0.115 C 
BRANCH  15  16
HETATM   16  C   UNL     1       6.725  24.810  56.278  1.00  0.00    -0.001 C 
HETATM   17  C   UNL     1       5.370  25.430  56.651  1.00  0.00     0.011 C 
BRANCH  16  18
HETATM   18  C   UNL     1       7.855  25.581  56.999  1.00  0.00     0.001 C 
HETATM   19  C   UNL     1       8.994  24.697  57.492  1.00  0.00     0.005 C 
ENDBRANCH  16  18
ENDBRANCH  15  16
BRANCH  15  20
HETATM   20  C   UNL     1       7.368  23.220  54.386  1.00  0.00    -0.045 A 
HETATM   21  C   UNL     1       7.427  22.246  55.395  1.00  0.00     0.008 A 
HETATM   22  C   UNL     1       7.802  20.934  55.098  1.00  0.00     0.001 A 
HETATM   23  C   UNL     1       8.121  20.579  53.790  1.00  0.00     0.000 A 
HETATM   24  C   UNL     1       8.058  21.532  52.776  1.00  0.00     0.001 A 
HETATM   25  C   UNL     1       7.679  22.844  53.069  1.00  0.00     0.008 A 
ENDBRANCH  15  20
ENDBRANCH  12  15
ENDBRANCH   1  11
BRANCH   8  26
HETATM   26  C   UNL     1       4.854  27.021  47.731  1.00  0.00     0.270 C 
HETATM   27  N   UNL     1       6.044  27.473  47.229  1.00  0.00    -0.365 N 
HETATM   28  H   UNL     1       6.444  28.319  47.618  1.00  0.00     0.159 HD
HETATM   29  H   UNL     1       6.515  26.947  46.511  1.00  0.00     0.159 HD
HETATM   30  O   UNL     1       4.340  25.990  47.308  1.00  0.00    -0.266 OA
ENDBRANCH   8  26
TORSDOF 6
ENDMDL
MODEL 2
REMARK VINA RESULT:      -9.0      4.054      6.477
REMARK  6 active torsions:
REMARK  status: ('A' for Active; 'I' for Inactive)
REMARK    1  A    between atoms: C_2  and  C_3 
REMARK    2  A    between atoms: C_3  and  C_4 
REMARK    3  A    between atoms: C_4  and  C_5 
REMARK    4  A    between atoms: C_4  and  C_21 
REMARK       I    between atoms: C_5  and  N_6 
REMARK    5  A    between atoms: N_6  and  C_7 
REMARK    6  A    between atoms: C_14  and  C_15 
REMARK       I    between atoms: C_15  and  N_16 
ROOT
HETATM    1  C   UNL     1       6.631  27.233  55.910  1.00  0.00     0.035 A 
HETATM    2  C   UNL     1       7.806  27.950  56.176  1.00  0.00     0.046 A 
HETATM    3  C   UNL     1       7.773  29.029  57.088  1.00  0.00     0.030 A 
HETATM    4  C   UNL     1       6.565  29.362  57.689  1.00  0.00     0.063 A 
HETATM    5  N   UNL     1       6.846  30.426  58.499  1.00  0.00    -0.277 N 
HETATM    6  H   UNL     1       6.197  30.934  59.090  1.00  0.00     0.189 HD
HETATM    7  N   UNL     1       8.133  30.808  58.493  1.00  0.00    -0.168 NA
HETATM    8  C   UNL     1       8.721  29.952  57.627  1.00  0.00     0.156 A 
HETATM    9  C   UNL     1       5.376  28.676  57.442  1.00  0.00     0.034 A 
HETATM   10  C   UNL     1       5.438  27.601  56.546  1.00  0.00     0.032 A 
ENDROOT
BRANCH   1  11
HETATM   11  N   UNL     1       6.571  26.119  55.047  1.00  0.00    -0.327 N 
HETATM   12  C   UNL     1       7.330  24.954  55.101  1.00  0.00     0.231 C 
HETATM   13  O   UNL     1       8.271  24.759  55.861  1.00  0.00    -0.272 OA
HETATM   14  H   UNL     1       5.859  26.153  54.327  1.00  0.00     0.169 HD
BRANCH  12  15
HETATM   15  C   UNL     1       6.871  23.910  54.057  1.00  0.00     0.115 C 
BRANCH  15  16
HETATM   16  C   UNL     1       6.969  24.363  52.568  1.00  0.00    -0.001 C 
HETATM   17  C   UNL     1       8.195  25.238  52.260  1.00  0.00     0.011 C 
BRANCH  16  18
HETATM   18  C   UNL     1       5.696  25.065  52.041  1.00  0.00     0.001 C 
HETATM   19  C   UNL     1       4.429  24.711  52.808  1.00  0.00     0.005 C 
ENDBRANCH  16  18
ENDBRANCH  15  16
BRANCH  15  20
HETATM   20  C   UNL     1       7.522  22.539  54.266  1.00  0.00    -0.045 A 
HETATM   21  C   UNL     1       7.520  21.962  55.546  1.00  0.00     0.008 A 
HETATM   22  C   UNL     1       8.104  20.712  55.765  1.00  0.00     0.001 A 
HETATM   23  C   UNL     1       8.692  20.023  54.708  1.00  0.00     0.000 A 
HETATM   24  C   UNL     1       8.693  20.577  53.431  1.00  0.00     0.001 A 
HETATM   25  C   UNL     1       8.108  21.825  53.208  1.00  0.00     0.008 A 
ENDBRANCH  15  20
ENDBRANCH  12  15
ENDBRANCH   1  11
BRANCH   8  26
HETATM   26  C   UNL     1      10.161  30.025  57.345  1.00  0.00     0.270 C 
HETATM   27  N   UNL     1      10.753  31.186  57.763  1.00  0.00    -0.365 N 
HETATM   28  H   UNL     1      10.181  31.881  58.229  1.00  0.00     0.159 HD
HETATM   29  H   UNL     1      11.743  31.317  57.629  1.00  0.00     0.159 HD
HETATM   30  O   UNL     1      10.813  29.145  56.795  1.00  0.00    -0.266 OA
ENDBRANCH   8  26
TORSDOF 6
ENDMDL
MODEL 3
REMARK VINA RESULT:      -8.9      4.864      7.786
REMARK  6 active torsions:
REMARK  status: ('A' for Active; 'I' for Inactive)
REMARK    1  A    between atoms: C_2  and  C_3 
REMARK    2  A    between atoms: C_3  and  C_4 
REMARK    3  A    between atoms: C_4  and  C_5 
REMARK    4  A    between atoms: C_4  and  C_21 
REMARK       I    between atoms: C_5  and  N_6 
REMARK    5  A    between atoms: N_6  and  C_7 
REMARK    6  A    between atoms: C_14  and  C_15 
REMARK       I    between atoms: C_15  and  N_16 
ROOT
HETATM    1  C   UNL     1       8.483  28.290  57.198  1.00  0.00     0.035 A 
HETATM    2  C   UNL     1       8.005  29.182  58.169  1.00  0.00     0.046 A 
HETATM    3  C   UNL     1       8.760  30.333  58.488  1.00  0.00     0.030 A 
HETATM    4  C   UNL     1       9.971  30.543  57.841  1.00  0.00     0.063 A 
HETATM    5  N   UNL     1      10.459  31.711  58.355  1.00  0.00    -0.277 N 
HETATM    6  H   UNL     1      11.330  32.170  58.114  1.00  0.00     0.189 HD
HETATM    7  N   UNL     1       9.666  32.292  59.270  1.00  0.00    -0.168 NA
HETATM    8  C   UNL     1       8.609  31.453  59.363  1.00  0.00     0.156 A 
HETATM    9  C   UNL     1      10.480  29.673  56.876  1.00  0.00     0.034 A 
HETATM   10  C   UNL     1       9.706  28.547  56.566  1.00  0.00     0.032 A 
ENDROOT
BRANCH   1  11
HETATM   11  N   UNL     1       7.786  27.136  56.783  1.00  0.00    -0.327 N 
HETATM   12  C   UNL     1       8.101  25.806  57.045  1.00  0.00     0.231 C 
HETATM   13  O   UNL     1       9.125  25.420  57.598  1.00  0.00    -0.272 OA
HETATM   14  H   UNL     1       6.928  27.297  56.268  1.00  0.00     0.169 HD
BRANCH  12  15
HETATM   15  C   UNL     1       7.014  24.836  56.529  1.00  0.00     0.115 C 
BRANCH  15  16
HETATM   16  C   UNL     1       5.656  25.497  56.140  1.00  0.00    -0.001 C 
HETATM   17  C   UNL     1       4.530  25.258  57.158  1.00  0.00     0.011 C 
BRANCH  16  18
HETATM   18  C   UNL     1       5.156  25.118  54.726  1.00  0.00     0.001 C 
HETATM   19  C   UNL     1       4.954  26.309  53.799  1.00  0.00     0.005 C 
ENDBRANCH  16  18
ENDBRANCH  15  16
BRANCH  15  20
HETATM   20  C   UNL     1       7.524  23.914  55.417  1.00  0.00    -0.045 A 
HETATM   21  C   UNL     1       7.488  22.523  55.603  1.00  0.00     0.008 A 
HETATM   22  C   UNL     1       7.943  21.659  54.605  1.00  0.00     0.001 A 
HETATM   23  C   UNL     1       8.436  22.174  53.408  1.00  0.00     0.000 A 
HETATM   24  C   UNL     1       8.469  23.551  53.205  1.00  0.00     0.001 A 
HETATM   25  C   UNL     1       8.011  24.417  54.200  1.00  0.00     0.008 A 
ENDBRANCH  15  20
ENDBRANCH  12  15
ENDBRANCH   1  11
BRANCH   8  26
HETATM   26  C   UNL     1       7.486  31.742  60.264  1.00  0.00     0.270 C 
HETATM   27  N   UNL     1       7.473  30.981  61.402  1.00  0.00    -0.365 N 
HETATM   28  H   UNL     1       8.216  30.306  61.542  1.00  0.00     0.159 HD
HETATM   29  H   UNL     1       6.750  31.124  62.089  1.00  0.00     0.159 HD
HETATM   30  O   UNL     1       6.621  32.587  60.058  1.00  0.00    -0.266 OA
ENDBRANCH   8  26
TORSDOF 6
ENDMDL
MODEL 4
REMARK VINA RESULT:      -8.9      1.709      3.426
REMARK  6 active torsions:
REMARK  status: ('A' for Active; 'I' for Inactive)
REMARK    1  A    between atoms: C_2  and  C_3 
REMARK    2  A    between atoms: C_3  and  C_4 
REMARK    3  A    between atoms: C_4  and  C_5 
REMARK    4  A    between atoms: C_4  and  C_21 
REMARK       I    between atoms: C_5  and  N_6 
REMARK    5  A    between atoms: N_6  and  C_7 
REMARK    6  A    between atoms: C_14  and  C_15 
REMARK       I    between atoms: C_15  and  N_16 
ROOT
HETATM    1  C   UNL     1       5.450  25.539  51.849  1.00  0.00     0.035 A 
HETATM    2  C   UNL     1       4.685  25.209  50.722  1.00  0.00     0.046 A 
HETATM    3  C   UNL     1       4.404  26.202  49.756  1.00  0.00     0.030 A 
HETATM    4  C   UNL     1       4.881  27.491  49.960  1.00  0.00     0.063 A 
HETATM    5  N   UNL     1       4.452  28.211  48.881  1.00  0.00    -0.277 N 
HETATM    6  H   UNL     1       4.614  29.195  48.697  1.00  0.00     0.189 HD
HETATM    7  N   UNL     1       3.750  27.504  47.982  1.00  0.00    -0.168 NA
HETATM    8  C   UNL     1       3.713  26.258  48.507  1.00  0.00     0.156 A 
HETATM    9  C   UNL     1       5.638  27.856  51.074  1.00  0.00     0.034 A 
HETATM   10  C   UNL     1       5.917  26.850  52.008  1.00  0.00     0.032 A 
ENDROOT
BRANCH   1  11
HETATM   11  N   UNL     1       5.816  24.611  52.847  1.00  0.00    -0.327 N 
HETATM   12  C   UNL     1       7.064  24.034  53.060  1.00  0.00     0.231 C 
HETATM   13  O   UNL     1       8.035  24.160  52.324  1.00  0.00    -0.272 OA
HETATM   14  H   UNL     1       5.094  24.370  53.516  1.00  0.00     0.169 HD
BRANCH  12  15
HETATM   15  C   UNL     1       7.095  23.168  54.341  1.00  0.00     0.115 C 
BRANCH  15  16
HETATM   16  C   UNL     1       7.981  21.887  54.263  1.00  0.00    -0.001 C 
HETATM   17  C   UNL     1       7.901  21.153  52.916  1.00  0.00     0.011 C 
BRANCH  16  18
HETATM   18  C   UNL     1       7.731  20.881  55.410  1.00  0.00     0.001 C 
HETATM   19  C   UNL     1       8.996  20.430  56.128  1.00  0.00     0.005 C 
ENDBRANCH  16  18
ENDBRANCH  15  16
BRANCH  15  20
HETATM   20  C   UNL     1       7.406  23.986  55.599  1.00  0.00    -0.045 A 
HETATM   21  C   UNL     1       8.720  24.021  56.092  1.00  0.00     0.008 A 
HETATM   22  C   UNL     1       9.032  24.761  57.234  1.00  0.00     0.001 A 
HETATM   23  C   UNL     1       8.037  25.477  57.895  1.00  0.00     0.000 A 
HETATM   24  C   UNL     1       6.731  25.460  57.413  1.00  0.00     0.001 A 
HETATM   25  C   UNL     1       6.416  24.724  56.268  1.00  0.00     0.008 A 
ENDBRANCH  15  20
ENDBRANCH  12  15
ENDBRANCH   1  11
BRANCH   8  26
HETATM   26  C   UNL     1       3.036  25.157  47.807  1.00  0.00     0.270 C 
HETATM   27  N   UNL     1       2.640  25.466  46.534  1.00  0.00    -0.365 N 
HETATM   28  H   UNL     1       2.844  26.391  46.173  1.00  0.00     0.159 HD
HETATM   29  H   UNL     1       2.185  24.766  45.970  1.00  0.00     0.159 HD
HETATM   30  O   UNL     1       2.831  24.045  48.281  1.00  0.00    -0.266 OA
ENDBRANCH   8  26
TORSDOF 6
ENDMDL
MODEL 5
REMARK VINA RESULT:      -8.7      4.304      6.898
REMARK  6 active torsions:
REMARK  status: ('A' for Active; 'I' for Inactive)
REMARK    1  A    between atoms: C_2  and  C_3 
REMARK    2  A    between atoms: C_3  and  C_4 
REMARK    3  A    between atoms: C_4  and  C_5 
REMARK    4  A    between atoms: C_4  and  C_21 
REMARK       I    between atoms: C_5  and  N_6 
REMARK    5  A    between atoms: N_6  and  C_7 
REMARK    6  A    between atoms: C_14  and  C_15 
REMARK       I    between atoms: C_15  and  N_16 
ROOT
HETATM    1  C   UNL     1       7.925  28.137  56.775  1.00  0.00     0.035 A 
HETATM    2  C   UNL     1       6.729  28.840  56.975  1.00  0.00     0.046 A 
HETATM    3  C   UNL     1       6.750  30.064  57.682  1.00  0.00     0.030 A 
HETATM    4  C   UNL     1       7.961  30.533  58.177  1.00  0.00     0.063 A 
HETATM    5  N   UNL     1       7.664  31.710  58.804  1.00  0.00    -0.277 N 
HETATM    6  H   UNL     1       8.309  32.327  59.285  1.00  0.00     0.189 HD
HETATM    7  N   UNL     1       6.370  32.061  58.749  1.00  0.00    -0.168 NA
HETATM    8  C   UNL     1       5.790  31.054  58.055  1.00  0.00     0.156 A 
HETATM    9  C   UNL     1       9.169  29.855  58.004  1.00  0.00     0.034 A 
HETATM   10  C   UNL     1       9.124  28.653  57.286  1.00  0.00     0.032 A 
ENDROOT
BRANCH   1  11
HETATM   11  N   UNL     1       8.014  26.930  56.051  1.00  0.00    -0.327 N 
HETATM   12  C   UNL     1       7.430  25.705  56.358  1.00  0.00     0.231 C 
HETATM   13  O   UNL     1       6.825  25.451  57.394  1.00  0.00    -0.272 OA
HETATM   14  H   UNL     1       8.528  26.972  55.179  1.00  0.00     0.169 HD
BRANCH  12  15
HETATM   15  C   UNL     1       7.651  24.657  55.243  1.00  0.00     0.115 C 
BRANCH  15  16
HETATM   16  C   UNL     1       7.496  23.168  55.682  1.00  0.00    -0.001 C 
HETATM   17  C   UNL     1       8.448  22.747  56.812  1.00  0.00     0.011 C 
BRANCH  16  18
HETATM   18  C   UNL     1       7.606  22.157  54.517  1.00  0.00     0.001 C 
HETATM   19  C   UNL     1       9.027  21.947  54.009  1.00  0.00     0.005 C 
ENDBRANCH  16  18
ENDBRANCH  15  16
BRANCH  15  20
HETATM   20  C   UNL     1       6.834  24.955  53.982  1.00  0.00    -0.045 A 
HETATM   21  C   UNL     1       5.432  24.948  54.051  1.00  0.00     0.008 A 
HETATM   22  C   UNL     1       4.661  25.220  52.918  1.00  0.00     0.001 A 
HETATM   23  C   UNL     1       5.282  25.505  51.705  1.00  0.00     0.000 A 
HETATM   24  C   UNL     1       6.672  25.526  51.623  1.00  0.00     0.001 A 
HETATM   25  C   UNL     1       7.445  25.258  52.755  1.00  0.00     0.008 A 
ENDBRANCH  15  20
ENDBRANCH  12  15
ENDBRANCH   1  11
BRANCH   8  26
HETATM   26  C   UNL     1       4.352  31.066  57.758  1.00  0.00     0.270 C 
HETATM   27  N   UNL     1       3.621  30.175  58.497  1.00  0.00    -0.365 N 
HETATM   28  H   UNL     1       4.104  29.601  59.179  1.00  0.00     0.159 HD
HETATM   29  H   UNL     1       2.623  30.126  58.375  1.00  0.00     0.159 HD
HETATM   30  O   UNL     1       3.812  31.798  56.935  1.00  0.00    -0.266 OA
ENDBRANCH   8  26
TORSDOF 6
ENDMDL
MODEL 6
REMARK VINA RESULT:      -8.5      4.102      6.765
REMARK  6 active torsions:
REMARK  status: ('A' for Active; 'I' for Inactive)
REMARK    1  A    between atoms: C_2  and  C_3 
REMARK    2  A    between atoms: C_3  and  C_4 
REMARK    3  A    between atoms: C_4  and  C_5 
REMARK    4  A    between atoms: C_4  and  C_21 
REMARK       I    between atoms: C_5  and  N_6 
REMARK    5  A    between atoms: N_6  and  C_7 
REMARK    6  A    between atoms: C_14  and  C_15 
REMARK       I    between atoms: C_15  and  N_16 
ROOT
HETATM    1  C   UNL     1       5.591  28.297  55.814  1.00  0.00     0.035 A 
HETATM    2  C   UNL     1       6.479  28.706  56.818  1.00  0.00     0.046 A 
HETATM    3  C   UNL     1       6.385  30.015  57.341  1.00  0.00     0.030 A 
HETATM    4  C   UNL     1       5.419  30.874  56.831  1.00  0.00     0.063 A 
HETATM    5  N   UNL     1       5.575  32.044  57.518  1.00  0.00    -0.277 N 
HETATM    6  H   UNL     1       5.041  32.898  57.404  1.00  0.00     0.189 HD
HETATM    7  N   UNL     1       6.548  32.023  58.443  1.00  0.00    -0.168 NA
HETATM    8  C   UNL     1       7.057  30.773  58.348  1.00  0.00     0.156 A 
HETATM    9  C   UNL     1       4.524  30.503  55.826  1.00  0.00     0.034 A 
HETATM   10  C   UNL     1       4.628  29.195  55.336  1.00  0.00     0.032 A 
ENDROOT
BRANCH   1  11
HETATM   11  N   UNL     1       5.580  27.001  55.256  1.00  0.00    -0.327 N 
HETATM   12  C   UNL     1       6.628  26.329  54.635  1.00  0.00     0.231 C 
HETATM   13  O   UNL     1       7.721  26.817  54.370  1.00  0.00    -0.272 OA
HETATM   14  H   UNL     1       4.717  26.480  55.360  1.00  0.00     0.169 HD
BRANCH  12  15
HETATM   15  C   UNL     1       6.256  24.871  54.278  1.00  0.00     0.115 C 
BRANCH  15  16
HETATM   16  C   UNL     1       6.234  24.540  52.754  1.00  0.00    -0.001 C 
HETATM   17  C   UNL     1       7.487  25.005  51.995  1.00  0.00     0.011 C 
BRANCH  16  18
HETATM   18  C   UNL     1       4.973  25.049  52.020  1.00  0.00     0.001 C 
HETATM   19  C   UNL     1       5.267  26.002  50.868  1.00  0.00     0.005 C 
ENDBRANCH  16  18
ENDBRANCH  15  16
BRANCH  15  20
HETATM   20  C   UNL     1       7.079  23.844  55.061  1.00  0.00    -0.045 A 
HETATM   21  C   UNL     1       7.366  22.599  54.477  1.00  0.00     0.008 A 
HETATM   22  C   UNL     1       8.117  21.645  55.166  1.00  0.00     0.001 A 
HETATM   23  C   UNL     1       8.594  21.923  56.445  1.00  0.00     0.000 A 
HETATM   24  C   UNL     1       8.327  23.156  57.033  1.00  0.00     0.001 A 
HETATM   25  C   UNL     1       7.579  24.114  56.345  1.00  0.00     0.008 A 
ENDBRANCH  15  20
ENDBRANCH  12  15
ENDBRANCH   1  11
BRANCH   8  26
HETATM   26  C   UNL     1       8.154  30.331  59.220  1.00  0.00     0.270 C 
HETATM   27  N   UNL     1       7.941  30.572  60.551  1.00  0.00    -0.365 N 
HETATM   28  H   UNL     1       7.071  31.010  60.831  1.00  0.00     0.159 HD
HETATM   29  H   UNL     1       8.631  30.286  61.226  1.00  0.00     0.159 HD
HETATM   30  O   UNL     1       9.181  29.784  58.833  1.00  0.00    -0.266 OA
ENDBRANCH   8  26
TORSDOF 6
ENDMDL
MODEL 7
REMARK VINA RESULT:      -8.5      1.798      2.674
REMARK  6 active torsions:
REMARK  status: ('A' for Active; 'I' for Inactive)
REMARK    1  A    between atoms: C_2  and  C_3 
REMARK    2  A    between atoms: C_3  and  C_4 
REMARK    3  A    between atoms: C_4  and  C_5 
REMARK    4  A    between atoms: C_4  and  C_21 
REMARK       I    between atoms: C_5  and  N_6 
REMARK    5  A    between atoms: N_6  and  C_7 
REMARK    6  A    between atoms: C_14  and  C_15 
REMARK       I    between atoms: C_15  and  N_16 
ROOT
HETATM    1  C   UNL     1       5.758  26.835  51.868  1.00  0.00     0.035 A 
HETATM    2  C   UNL     1       5.439  28.200  51.873  1.00  0.00     0.046 A 
HETATM    3  C   UNL     1       4.720  28.752  50.788  1.00  0.00     0.030 A 
HETATM    4  C   UNL     1       4.361  27.925  49.731  1.00  0.00     0.063 A 
HETATM    5  N   UNL     1       3.695  28.730  48.851  1.00  0.00    -0.277 N 
HETATM    6  H   UNL     1       3.291  28.463  47.961  1.00  0.00     0.189 HD
HETATM    7  N   UNL     1       3.572  30.007  49.247  1.00  0.00    -0.168 NA
HETATM    8  C   UNL     1       4.199  30.037  50.445  1.00  0.00     0.156 A 
HETATM    9  C   UNL     1       4.669  26.564  49.689  1.00  0.00     0.034 A 
HETATM   10  C   UNL     1       5.368  26.039  50.783  1.00  0.00     0.032 A 
ENDROOT
BRANCH   1  11
HETATM   11  N   UNL     1       6.437  26.185  52.919  1.00  0.00    -0.327 N 
HETATM   12  C   UNL     1       5.986  25.125  53.701  1.00  0.00     0.231 C 
HETATM   13  O   UNL     1       4.855  24.656  53.668  1.00  0.00    -0.272 OA
HETATM   14  H   UNL     1       7.384  26.498  53.098  1.00  0.00     0.169 HD
BRANCH  12  15
HETATM   15  C   UNL     1       7.079  24.603  54.662  1.00  0.00     0.115 C 
BRANCH  15  16
HETATM   16  C   UNL     1       6.829  24.882  56.176  1.00  0.00    -0.001 C 
HETATM   17  C   UNL     1       5.536  25.660  56.463  1.00  0.00     0.011 C 
BRANCH  16  18
HETATM   18  C   UNL     1       8.012  25.576  56.889  1.00  0.00     0.001 C 
HETATM   19  C   UNL     1       8.960  24.617  57.598  1.00  0.00     0.005 C 
ENDBRANCH  16  18
ENDBRANCH  15  16
BRANCH  15  20
HETATM   20  C   UNL     1       7.428  23.132  54.416  1.00  0.00    -0.045 A 
HETATM   21  C   UNL     1       7.746  22.706  53.116  1.00  0.00     0.008 A 
HETATM   22  C   UNL     1       8.072  21.372  52.864  1.00  0.00     0.001 A 
HETATM   23  C   UNL     1       8.088  20.448  53.906  1.00  0.00     0.000 A 
HETATM   24  C   UNL     1       7.784  20.858  55.202  1.00  0.00     0.001 A 
HETATM   25  C   UNL     1       7.462  22.192  55.458  1.00  0.00     0.008 A 
ENDBRANCH  15  20
ENDBRANCH  12  15
ENDBRANCH   1  11
BRANCH   8  26
HETATM   26  C   UNL     1       4.275  31.275  51.233  1.00  0.00     0.270 C 
HETATM   27  N   UNL     1       5.504  31.878  51.207  1.00  0.00    -0.365 N 
HETATM   28  H   UNL     1       6.242  31.452  50.659  1.00  0.00     0.159 HD
HETATM   29  H   UNL     1       5.645  32.744  51.703  1.00  0.00     0.159 HD
HETATM   30  O   UNL     1       3.344  31.763  51.864  1.00  0.00    -0.266 OA
ENDBRANCH   8  26
TORSDOF 6
ENDMDL
MODEL 8
REMARK VINA RESULT:      -8.1      7.182      9.987
REMARK  6 active torsions:
REMARK  status: ('A' for Active; 'I' for Inactive)
REMARK    1  A    between atoms: C_2  and  C_3 
REMARK    2  A    between atoms: C_3  and  C_4 
REMARK    3  A    between atoms: C_4  and  C_5 
REMARK    4  A    between atoms: C_4  and  C_21 
REMARK       I    between atoms: C_5  and  N_6 
REMARK    5  A    between atoms: N_6  and  C_7 
REMARK    6  A    between atoms: C_14  and  C_15 
REMARK       I    between atoms: C_15  and  N_16 
ROOT
HETATM    1  C   UNL     1       7.588  30.030  58.090  1.00  0.00     0.035 A 
HETATM    2  C   UNL     1       6.542  29.555  57.288  1.00  0.00     0.046 A 
HETATM    3  C   UNL     1       6.832  29.004  56.019  1.00  0.00     0.030 A 
HETATM    4  C   UNL     1       8.153  28.963  55.591  1.00  0.00     0.063 A 
HETATM    5  N   UNL     1       8.114  28.392  54.350  1.00  0.00    -0.277 N 
HETATM    6  H   UNL     1       8.899  28.208  53.736  1.00  0.00     0.189 HD
HETATM    7  N   UNL     1       6.886  28.041  53.936  1.00  0.00    -0.168 NA
HETATM    8  C   UNL     1       6.081  28.411  54.958  1.00  0.00     0.156 A 
HETATM    9  C   UNL     1       9.218  29.434  56.360  1.00  0.00     0.034 A 
HETATM   10  C   UNL     1       8.906  29.960  57.620  1.00  0.00     0.032 A 
ENDROOT
BRANCH   1  11
HETATM   11  N   UNL     1       7.405  30.560  59.385  1.00  0.00    -0.327 N 
HETATM   12  C   UNL     1       7.008  31.848  59.732  1.00  0.00     0.231 C 
HETATM   13  O   UNL     1       6.861  32.777  58.947  1.00  0.00    -0.272 OA
HETATM   14  H   UNL     1       7.537  29.913  60.153  1.00  0.00     0.169 HD
BRANCH  12  15
HETATM   15  C   UNL     1       6.792  32.001  61.255  1.00  0.00     0.115 C 
BRANCH  15  16
HETATM   16  C   UNL     1       8.037  32.479  62.064  1.00  0.00    -0.001 C 
HETATM   17  C   UNL     1       9.375  31.949  61.524  1.00  0.00     0.011 C 
BRANCH  16  18
HETATM   18  C   UNL     1       7.948  32.189  63.581  1.00  0.00     0.001 C 
HETATM   19  C   UNL     1       7.639  33.415  64.430  1.00  0.00     0.005 C 
ENDBRANCH  16  18
ENDBRANCH  15  16
BRANCH  15  20
HETATM   20  C   UNL     1       5.553  32.834  61.595  1.00  0.00    -0.045 A 
HETATM   21  C   UNL     1       5.645  34.235  61.610  1.00  0.00     0.008 A 
HETATM   22  C   UNL     1       4.530  35.020  61.913  1.00  0.00     0.001 A 
HETATM   23  C   UNL     1       3.310  34.415  62.201  1.00  0.00     0.000 A 
HETATM   24  C   UNL     1       3.199  33.027  62.181  1.00  0.00     0.001 A 
HETATM   25  C   UNL     1       4.311  32.240  61.874  1.00  0.00     0.008 A 
ENDBRANCH  15  20
ENDBRANCH  12  15
ENDBRANCH   1  11
BRANCH   8  26
HETATM   26  C   UNL     1       4.631  28.182  54.904  1.00  0.00     0.270 C 
HETATM   27  N   UNL     1       4.237  27.326  53.912  1.00  0.00    -0.365 N 
HETATM   28  H   UNL     1       4.947  26.918  53.314  1.00  0.00     0.159 HD
HETATM   29  H   UNL     1       3.262  27.093  53.811  1.00  0.00     0.159 HD
HETATM   30  O   UNL     1       3.813  28.686  55.667  1.00  0.00    -0.266 OA
ENDBRANCH   8  26
TORSDOF 6
ENDMDL
MODEL 9
REMARK VINA RESULT:      -8.0     10.578     13.605
REMARK  6 active torsions:
REMARK  status: ('A' for Active; 'I' for Inactive)
REMARK    1  A    between atoms: C_2  and  C_3 
REMARK    2  A    between atoms: C_3  and  C_4 
REMARK    3  A    between atoms: C_4  and  C_5 
REMARK    4  A    between atoms: C_4  and  C_21 
REMARK       I    between atoms: C_5  and  N_6 
REMARK    5  A    between atoms: N_6  and  C_7 
REMARK    6  A    between atoms: C_14  and  C_15 
REMARK       I    between atoms: C_15  and  N_16 
ROOT
HETATM    1  C   UNL     1       7.044  32.742  61.992  1.00  0.00     0.035 A 
HETATM    2  C   UNL     1       6.591  32.254  60.758  1.00  0.00     0.046 A 
HETATM    3  C   UNL     1       7.445  31.446  59.973  1.00  0.00     0.030 A 
HETATM    4  C   UNL     1       8.724  31.170  60.439  1.00  0.00     0.063 A 
HETATM    5  N   UNL     1       9.299  30.387  59.478  1.00  0.00    -0.277 N 
HETATM    6  H   UNL     1      10.236  30.000  59.483  1.00  0.00     0.189 HD
HETATM    7  N   UNL     1       8.503  30.114  58.432  1.00  0.00    -0.168 NA
HETATM    8  C   UNL     1       7.351  30.760  58.724  1.00  0.00     0.156 A 
HETATM    9  C   UNL     1       9.211  31.646  61.658  1.00  0.00     0.034 A 
HETATM   10  C   UNL     1       8.340  32.430  62.425  1.00  0.00     0.032 A 
ENDROOT
BRANCH   1  11
HETATM   11  N   UNL     1       6.256  33.521  62.864  1.00  0.00    -0.327 N 
HETATM   12  C   UNL     1       5.267  33.086  63.741  1.00  0.00     0.231 C 
HETATM   13  O   UNL     1       4.840  31.939  63.811  1.00  0.00    -0.272 OA
HETATM   14  H   UNL     1       6.465  34.513  62.886  1.00  0.00     0.169 HD
BRANCH  12  15
HETATM   15  C   UNL     1       4.725  34.233  64.626  1.00  0.00     0.115 C 
BRANCH  15  16
HETATM   16  C   UNL     1       5.505  34.481  65.953  1.00  0.00    -0.001 C 
HETATM   17  C   UNL     1       6.895  33.826  65.993  1.00  0.00     0.011 C 
BRANCH  16  18
HETATM   18  C   UNL     1       4.719  34.088  67.225  1.00  0.00     0.001 C 
HETATM   19  C   UNL     1       5.451  34.390  68.526  1.00  0.00     0.005 C 
ENDBRANCH  16  18
ENDBRANCH  15  16
BRANCH  15  20
HETATM   20  C   UNL     1       4.524  35.536  63.846  1.00  0.00    -0.045 A 
HETATM   21  C   UNL     1       3.465  35.636  62.930  1.00  0.00     0.008 A 
HETATM   22  C   UNL     1       3.256  36.813  62.208  1.00  0.00     0.001 A 
HETATM   23  C   UNL     1       4.100  37.904  62.394  1.00  0.00     0.000 A 
HETATM   24  C   UNL     1       5.150  37.824  63.306  1.00  0.00     0.001 A 
HETATM   25  C   UNL     1       5.359  36.650  64.032  1.00  0.00     0.008 A 
ENDBRANCH  15  20
ENDBRANCH  12  15
ENDBRANCH   1  11
BRANCH   8  26
HETATM   26  C   UNL     1       6.195  30.699  57.819  1.00  0.00     0.270 C 
HETATM   27  N   UNL     1       5.582  29.475  57.778  1.00  0.00    -0.365 N 
HETATM   28  H   UNL     1       5.947  28.731  58.361  1.00  0.00     0.159 HD
HETATM   29  H   UNL     1       4.768  29.344  57.200  1.00  0.00     0.159 HD
HETATM   30  O   UNL     1       5.779  31.637  57.148  1.00  0.00    -0.266 OA
ENDBRANCH   8  26
TORSDOF 6
ENDMDL
MODEL 10
REMARK VINA RESULT:      -8.0      9.165     12.230
REMARK  6 active torsions:
REMARK  status: ('A' for Active; 'I' for Inactive)
REMARK    1  A    between atoms: C_2  and  C_3 
REMARK    2  A    between atoms: C_3  and  C_4 
REMARK    3  A    between atoms: C_4  and  C_5 
REMARK    4  A    between atoms: C_4  and  C_21 
REMARK       I    between atoms: C_5  and  N_6 
REMARK    5  A    between atoms: N_6  and  C_7 
REMARK    6  A    between atoms: C_14  and  C_15 
REMARK       I    between atoms: C_15  and  N_16 
ROOT
HETATM    1  C   UNL     1       6.653  32.096  61.914  1.00  0.00     0.035 A 
HETATM    2  C   UNL     1       5.559  32.803  62.433  1.00  0.00     0.046 A 
HETATM    3  C   UNL     1       5.703  33.521  63.641  1.00  0.00     0.030 A 
HETATM    4  C   UNL     1       6.928  33.494  64.296  1.00  0.00     0.063 A 
HETATM    5  N   UNL     1       6.758  34.262  65.413  1.00  0.00    -0.277 N 
HETATM    6  H   UNL     1       7.447  34.462  66.130  1.00  0.00     0.189 HD
HETATM    7  N   UNL     1       5.535  34.802  65.539  1.00  0.00    -0.168 NA
HETATM    8  C   UNL     1       4.870  34.355  64.449  1.00  0.00     0.156 A 
HETATM    9  C   UNL     1       8.035  32.795  63.813  1.00  0.00     0.034 A 
HETATM   10  C   UNL     1       7.871  32.104  62.605  1.00  0.00     0.032 A 
ENDROOT
BRANCH   1  11
HETATM   11  N   UNL     1       6.620  31.383  60.698  1.00  0.00    -0.327 N 
HETATM   12  C   UNL     1       7.313  31.662  59.524  1.00  0.00     0.231 C 
HETATM   13  O   UNL     1       7.992  32.664  59.327  1.00  0.00    -0.272 OA
HETATM   14  H   UNL     1       6.057  30.540  60.692  1.00  0.00     0.169 HD
BRANCH  12  15
HETATM   15  C   UNL     1       7.114  30.564  58.453  1.00  0.00     0.115 C 
BRANCH  15  16
HETATM   16  C   UNL     1       5.954  30.817  57.442  1.00  0.00    -0.001 C 
HETATM   17  C   UNL     1       5.382  32.243  57.490  1.00  0.00     0.011 C 
BRANCH  16  18
HETATM   18  C   UNL     1       4.796  29.798  57.550  1.00  0.00     0.001 C 
HETATM   19  C   UNL     1       4.457  29.103  56.238  1.00  0.00     0.005 C 
ENDBRANCH  16  18
ENDBRANCH  15  16
BRANCH  15  20
HETATM   20  C   UNL     1       8.415  30.202  57.730  1.00  0.00    -0.045 A 
HETATM   21  C   UNL     1       8.357  29.639  56.446  1.00  0.00     0.008 A 
HETATM   22  C   UNL     1       9.527  29.302  55.762  1.00  0.00     0.001 A 
HETATM   23  C   UNL     1      10.769  29.527  56.351  1.00  0.00     0.000 A 
HETATM   24  C   UNL     1      10.843  30.094  57.621  1.00  0.00     0.001 A 
HETATM   25  C   UNL     1       9.675  30.436  58.306  1.00  0.00     0.008 A 
ENDBRANCH  15  20
ENDBRANCH  12  15
ENDBRANCH   1  11
BRANCH   8  26
HETATM   26  C   UNL     1       3.474  34.740  64.200  1.00  0.00     0.270 C 
HETATM   27  N   UNL     1       3.310  36.056  63.862  1.00  0.00    -0.365 N 
HETATM   28  H   UNL     1       4.131  36.646  63.799  1.00  0.00     0.159 HD
HETATM   29  H   UNL     1       2.388  36.406  63.654  1.00  0.00     0.159 HD
HETATM   30  O   UNL     1       2.514  33.979  64.269  1.00  0.00    -0.266 OA
ENDBRANCH   8  26
TORSDOF 6
ENDMDL
