MODEL 1
REMARK VINA RESULT:      -8.4      0.000      0.000
REMARK  10 active torsions:
REMARK  status: ('A' for Active; 'I' for Inactive)
REMARK    1  A    between atoms: C_6  and  C_7 
REMARK    2  A    between atoms: C_7  and  C_8 
REMARK       I    between atoms: C_8  and  N_9 
REMARK    3  A    between atoms: N_9  and  C_10 
REMARK    4  A    between atoms: C_10  and  C_11 
REMARK    5  A    between atoms: C_11  and  N_12 
REMARK    6  A    between atoms: C_19  and  C_20 
REMARK    7  A    between atoms: C_29  and  C_30 
REMARK    8  A    between atoms: C_30  and  O_31 
REMARK    9  A    between atoms: O_31  and  C_32 
REMARK   10  A    between atoms: C_32  and  C_33 
ROOT
HETATM    1  C   UNL     1       4.978  24.832  53.090  1.00  0.00     0.071 C 
HETATM    2  C   UNL     1       5.527  26.220  53.303  1.00  0.00     0.048 C 
HETATM    3  N   UNL     1       4.915  27.201  52.513  1.00  0.00    -0.229 NA
HETATM    4  C   UNL     1       4.791  28.369  53.061  1.00  0.00     0.170 C 
HETATM    5  N   UNL     1       5.519  28.744  54.396  1.00  0.00    -0.319 N 
HETATM    6  C   UNL     1       4.664  29.331  55.171  1.00  0.00     0.011 C 
HETATM    7  C   UNL     1       6.786  27.990  54.407  1.00  0.00     0.166 C 
HETATM    8  S   UNL     1       3.621  29.564  52.655  1.00  0.00    -0.086 SA
HETATM    9  C   UNL     1       3.502  29.996  54.438  1.00  0.00     0.135 C 
HETATM   10  C   UNL     1       6.369  26.557  54.312  1.00  0.00     0.069 C 
ENDROOT
BRANCH   6  11
HETATM   11  C   UNL     1       4.794  29.281  56.665  1.00  0.00     0.156 C 
BRANCH  11  12
HETATM   12  C   UNL     1       5.188  30.614  57.259  1.00  0.00     0.223 C 
HETATM   13  N   UNL     1       5.044  30.777  58.621  1.00  0.00    -0.359 N 
HETATM   14  H   UNL     1       4.643  30.033  59.192  1.00  0.00     0.162 HD
HETATM   15  O   UNL     1       5.565  31.527  56.528  1.00  0.00    -0.273 OA
BRANCH  13  16
HETATM   16  C   UNL     1       5.475  32.041  59.216  1.00  0.00     0.150 C 
BRANCH  16  17
HETATM   17  C   UNL     1       6.952  32.119  59.638  1.00  0.00     0.254 C 
BRANCH  17  18
HETATM   18  N   UNL     1       7.278  31.077  60.694  1.00  0.00    -0.070 N 
HETATM   19  H   UNL     1       6.665  30.261  60.554  1.00  0.00     0.279 HD
HETATM   20  C   UNL     1       7.071  31.554  62.128  1.00  0.00     0.235 C 
HETATM   21  C   UNL     1       8.472  31.692  62.683  1.00  0.00     0.029 C 
HETATM   22  C   UNL     1       9.200  30.528  62.047  1.00  0.00     0.029 C 
HETATM   23  C   UNL     1       8.713  30.558  60.611  1.00  0.00     0.235 C 
ENDBRANCH  17  18
ENDBRANCH  16  17
ENDBRANCH  13  16
ENDBRANCH  11  12
ENDBRANCH   6  11
BRANCH   7  24
HETATM   24  C   UNL     1       7.942  28.406  55.304  1.00  0.00    -0.030 A 
HETATM   25  C   UNL     1       7.875  28.445  56.706  1.00  0.00     0.011 A 
HETATM   26  C   UNL     1       8.932  28.966  57.469  1.00  0.00     0.024 A 
HETATM   27  C   UNL     1      10.051  29.507  56.846  1.00  0.00     0.034 A 
HETATM   28 CL   UNL     1      11.322  30.173  57.787  1.00  0.00    -0.084 Cl
HETATM   29  C   UNL     1      10.119  29.541  55.462  1.00  0.00     0.024 A 
HETATM   30  C   UNL     1       9.073  29.008  54.703  1.00  0.00     0.011 A 
ENDBRANCH   7  24
BRANCH  10  31
HETATM   31  C   UNL     1       6.275  25.816  55.580  1.00  0.00     0.294 C 
HETATM   32  O   UNL     1       5.303  25.987  56.308  1.00  0.00    -0.259 OA
BRANCH  31  33
HETATM   33  O   UNL     1       7.414  25.167  55.870  1.00  0.00    -0.314 OA
BRANCH  33  34
HETATM   34  C   UNL     1       7.302  23.747  55.699  1.00  0.00     0.206 C 
BRANCH  34  35
HETATM   35  C   UNL     1       8.090  23.346  54.496  1.00  0.00    -0.011 C 
HETATM   36  C   UNL     1       7.757  22.331  53.687  1.00  0.00     0.009 C 
ENDBRANCH  34  35
ENDBRANCH  33  34
ENDBRANCH  31  33
ENDBRANCH  10  31
TORSDOF 10
ENDMDL
MODEL 2
REMARK VINA RESULT:      -7.8      1.595      2.035
REMARK  10 active torsions:
REMARK  status: ('A' for Active; 'I' for Inactive)
REMARK    1  A    between atoms: C_6  and  C_7 
REMARK    2  A    between atoms: C_7  and  C_8 
REMARK       I    between atoms: C_8  and  N_9 
REMARK    3  A    between atoms: N_9  and  C_10 
REMARK    4  A    between atoms: C_10  and  C_11 
REMARK    5  A    between atoms: C_11  and  N_12 
REMARK    6  A    between atoms: C_19  and  C_20 
REMARK    7  A    between atoms: C_29  and  C_30 
REMARK    8  A    between atoms: C_30  and  O_31 
REMARK    9  A    between atoms: O_31  and  C_32 
REMARK   10  A    between atoms: C_32  and  C_33 
ROOT
HETATM    1  C   UNL     1       6.734  24.031  52.940  1.00  0.00     0.071 C 
HETATM    2  C   UNL     1       6.892  25.509  53.195  1.00  0.00     0.048 C 
HETATM    3  N   UNL     1       6.421  26.319  52.154  1.00  0.00    -0.229 NA
HETATM    4  C   UNL     1       5.889  27.445  52.514  1.00  0.00     0.170 C 
HETATM    5  N   UNL     1       6.010  27.995  53.975  1.00  0.00    -0.319 N 
HETATM    6  C   UNL     1       4.841  28.401  54.352  1.00  0.00     0.011 C 
HETATM    7  C   UNL     1       7.312  27.530  54.488  1.00  0.00     0.166 C 
HETATM    8  S   UNL     1       4.731  28.352  51.621  1.00  0.00    -0.086 SA
HETATM    9  C   UNL     1       3.907  28.786  53.207  1.00  0.00     0.135 C 
HETATM   10  C   UNL     1       7.241  26.039  54.394  1.00  0.00     0.069 C 
ENDROOT
BRANCH   6  11
HETATM   11  C   UNL     1       4.441  28.412  55.799  1.00  0.00     0.156 C 
BRANCH  11  12
HETATM   12  C   UNL     1       4.373  29.809  56.373  1.00  0.00     0.223 C 
HETATM   13  N   UNL     1       3.451  30.048  57.370  1.00  0.00    -0.359 N 
HETATM   14  H   UNL     1       2.811  29.312  57.671  1.00  0.00     0.162 HD
HETATM   15  O   UNL     1       5.082  30.699  55.911  1.00  0.00    -0.273 OA
BRANCH  13  16
HETATM   16  C   UNL     1       3.413  31.378  57.973  1.00  0.00     0.150 C 
BRANCH  16  17
HETATM   17  C   UNL     1       3.486  31.425  59.509  1.00  0.00     0.254 C 
BRANCH  17  18
HETATM   18  N   UNL     1       4.425  32.522  59.981  1.00  0.00    -0.070 N 
HETATM   19  H   UNL     1       3.952  33.432  59.874  1.00  0.00     0.279 HD
HETATM   20  C   UNL     1       5.735  32.602  59.203  1.00  0.00     0.235 C 
HETATM   21  C   UNL     1       6.781  32.106  60.177  1.00  0.00     0.029 C 
HETATM   22  C   UNL     1       6.296  32.662  61.498  1.00  0.00     0.029 C 
HETATM   23  C   UNL     1       4.803  32.403  61.457  1.00  0.00     0.235 C 
ENDBRANCH  17  18
ENDBRANCH  16  17
ENDBRANCH  13  16
ENDBRANCH  11  12
ENDBRANCH   6  11
BRANCH   7  24
HETATM   24  C   UNL     1       7.972  28.204  55.683  1.00  0.00    -0.030 A 
HETATM   25  C   UNL     1       7.422  28.232  56.974  1.00  0.00     0.011 A 
HETATM   26  C   UNL     1       8.015  28.984  58.000  1.00  0.00     0.024 A 
HETATM   27  C   UNL     1       9.137  29.764  57.743  1.00  0.00     0.034 A 
HETATM   28 CL   UNL     1       9.835  30.706  58.996  1.00  0.00    -0.084 Cl
HETATM   29  C   UNL     1       9.668  29.807  56.463  1.00  0.00     0.024 A 
HETATM   30  C   UNL     1       9.085  29.046  55.445  1.00  0.00     0.011 A 
ENDBRANCH   7  24
BRANCH  10  31
HETATM   31  C   UNL     1       6.850  25.322  55.618  1.00  0.00     0.294 C 
HETATM   32  O   UNL     1       5.663  25.241  55.916  1.00  0.00    -0.259 OA
BRANCH  31  33
HETATM   33  O   UNL     1       7.911  25.005  56.377  1.00  0.00    -0.314 OA
BRANCH  33  34
HETATM   34  C   UNL     1       8.651  23.890  55.859  1.00  0.00     0.206 C 
BRANCH  34  35
HETATM   35  C   UNL     1       7.901  22.636  56.162  1.00  0.00    -0.011 C 
HETATM   36  C   UNL     1       8.482  21.485  56.524  1.00  0.00     0.009 C 
ENDBRANCH  34  35
ENDBRANCH  33  34
ENDBRANCH  31  33
ENDBRANCH  10  31
TORSDOF 10
ENDMDL
MODEL 3
REMARK VINA RESULT:      -7.4      5.910     11.461
REMARK  10 active torsions:
REMARK  status: ('A' for Active; 'I' for Inactive)
REMARK    1  A    between atoms: C_6  and  C_7 
REMARK    2  A    between atoms: C_7  and  C_8 
REMARK       I    between atoms: C_8  and  N_9 
REMARK    3  A    between atoms: N_9  and  C_10 
REMARK    4  A    between atoms: C_10  and  C_11 
REMARK    5  A    between atoms: C_11  and  N_12 
REMARK    6  A    between atoms: C_19  and  C_20 
REMARK    7  A    between atoms: C_29  and  C_30 
REMARK    8  A    between atoms: C_30  and  O_31 
REMARK    9  A    between atoms: O_31  and  C_32 
REMARK   10  A    between atoms: C_32  and  C_33 
ROOT
HETATM    1  C   UNL     1       3.328  38.438  61.305  1.00  0.00     0.071 C 
HETATM    2  C   UNL     1       3.401  37.130  62.052  1.00  0.00     0.048 C 
HETATM    3  N   UNL     1       2.654  36.100  61.469  1.00  0.00    -0.229 NA
HETATM    4  C   UNL     1       3.158  34.910  61.573  1.00  0.00     0.170 C 
HETATM    5  N   UNL     1       4.366  34.598  62.520  1.00  0.00    -0.319 N 
HETATM    6  C   UNL     1       5.218  33.879  61.864  1.00  0.00     0.011 C 
HETATM    7  C   UNL     1       4.243  35.514  63.669  1.00  0.00     0.166 C 
HETATM    8  S   UNL     1       2.855  33.581  60.522  1.00  0.00    -0.086 SA
HETATM    9  C   UNL     1       4.616  33.085  60.707  1.00  0.00     0.135 C 
HETATM   10  C   UNL     1       4.272  36.880  63.062  1.00  0.00     0.069 C 
ENDROOT
BRANCH   6  11
HETATM   11  C   UNL     1       6.683  33.902  62.191  1.00  0.00     0.156 C 
BRANCH  11  12
HETATM   12  C   UNL     1       7.363  32.582  61.908  1.00  0.00     0.223 C 
HETATM   13  N   UNL     1       8.232  32.525  60.838  1.00  0.00    -0.359 N 
HETATM   14  H   UNL     1       8.370  33.339  60.239  1.00  0.00     0.162 HD
HETATM   15  O   UNL     1       7.092  31.592  62.583  1.00  0.00    -0.273 OA
BRANCH  13  16
HETATM   16  C   UNL     1       8.939  31.271  60.588  1.00  0.00     0.150 C 
BRANCH  16  17
HETATM   17  C   UNL     1       8.285  30.318  59.572  1.00  0.00     0.254 C 
BRANCH  17  18
HETATM   18  N   UNL     1       8.761  30.610  58.159  1.00  0.00    -0.070 N 
HETATM   19  H   UNL     1       8.333  31.493  57.842  1.00  0.00     0.279 HD
HETATM   20  C   UNL     1       8.389  29.538  57.140  1.00  0.00     0.235 C 
HETATM   21  C   UNL     1       9.703  28.865  56.808  1.00  0.00     0.029 C 
HETATM   22  C   UNL     1      10.683  30.019  56.825  1.00  0.00     0.029 C 
HETATM   23  C   UNL     1      10.273  30.802  58.057  1.00  0.00     0.235 C 
ENDBRANCH  17  18
ENDBRANCH  16  17
ENDBRANCH  13  16
ENDBRANCH  11  12
ENDBRANCH   6  11
BRANCH   7  24
HETATM   24  C   UNL     1       4.958  35.230  64.982  1.00  0.00    -0.030 A 
HETATM   25  C   UNL     1       6.013  34.315  65.121  1.00  0.00     0.011 A 
HETATM   26  C   UNL     1       6.541  34.001  66.383  1.00  0.00     0.024 A 
HETATM   27  C   UNL     1       5.989  34.553  67.534  1.00  0.00     0.034 A 
HETATM   28 CL   UNL     1       6.618  34.136  69.076  1.00  0.00    -0.084 Cl
HETATM   29  C   UNL     1       4.905  35.411  67.435  1.00  0.00     0.024 A 
HETATM   30  C   UNL     1       4.391  35.736  66.176  1.00  0.00     0.011 A 
ENDBRANCH   7  24
BRANCH  10  31
HETATM   31  C   UNL     1       5.574  37.565  63.049  1.00  0.00     0.294 C 
HETATM   32  O   UNL     1       6.381  37.310  62.161  1.00  0.00    -0.259 OA
BRANCH  31  33
HETATM   33  O   UNL     1       5.785  38.267  64.174  1.00  0.00    -0.314 OA
BRANCH  33  34
HETATM   34  C   UNL     1       5.851  39.682  63.941  1.00  0.00     0.206 C 
BRANCH  34  35
HETATM   35  C   UNL     1       7.285  40.089  63.865  1.00  0.00    -0.011 C 
HETATM   36  C   UNL     1       7.820  40.756  62.835  1.00  0.00     0.009 C 
ENDBRANCH  34  35
ENDBRANCH  33  34
ENDBRANCH  31  33
ENDBRANCH  10  31
TORSDOF 10
ENDMDL
MODEL 4
REMARK VINA RESULT:      -6.8      5.274     10.242
REMARK  10 active torsions:
REMARK  status: ('A' for Active; 'I' for Inactive)
REMARK    1  A    between atoms: C_6  and  C_7 
REMARK    2  A    between atoms: C_7  and  C_8 
REMARK       I    between atoms: C_8  and  N_9 
REMARK    3  A    between atoms: N_9  and  C_10 
REMARK    4  A    between atoms: C_10  and  C_11 
REMARK    5  A    between atoms: C_11  and  N_12 
REMARK    6  A    between atoms: C_19  and  C_20 
REMARK    7  A    between atoms: C_29  and  C_30 
REMARK    8  A    between atoms: C_30  and  O_31 
REMARK    9  A    between atoms: O_31  and  C_32 
REMARK   10  A    between atoms: C_32  and  C_33 
ROOT
HETATM    1  C   UNL     1       1.666  36.312  60.006  1.00  0.00     0.071 C 
HETATM    2  C   UNL     1       2.179  35.147  60.814  1.00  0.00     0.048 C 
HETATM    3  N   UNL     1       2.071  33.912  60.163  1.00  0.00    -0.229 NA
HETATM    4  C   UNL     1       3.022  33.064  60.404  1.00  0.00     0.170 C 
HETATM    5  N   UNL     1       4.064  33.286  61.552  1.00  0.00    -0.319 N 
HETATM    6  C   UNL     1       5.243  33.038  61.080  1.00  0.00     0.011 C 
HETATM    7  C   UNL     1       3.359  34.016  62.621  1.00  0.00     0.166 C 
HETATM    8  S   UNL     1       3.516  31.773  59.380  1.00  0.00    -0.086 SA
HETATM    9  C   UNL     1       5.257  32.098  59.876  1.00  0.00     0.135 C 
HETATM   10  C   UNL     1       2.887  35.275  61.965  1.00  0.00     0.069 C 
ENDROOT
BRANCH   6  11
HETATM   11  C   UNL     1       6.470  33.694  61.644  1.00  0.00     0.156 C 
BRANCH  11  12
HETATM   12  C   UNL     1       7.672  32.778  61.640  1.00  0.00     0.223 C 
HETATM   13  N   UNL     1       8.463  32.764  60.511  1.00  0.00    -0.359 N 
HETATM   14  H   UNL     1       8.212  33.322  59.695  1.00  0.00     0.162 HD
HETATM   15  O   UNL     1       7.885  32.037  62.597  1.00  0.00    -0.273 OA
BRANCH  13  16
HETATM   16  C   UNL     1       9.661  31.926  60.515  1.00  0.00     0.150 C 
BRANCH  16  17
HETATM   17  C   UNL     1       9.538  30.570  59.801  1.00  0.00     0.254 C 
BRANCH  17  18
HETATM   18  N   UNL     1       9.372  30.751  58.302  1.00  0.00    -0.070 N 
HETATM   19  H   UNL     1       8.982  31.689  58.123  1.00  0.00     0.279 HD
HETATM   20  C   UNL     1       8.433  29.742  57.649  1.00  0.00     0.235 C 
HETATM   21  C   UNL     1       9.348  28.848  56.840  1.00  0.00     0.029 C 
HETATM   22  C   UNL     1      10.389  29.816  56.323  1.00  0.00     0.029 C 
HETATM   23  C   UNL     1      10.691  30.679  57.533  1.00  0.00     0.235 C 
ENDBRANCH  17  18
ENDBRANCH  16  17
ENDBRANCH  13  16
ENDBRANCH  11  12
ENDBRANCH   6  11
BRANCH   7  24
HETATM   24  C   UNL     1       3.892  34.034  64.046  1.00  0.00    -0.030 A 
HETATM   25  C   UNL     1       3.227  34.633  65.127  1.00  0.00     0.011 A 
HETATM   26  C   UNL     1       3.834  34.733  66.389  1.00  0.00     0.024 A 
HETATM   27  C   UNL     1       5.136  34.285  66.581  1.00  0.00     0.034 A 
HETATM   28 CL   UNL     1       5.883  34.442  68.118  1.00  0.00    -0.084 Cl
HETATM   29  C   UNL     1       5.844  33.746  65.516  1.00  0.00     0.024 A 
HETATM   30  C   UNL     1       5.232  33.634  64.264  1.00  0.00     0.011 A 
ENDBRANCH   7  24
BRANCH  10  31
HETATM   31  C   UNL     1       3.736  36.463  62.137  1.00  0.00     0.294 C 
HETATM   32  O   UNL     1       3.438  37.300  62.983  1.00  0.00    -0.259 OA
BRANCH  31  33
HETATM   33  O   UNL     1       4.658  36.569  61.167  1.00  0.00    -0.314 OA
BRANCH  33  34
HETATM   34  C   UNL     1       5.081  37.923  60.950  1.00  0.00     0.206 C 
BRANCH  34  35
HETATM   35  C   UNL     1       4.949  38.239  59.497  1.00  0.00    -0.011 C 
HETATM   36  C   UNL     1       4.034  39.078  58.994  1.00  0.00     0.009 C 
ENDBRANCH  34  35
ENDBRANCH  33  34
ENDBRANCH  31  33
ENDBRANCH  10  31
TORSDOF 10
ENDMDL
MODEL 5
REMARK VINA RESULT:      -6.8      4.340      6.519
REMARK  10 active torsions:
REMARK  status: ('A' for Active; 'I' for Inactive)
REMARK    1  A    between atoms: C_6  and  C_7 
REMARK    2  A    between atoms: C_7  and  C_8 
REMARK       I    between atoms: C_8  and  N_9 
REMARK    3  A    between atoms: N_9  and  C_10 
REMARK    4  A    between atoms: C_10  and  C_11 
REMARK    5  A    between atoms: C_11  and  N_12 
REMARK    6  A    between atoms: C_19  and  C_20 
REMARK    7  A    between atoms: C_29  and  C_30 
REMARK    8  A    between atoms: C_30  and  O_31 
REMARK    9  A    between atoms: O_31  and  C_32 
REMARK   10  A    between atoms: C_32  and  C_33 
ROOT
HETATM    1  C   UNL     1       2.920  30.637  46.871  1.00  0.00     0.071 C 
HETATM    2  C   UNL     1       3.845  30.412  48.040  1.00  0.00     0.048 C 
HETATM    3  N   UNL     1       4.766  31.448  48.243  1.00  0.00    -0.229 NA
HETATM    4  C   UNL     1       5.070  31.695  49.479  1.00  0.00     0.170 C 
HETATM    5  N   UNL     1       4.664  30.733  50.646  1.00  0.00    -0.319 N 
HETATM    6  C   UNL     1       4.176  31.448  51.607  1.00  0.00     0.011 C 
HETATM    7  C   UNL     1       4.667  29.370  50.083  1.00  0.00     0.166 C 
HETATM    8  S   UNL     1       5.650  33.190  50.103  1.00  0.00    -0.086 SA
HETATM    9  C   UNL     1       4.652  32.899  51.620  1.00  0.00     0.135 C 
HETATM   10  C   UNL     1       3.682  29.428  48.959  1.00  0.00     0.069 C 
ENDROOT
BRANCH   6  11
HETATM   11  C   UNL     1       3.170  30.888  52.571  1.00  0.00     0.156 C 
BRANCH  11  12
HETATM   12  C   UNL     1       3.493  31.225  54.009  1.00  0.00     0.223 C 
HETATM   13  N   UNL     1       4.761  30.932  54.466  1.00  0.00    -0.359 N 
HETATM   14  H   UNL     1       5.435  30.464  53.861  1.00  0.00     0.162 HD
HETATM   15  O   UNL     1       2.624  31.688  54.743  1.00  0.00    -0.273 OA
BRANCH  13  16
HETATM   16  C   UNL     1       5.105  31.304  55.837  1.00  0.00     0.150 C 
BRANCH  16  17
HETATM   17  C   UNL     1       5.959  30.290  56.618  1.00  0.00     0.254 C 
BRANCH  17  18
HETATM   18  N   UNL     1       5.956  28.931  55.938  1.00  0.00    -0.070 N 
HETATM   19  H   UNL     1       5.317  28.966  55.130  1.00  0.00     0.279 HD
HETATM   20  C   UNL     1       5.491  27.786  56.831  1.00  0.00     0.235 C 
HETATM   21  C   UNL     1       6.747  26.987  57.102  1.00  0.00     0.029 C 
HETATM   22  C   UNL     1       7.487  27.071  55.784  1.00  0.00     0.029 C 
HETATM   23  C   UNL     1       7.324  28.526  55.388  1.00  0.00     0.235 C 
ENDBRANCH  17  18
ENDBRANCH  16  17
ENDBRANCH  13  16
ENDBRANCH  11  12
ENDBRANCH   6  11
BRANCH   7  24
HETATM   24  C   UNL     1       4.749  28.147  50.984  1.00  0.00    -0.030 A 
HETATM   25  C   UNL     1       4.457  28.160  52.357  1.00  0.00     0.011 A 
HETATM   26  C   UNL     1       4.681  27.030  53.159  1.00  0.00     0.024 A 
HETATM   27  C   UNL     1       5.251  25.884  52.616  1.00  0.00     0.034 A 
HETATM   28 CL   UNL     1       5.553  24.518  53.611  1.00  0.00    -0.084 Cl
HETATM   29  C   UNL     1       5.609  25.860  51.276  1.00  0.00     0.024 A 
HETATM   30  C   UNL     1       5.371  26.982  50.476  1.00  0.00     0.011 A 
ENDBRANCH   7  24
BRANCH  10  31
HETATM   31  C   UNL     1       2.317  28.968  49.259  1.00  0.00     0.294 C 
HETATM   32  O   UNL     1       1.531  29.732  49.810  1.00  0.00    -0.259 OA
BRANCH  31  33
HETATM   33  O   UNL     1       2.172  27.650  49.052  1.00  0.00    -0.314 OA
BRANCH  33  34
HETATM   34  C   UNL     1       1.724  27.343  47.724  1.00  0.00     0.206 C 
BRANCH  34  35
HETATM   35  C   UNL     1       2.648  26.334  47.128  1.00  0.00    -0.011 C 
HETATM   36  C   UNL     1       3.133  25.277  47.794  1.00  0.00     0.009 C 
ENDBRANCH  34  35
ENDBRANCH  33  34
ENDBRANCH  31  33
ENDBRANCH  10  31
TORSDOF 10
ENDMDL
MODEL 6
REMARK VINA RESULT:      -6.7      3.498      8.653
REMARK  10 active torsions:
REMARK  status: ('A' for Active; 'I' for Inactive)
REMARK    1  A    between atoms: C_6  and  C_7 
REMARK    2  A    between atoms: C_7  and  C_8 
REMARK       I    between atoms: C_8  and  N_9 
REMARK    3  A    between atoms: N_9  and  C_10 
REMARK    4  A    between atoms: C_10  and  C_11 
REMARK    5  A    between atoms: C_11  and  N_12 
REMARK    6  A    between atoms: C_19  and  C_20 
REMARK    7  A    between atoms: C_29  and  C_30 
REMARK    8  A    between atoms: C_30  and  O_31 
REMARK    9  A    between atoms: O_31  and  C_32 
REMARK   10  A    between atoms: C_32  and  C_33 
ROOT
HETATM    1  C   UNL     1       5.312  32.745  61.880  1.00  0.00     0.071 C 
HETATM    2  C   UNL     1       5.809  32.685  60.457  1.00  0.00     0.048 C 
HETATM    3  N   UNL     1       7.143  32.277  60.338  1.00  0.00    -0.229 NA
HETATM    4  C   UNL     1       7.422  31.567  59.290  1.00  0.00     0.170 C 
HETATM    5  N   UNL     1       6.418  31.408  58.099  1.00  0.00    -0.319 N 
HETATM    6  C   UNL     1       6.371  30.156  57.775  1.00  0.00     0.011 C 
HETATM    7  C   UNL     1       5.655  32.668  58.026  1.00  0.00     0.166 C 
HETATM    8  S   UNL     1       8.722  30.450  59.136  1.00  0.00    -0.086 SA
HETATM    9  C   UNL     1       7.617  29.359  58.152  1.00  0.00     0.135 C 
HETATM   10  C   UNL     1       5.007  32.790  59.368  1.00  0.00     0.069 C 
ENDROOT
BRANCH   6  11
HETATM   11  C   UNL     1       5.148  29.552  57.147  1.00  0.00     0.156 C 
BRANCH  11  12
HETATM   12  C   UNL     1       5.485  28.537  56.079  1.00  0.00     0.223 C 
HETATM   13  N   UNL     1       5.372  27.202  56.405  1.00  0.00    -0.359 N 
HETATM   14  H   UNL     1       5.114  26.920  57.351  1.00  0.00     0.162 HD
HETATM   15  O   UNL     1       5.898  28.909  54.984  1.00  0.00    -0.273 OA
BRANCH  13  16
HETATM   16  C   UNL     1       5.640  26.210  55.365  1.00  0.00     0.150 C 
BRANCH  16  17
HETATM   17  C   UNL     1       6.110  24.830  55.854  1.00  0.00     0.254 C 
BRANCH  17  18
HETATM   18  N   UNL     1       7.425  24.435  55.204  1.00  0.00    -0.070 N 
HETATM   19  H   UNL     1       8.200  24.802  55.776  1.00  0.00     0.279 HD
HETATM   20  C   UNL     1       7.613  24.980  53.791  1.00  0.00     0.235 C 
HETATM   21  C   UNL     1       7.490  23.763  52.901  1.00  0.00     0.029 C 
HETATM   22  C   UNL     1       8.163  22.682  53.719  1.00  0.00     0.029 C 
HETATM   23  C   UNL     1       7.629  22.923  55.118  1.00  0.00     0.235 C 
ENDBRANCH  17  18
ENDBRANCH  16  17
ENDBRANCH  13  16
ENDBRANCH  11  12
ENDBRANCH   6  11
BRANCH   7  24
HETATM   24  C   UNL     1       4.907  33.062  56.761  1.00  0.00    -0.030 A 
HETATM   25  C   UNL     1       4.649  32.187  55.695  1.00  0.00     0.011 A 
HETATM   26  C   UNL     1       4.072  32.647  54.500  1.00  0.00     0.024 A 
HETATM   27  C   UNL     1       3.793  33.998  54.328  1.00  0.00     0.034 A 
HETATM   28 CL   UNL     1       3.119  34.557  52.852  1.00  0.00    -0.084 Cl
HETATM   29  C   UNL     1       4.095  34.898  55.339  1.00  0.00     0.024 A 
HETATM   30  C   UNL     1       4.655  34.436  56.534  1.00  0.00     0.011 A 
ENDBRANCH   7  24
BRANCH  10  31
HETATM   31  C   UNL     1       3.618  32.316  59.472  1.00  0.00     0.294 C 
HETATM   32  O   UNL     1       3.402  31.134  59.717  1.00  0.00    -0.259 OA
BRANCH  31  33
HETATM   33  O   UNL     1       2.736  33.247  59.076  1.00  0.00    -0.314 OA
BRANCH  33  34
HETATM   34  C   UNL     1       2.773  34.428  59.890  1.00  0.00     0.206 C 
BRANCH  34  35
HETATM   35  C   UNL     1       1.814  34.259  61.021  1.00  0.00    -0.011 C 
HETATM   36  C   UNL     1       2.091  34.579  62.292  1.00  0.00     0.009 C 
ENDBRANCH  34  35
ENDBRANCH  33  34
ENDBRANCH  31  33
ENDBRANCH  10  31
TORSDOF 10
ENDMDL
MODEL 7
REMARK VINA RESULT:      -6.7      5.450      8.581
REMARK  10 active torsions:
REMARK  status: ('A' for Active; 'I' for Inactive)
REMARK    1  A    between atoms: C_6  and  C_7 
REMARK    2  A    between atoms: C_7  and  C_8 
REMARK       I    between atoms: C_8  and  N_9 
REMARK    3  A    between atoms: N_9  and  C_10 
REMARK    4  A    between atoms: C_10  and  C_11 
REMARK    5  A    between atoms: C_11  and  N_12 
REMARK    6  A    between atoms: C_19  and  C_20 
REMARK    7  A    between atoms: C_29  and  C_30 
REMARK    8  A    between atoms: C_30  and  O_31 
REMARK    9  A    between atoms: O_31  and  C_32 
REMARK   10  A    between atoms: C_32  and  C_33 
ROOT
HETATM    1  C   UNL     1       4.426  30.841  46.830  1.00  0.00     0.071 C 
HETATM    2  C   UNL     1       3.848  30.083  47.998  1.00  0.00     0.048 C 
HETATM    3  N   UNL     1       3.092  28.963  47.630  1.00  0.00    -0.229 NA
HETATM    4  C   UNL     1       3.159  27.949  48.436  1.00  0.00     0.170 C 
HETATM    5  N   UNL     1       3.807  28.057  49.857  1.00  0.00    -0.319 N 
HETATM    6  C   UNL     1       4.590  27.039  50.022  1.00  0.00     0.011 C 
HETATM    7  C   UNL     1       3.557  29.432  50.327  1.00  0.00     0.166 C 
HETATM    8  S   UNL     1       2.877  26.303  48.024  1.00  0.00    -0.086 SA
HETATM    9  C   UNL     1       4.234  25.825  49.168  1.00  0.00     0.135 C 
HETATM   10  C   UNL     1       4.194  30.302  49.291  1.00  0.00     0.069 C 
ENDROOT
BRANCH   6  11
HETATM   11  C   UNL     1       5.784  27.105  50.930  1.00  0.00     0.156 C 
BRANCH  11  12
HETATM   12  C   UNL     1       5.930  25.868  51.787  1.00  0.00     0.223 C 
HETATM   13  N   UNL     1       7.137  25.202  51.750  1.00  0.00    -0.359 N 
HETATM   14  H   UNL     1       7.883  25.515  51.128  1.00  0.00     0.162 HD
HETATM   15  O   UNL     1       4.976  25.455  52.441  1.00  0.00    -0.273 OA
BRANCH  13  16
HETATM   16  C   UNL     1       7.312  24.038  52.616  1.00  0.00     0.150 C 
BRANCH  16  17
HETATM   17  C   UNL     1       7.959  24.307  53.985  1.00  0.00     0.254 C 
BRANCH  17  18
HETATM   18  N   UNL     1       8.553  23.037  54.571  1.00  0.00    -0.070 N 
HETATM   19  H   UNL     1       9.387  23.286  55.124  1.00  0.00     0.279 HD
HETATM   20  C   UNL     1       8.993  22.014  53.530  1.00  0.00     0.235 C 
HETATM   21  C   UNL     1       7.984  20.893  53.656  1.00  0.00     0.029 C 
HETATM   22  C   UNL     1       7.724  20.845  55.146  1.00  0.00     0.029 C 
HETATM   23  C   UNL     1       7.606  22.309  55.524  1.00  0.00     0.235 C 
ENDBRANCH  17  18
ENDBRANCH  16  17
ENDBRANCH  13  16
ENDBRANCH  11  12
ENDBRANCH   6  11
BRANCH   7  24
HETATM   24  C   UNL     1       3.647  29.787  51.804  1.00  0.00    -0.030 A 
HETATM   25  C   UNL     1       3.923  28.859  52.821  1.00  0.00     0.011 A 
HETATM   26  C   UNL     1       3.859  29.225  54.175  1.00  0.00     0.024 A 
HETATM   27  C   UNL     1       3.466  30.507  54.540  1.00  0.00     0.034 A 
HETATM   28 CL   UNL     1       3.358  30.935  56.199  1.00  0.00    -0.084 Cl
HETATM   29  C   UNL     1       3.125  31.428  53.561  1.00  0.00     0.024 A 
HETATM   30  C   UNL     1       3.204  31.067  52.213  1.00  0.00     0.011 A 
ENDBRANCH   7  24
BRANCH  10  31
HETATM   31  C   UNL     1       5.554  30.781  49.582  1.00  0.00     0.294 C 
HETATM   32  O   UNL     1       6.492  29.991  49.541  1.00  0.00    -0.259 OA
BRANCH  31  33
HETATM   33  O   UNL     1       5.556  32.034  50.063  1.00  0.00    -0.314 OA
BRANCH  33  34
HETATM   34  C   UNL     1       6.150  32.975  49.157  1.00  0.00     0.206 C 
BRANCH  34  35
HETATM   35  C   UNL     1       6.099  34.332  49.774  1.00  0.00    -0.011 C 
HETATM   36  C   UNL     1       5.008  34.851  50.353  1.00  0.00     0.009 C 
ENDBRANCH  34  35
ENDBRANCH  33  34
ENDBRANCH  31  33
ENDBRANCH  10  31
TORSDOF 10
ENDMDL
MODEL 8
REMARK VINA RESULT:      -6.6      4.775      8.003
REMARK  10 active torsions:
REMARK  status: ('A' for Active; 'I' for Inactive)
REMARK    1  A    between atoms: C_6  and  C_7 
REMARK    2  A    between atoms: C_7  and  C_8 
REMARK       I    between atoms: C_8  and  N_9 
REMARK    3  A    between atoms: N_9  and  C_10 
REMARK    4  A    between atoms: C_10  and  C_11 
REMARK    5  A    between atoms: C_11  and  N_12 
REMARK    6  A    between atoms: C_19  and  C_20 
REMARK    7  A    between atoms: C_29  and  C_30 
REMARK    8  A    between atoms: C_30  and  O_31 
REMARK    9  A    between atoms: O_31  and  C_32 
REMARK   10  A    between atoms: C_32  and  C_33 
ROOT
HETATM    1  C   UNL     1       4.547  30.706  46.492  1.00  0.00     0.071 C 
HETATM    2  C   UNL     1       3.902  30.090  47.708  1.00  0.00     0.048 C 
HETATM    3  N   UNL     1       3.200  28.908  47.441  1.00  0.00    -0.229 NA
HETATM    4  C   UNL     1       3.230  28.012  48.378  1.00  0.00     0.170 C 
HETATM    5  N   UNL     1       3.770  28.327  49.814  1.00  0.00    -0.319 N 
HETATM    6  C   UNL     1       4.561  27.365  50.168  1.00  0.00     0.011 C 
HETATM    7  C   UNL     1       3.456  29.743  50.077  1.00  0.00     0.166 C 
HETATM    8  S   UNL     1       3.016  26.317  48.171  1.00  0.00    -0.086 SA
HETATM    9  C   UNL     1       4.296  26.038  49.461  1.00  0.00     0.135 C 
HETATM   10  C   UNL     1       4.147  30.489  48.981  1.00  0.00     0.069 C 
ENDROOT
BRANCH   6  11
HETATM   11  C   UNL     1       5.683  27.587  51.140  1.00  0.00     0.156 C 
BRANCH  11  12
HETATM   12  C   UNL     1       5.949  26.378  52.006  1.00  0.00     0.223 C 
HETATM   13  N   UNL     1       5.233  26.259  53.178  1.00  0.00    -0.359 N 
HETATM   14  H   UNL     1       4.581  26.989  53.464  1.00  0.00     0.162 HD
HETATM   15  O   UNL     1       6.820  25.572  51.688  1.00  0.00    -0.273 OA
BRANCH  13  16
HETATM   16  C   UNL     1       5.439  25.066  53.997  1.00  0.00     0.150 C 
BRANCH  16  17
HETATM   17  C   UNL     1       5.825  25.313  55.466  1.00  0.00     0.254 C 
BRANCH  17  18
HETATM   18  N   UNL     1       7.334  25.370  55.634  1.00  0.00    -0.070 N 
HETATM   19  H   UNL     1       7.686  26.225  55.177  1.00  0.00     0.279 HD
HETATM   20  C   UNL     1       8.078  24.191  55.016  1.00  0.00     0.235 C 
HETATM   21  C   UNL     1       8.571  23.393  56.203  1.00  0.00     0.029 C 
HETATM   22  C   UNL     1       8.935  24.472  57.201  1.00  0.00     0.029 C 
HETATM   23  C   UNL     1       7.778  25.447  57.094  1.00  0.00     0.235 C 
ENDBRANCH  17  18
ENDBRANCH  16  17
ENDBRANCH  13  16
ENDBRANCH  11  12
ENDBRANCH   6  11
BRANCH   7  24
HETATM   24  C   UNL     1       3.429  30.292  51.496  1.00  0.00    -0.030 A 
HETATM   25  C   UNL     1       3.641  29.514  52.645  1.00  0.00     0.011 A 
HETATM   26  C   UNL     1       3.470  30.054  53.929  1.00  0.00     0.024 A 
HETATM   27  C   UNL     1       3.032  31.363  54.090  1.00  0.00     0.034 A 
HETATM   28 CL   UNL     1       2.793  32.004  55.665  1.00  0.00    -0.084 Cl
HETATM   29  C   UNL     1       2.752  32.138  52.975  1.00  0.00     0.024 A 
HETATM   30  C   UNL     1       2.938  31.605  51.696  1.00  0.00     0.011 A 
ENDBRANCH   7  24
BRANCH  10  31
HETATM   31  C   UNL     1       5.472  31.044  49.299  1.00  0.00     0.294 C 
HETATM   32  O   UNL     1       6.388  30.285  49.598  1.00  0.00    -0.259 OA
BRANCH  31  33
HETATM   33  O   UNL     1       5.444  32.382  49.411  1.00  0.00    -0.314 OA
BRANCH  33  34
HETATM   34  C   UNL     1       6.613  33.008  48.863  1.00  0.00     0.206 C 
BRANCH  34  35
HETATM   35  C   UNL     1       6.233  33.712  47.603  1.00  0.00    -0.011 C 
HETATM   36  C   UNL     1       6.944  33.653  46.469  1.00  0.00     0.009 C 
ENDBRANCH  34  35
ENDBRANCH  33  34
ENDBRANCH  31  33
ENDBRANCH  10  31
TORSDOF 10
ENDMDL
MODEL 9
REMARK VINA RESULT:      -6.3      6.456      9.811
REMARK  10 active torsions:
REMARK  status: ('A' for Active; 'I' for Inactive)
REMARK    1  A    between atoms: C_6  and  C_7 
REMARK    2  A    between atoms: C_7  and  C_8 
REMARK       I    between atoms: C_8  and  N_9 
REMARK    3  A    between atoms: N_9  and  C_10 
REMARK    4  A    between atoms: C_10  and  C_11 
REMARK    5  A    between atoms: C_11  and  N_12 
REMARK    6  A    between atoms: C_19  and  C_20 
REMARK    7  A    between atoms: C_29  and  C_30 
REMARK    8  A    between atoms: C_30  and  O_31 
REMARK    9  A    between atoms: O_31  and  C_32 
REMARK   10  A    between atoms: C_32  and  C_33 
ROOT
HETATM    1  C   UNL     1       3.153  33.442  45.661  1.00  0.00     0.071 C 
HETATM    2  C   UNL     1       3.865  32.341  46.407  1.00  0.00     0.048 C 
HETATM    3  N   UNL     1       5.058  32.747  47.018  1.00  0.00    -0.229 NA
HETATM    4  C   UNL     1       5.335  32.173  48.147  1.00  0.00     0.170 C 
HETATM    5  N   UNL     1       4.550  30.919  48.658  1.00  0.00    -0.319 N 
HETATM    6  C   UNL     1       4.256  31.107  49.904  1.00  0.00     0.011 C 
HETATM    7  C   UNL     1       4.146  30.162  47.460  1.00  0.00     0.166 C 
HETATM    8  S   UNL     1       6.328  32.817  49.397  1.00  0.00    -0.086 SA
HETATM    9  C   UNL     1       5.181  32.081  50.631  1.00  0.00     0.135 C 
HETATM   10  C   UNL     1       3.319  31.127  46.670  1.00  0.00     0.069 C 
ENDROOT
BRANCH   6  11
HETATM   11  C   UNL     1       3.054  30.465  50.534  1.00  0.00     0.156 C 
BRANCH  11  12
HETATM   12  C   UNL     1       3.407  29.235  51.338  1.00  0.00     0.223 C 
HETATM   13  N   UNL     1       4.626  28.637  51.094  1.00  0.00    -0.359 N 
HETATM   14  H   UNL     1       5.240  28.994  50.363  1.00  0.00     0.162 HD
HETATM   15  O   UNL     1       2.598  28.766  52.135  1.00  0.00    -0.273 OA
BRANCH  13  16
HETATM   16  C   UNL     1       5.004  27.481  51.904  1.00  0.00     0.150 C 
BRANCH  16  17
HETATM   17  C   UNL     1       5.625  26.298  51.142  1.00  0.00     0.254 C 
BRANCH  17  18
HETATM   18  N   UNL     1       6.021  25.180  52.093  1.00  0.00    -0.070 N 
HETATM   19  H   UNL     1       5.488  24.333  51.847  1.00  0.00     0.279 HD
HETATM   20  C   UNL     1       5.740  25.479  53.562  1.00  0.00     0.235 C 
HETATM   21  C   UNL     1       7.110  25.680  54.173  1.00  0.00     0.029 C 
HETATM   22  C   UNL     1       7.954  24.659  53.440  1.00  0.00     0.029 C 
HETATM   23  C   UNL     1       7.499  24.802  52.001  1.00  0.00     0.235 C 
ENDBRANCH  17  18
ENDBRANCH  16  17
ENDBRANCH  13  16
ENDBRANCH  11  12
ENDBRANCH   6  11
BRANCH   7  24
HETATM   24  C   UNL     1       3.754  28.695  47.550  1.00  0.00    -0.030 A 
HETATM   25  C   UNL     1       2.487  28.242  47.951  1.00  0.00     0.011 A 
HETATM   26  C   UNL     1       2.230  26.875  48.143  1.00  0.00     0.024 A 
HETATM   27  C   UNL     1       3.248  25.940  47.991  1.00  0.00     0.034 A 
HETATM   28 CL   UNL     1       2.934  24.275  48.260  1.00  0.00    -0.084 Cl
HETATM   29  C   UNL     1       4.526  26.361  47.657  1.00  0.00     0.024 A 
HETATM   30  C   UNL     1       4.776  27.721  47.451  1.00  0.00     0.011 A 
ENDBRANCH   7  24
BRANCH  10  31
HETATM   31  C   UNL     1       1.861  31.036  46.842  1.00  0.00     0.294 C 
HETATM   32  O   UNL     1       1.357  31.375  47.907  1.00  0.00    -0.259 OA
BRANCH  31  33
HETATM   33  O   UNL     1       1.274  30.383  45.827  1.00  0.00    -0.314 OA
BRANCH  33  34
HETATM   34  C   UNL     1      -0.132  30.187  46.033  1.00  0.00     0.206 C 
BRANCH  34  35
HETATM   35  C   UNL     1      -0.544  28.923  45.355  1.00  0.00    -0.011 C 
HETATM   36  C   UNL     1      -0.630  27.736  45.970  1.00  0.00     0.009 C 
ENDBRANCH  34  35
ENDBRANCH  33  34
ENDBRANCH  31  33
ENDBRANCH  10  31
TORSDOF 10
ENDMDL
MODEL 10
REMARK VINA RESULT:      -6.2      5.330      8.247
REMARK  10 active torsions:
REMARK  status: ('A' for Active; 'I' for Inactive)
REMARK    1  A    between atoms: C_6  and  C_7 
REMARK    2  A    between atoms: C_7  and  C_8 
REMARK       I    between atoms: C_8  and  N_9 
REMARK    3  A    between atoms: N_9  and  C_10 
REMARK    4  A    between atoms: C_10  and  C_11 
REMARK    5  A    between atoms: C_11  and  N_12 
REMARK    6  A    between atoms: C_19  and  C_20 
REMARK    7  A    between atoms: C_29  and  C_30 
REMARK    8  A    between atoms: C_30  and  O_31 
REMARK    9  A    between atoms: O_31  and  C_32 
REMARK   10  A    between atoms: C_32  and  C_33 
ROOT
HETATM    1  C   UNL     1       5.461  25.325  51.534  1.00  0.00     0.071 C 
HETATM    2  C   UNL     1       5.181  26.509  50.643  1.00  0.00     0.048 C 
HETATM    3  N   UNL     1       4.638  26.167  49.398  1.00  0.00    -0.229 NA
HETATM    4  C   UNL     1       3.781  27.008  48.909  1.00  0.00     0.170 C 
HETATM    5  N   UNL     1       3.573  28.435  49.518  1.00  0.00    -0.319 N 
HETATM    6  C   UNL     1       2.300  28.647  49.624  1.00  0.00     0.011 C 
HETATM    7  C   UNL     1       4.879  28.853  50.056  1.00  0.00     0.166 C 
HETATM    8  S   UNL     1       2.536  26.647  47.776  1.00  0.00    -0.086 SA
HETATM    9  C   UNL     1       1.442  27.829  48.662  1.00  0.00     0.135 C 
HETATM   10  C   UNL     1       5.226  27.799  51.058  1.00  0.00     0.069 C 
ENDROOT
BRANCH   6  11
HETATM   11  C   UNL     1       1.741  29.571  50.667  1.00  0.00     0.156 C 
BRANCH  11  12
HETATM   12  C   UNL     1       1.017  30.754  50.066  1.00  0.00     0.223 C 
HETATM   13  N   UNL     1      -0.190  31.118  50.625  1.00  0.00    -0.359 N 
HETATM   14  H   UNL     1      -0.593  30.574  51.388  1.00  0.00     0.162 HD
HETATM   15  O   UNL     1       1.476  31.320  49.077  1.00  0.00    -0.273 OA
BRANCH  13  16
HETATM   16  C   UNL     1      -0.873  32.294  50.091  1.00  0.00     0.150 C 
BRANCH  16  17
HETATM   17  C   UNL     1      -1.808  33.032  51.065  1.00  0.00     0.254 C 
BRANCH  17  18
HETATM   18  N   UNL     1      -2.078  32.197  52.306  1.00  0.00    -0.070 N 
HETATM   19  H   UNL     1      -1.316  31.512  52.415  1.00  0.00     0.279 HD
HETATM   20  C   UNL     1      -3.386  31.412  52.259  1.00  0.00     0.235 C 
HETATM   21  C   UNL     1      -4.279  32.112  53.260  1.00  0.00     0.029 C 
HETATM   22  C   UNL     1      -3.311  32.498  54.358  1.00  0.00     0.029 C 
HETATM   23  C   UNL     1      -2.109  33.019  53.594  1.00  0.00     0.235 C 
ENDBRANCH  17  18
ENDBRANCH  16  17
ENDBRANCH  13  16
ENDBRANCH  11  12
ENDBRANCH   6  11
BRANCH   7  24
HETATM   24  C   UNL     1       5.184  30.319  50.331  1.00  0.00    -0.030 A 
HETATM   25  C   UNL     1       4.533  31.088  51.308  1.00  0.00     0.011 A 
HETATM   26  C   UNL     1       4.766  32.468  51.421  1.00  0.00     0.024 A 
HETATM   27  C   UNL     1       5.611  33.114  50.527  1.00  0.00     0.034 A 
HETATM   28 CL   UNL     1       5.864  34.808  50.651  1.00  0.00    -0.084 Cl
HETATM   29  C   UNL     1       6.221  32.394  49.511  1.00  0.00     0.024 A 
HETATM   30  C   UNL     1       6.001  31.017  49.409  1.00  0.00     0.011 A 
ENDBRANCH   7  24
BRANCH  10  31
HETATM   31  C   UNL     1       4.901  28.095  52.462  1.00  0.00     0.294 C 
HETATM   32  O   UNL     1       3.728  28.096  52.822  1.00  0.00    -0.259 OA
BRANCH  31  33
HETATM   33  O   UNL     1       5.969  28.533  53.146  1.00  0.00    -0.314 OA
BRANCH  33  34
HETATM   34  C   UNL     1       6.036  27.995  54.474  1.00  0.00     0.206 C 
BRANCH  34  35
HETATM   35  C   UNL     1       7.299  27.211  54.610  1.00  0.00    -0.011 C 
HETATM   36  C   UNL     1       7.351  25.872  54.620  1.00  0.00     0.009 C 
ENDBRANCH  34  35
ENDBRANCH  33  34
ENDBRANCH  31  33
ENDBRANCH  10  31
TORSDOF 10
ENDMDL
