MODEL 1
REMARK VINA RESULT:     -10.5      0.000      0.000
REMARK  2 active torsions:
REMARK  status: ('A' for Active; 'I' for Inactive)
REMARK    1  A    between atoms: C_4  and  N_5 
REMARK    2  A    between atoms: C_12  and  C_13 
ROOT
HETATM    1  N   UNL     1       8.296  28.289  57.480  1.00  0.00    -0.236 N 
HETATM    2  N   UNL     1       7.439  28.693  58.528  1.00  0.00    -0.179 NA
HETATM    3  C   UNL     1       7.955  29.881  59.010  1.00  0.00     0.119 A 
HETATM    4  C   UNL     1       9.032  30.284  58.315  1.00  0.00     0.123 A 
HETATM    5  C   UNL     1       9.294  29.258  57.294  1.00  0.00     0.280 A 
HETATM    6  O   UNL     1      10.211  29.288  56.492  1.00  0.00    -0.265 OA
HETATM    7  N   UNL     1       7.508  30.593  60.089  1.00  0.00    -0.344 N 
HETATM    8  C   UNL     1       8.144  31.737  60.525  1.00  0.00     0.049 A 
HETATM    9  C   UNL     1       9.232  32.223  59.897  1.00  0.00     0.086 A 
HETATM   10  C   UNL     1       9.753  31.500  58.698  1.00  0.00     0.193 A 
HETATM   11  O   UNL     1      10.732  31.932  58.103  1.00  0.00    -0.287 OA
HETATM   12  H   UNL     1       7.390  27.999  59.275  1.00  0.00     0.155 HD
HETATM   13  H   UNL     1       6.682  30.269  60.577  1.00  0.00     0.167 HD
ENDROOT
BRANCH   8  14
HETATM   14  C   UNL     1       7.600  32.427  61.715  1.00  0.00     0.012 A 
HETATM   15  C   UNL     1       6.405  33.169  61.699  1.00  0.00     0.046 A 
HETATM   16 CL   UNL     1       5.437  33.329  60.271  1.00  0.00    -0.083 Cl
HETATM   17  C   UNL     1       5.943  33.803  62.857  1.00  0.00     0.025 A 
HETATM   18  C   UNL     1       6.664  33.708  64.046  1.00  0.00     0.002 A 
HETATM   19  C   UNL     1       7.850  32.979  64.079  1.00  0.00     0.001 A 
HETATM   20  C   UNL     1       8.316  32.347  62.924  1.00  0.00     0.015 A 
ENDBRANCH   8  14
BRANCH   1  21
HETATM   21  C   UNL     1       8.063  27.084  56.782  1.00  0.00     0.055 A 
HETATM   22  C   UNL     1       8.350  25.841  57.360  1.00  0.00     0.031 A 
HETATM   23  C   UNL     1       8.100  24.650  56.669  1.00  0.00     0.002 A 
HETATM   24  C   UNL     1       7.561  24.684  55.387  1.00  0.00     0.000 A 
HETATM   25  C   UNL     1       7.276  25.909  54.792  1.00  0.00     0.002 A 
HETATM   26  C   UNL     1       7.526  27.100  55.484  1.00  0.00     0.031 A 
ENDBRANCH   1  21
TORSDOF 2
ENDMDL
MODEL 2
REMARK VINA RESULT:     -10.1      3.519      5.506
REMARK  2 active torsions:
REMARK  status: ('A' for Active; 'I' for Inactive)
REMARK    1  A    between atoms: C_4  and  N_5 
REMARK    2  A    between atoms: C_12  and  C_13 
ROOT
HETATM    1  N   UNL     1       7.308  24.350  55.265  1.00  0.00    -0.236 N 
HETATM    2  N   UNL     1       8.216  25.004  56.127  1.00  0.00    -0.179 NA
HETATM    3  C   UNL     1       7.709  26.273  56.328  1.00  0.00     0.119 A 
HETATM    4  C   UNL     1       6.530  26.451  55.707  1.00  0.00     0.123 A 
HETATM    5  C   UNL     1       6.229  25.203  54.990  1.00  0.00     0.280 A 
HETATM    6  O   UNL     1       5.241  25.013  54.302  1.00  0.00    -0.265 OA
HETATM    7  N   UNL     1       8.300  27.294  57.019  1.00  0.00    -0.344 N 
HETATM    8  C   UNL     1       7.733  28.549  57.100  1.00  0.00     0.049 A 
HETATM    9  C   UNL     1       6.554  28.830  56.511  1.00  0.00     0.086 A 
HETATM   10  C   UNL     1       5.849  27.747  55.760  1.00  0.00     0.193 A 
HETATM   11  O   UNL     1       4.770  27.976  55.231  1.00  0.00    -0.287 OA
HETATM   12  H   UNL     1       9.155  25.055  55.731  1.00  0.00     0.155 HD
HETATM   13  H   UNL     1       9.180  27.118  57.490  1.00  0.00     0.167 HD
ENDROOT
BRANCH   8  14
HETATM   14  C   UNL     1       8.458  29.597  57.851  1.00  0.00     0.012 A 
HETATM   15  C   UNL     1       9.640  30.202  57.385  1.00  0.00     0.046 A 
HETATM   16 CL   UNL     1      10.353  29.786  55.862  1.00  0.00    -0.083 Cl
HETATM   17  C   UNL     1      10.284  31.185  58.144  1.00  0.00     0.025 A 
HETATM   18  C   UNL     1       9.761  31.579  59.375  1.00  0.00     0.002 A 
HETATM   19  C   UNL     1       8.593  30.989  59.851  1.00  0.00     0.001 A 
HETATM   20  C   UNL     1       7.950  30.004  59.098  1.00  0.00     0.015 A 
ENDBRANCH   8  14
BRANCH   1  21
HETATM   21  C   UNL     1       7.548  23.025  54.836  1.00  0.00     0.055 A 
HETATM   22  C   UNL     1       7.734  22.722  53.482  1.00  0.00     0.031 A 
HETATM   23  C   UNL     1       7.988  21.410  53.066  1.00  0.00     0.002 A 
HETATM   24  C   UNL     1       8.057  20.380  53.999  1.00  0.00     0.000 A 
HETATM   25  C   UNL     1       7.866  20.660  55.348  1.00  0.00     0.002 A 
HETATM   26  C   UNL     1       7.611  21.972  55.763  1.00  0.00     0.031 A 
ENDBRANCH   1  21
TORSDOF 2
ENDMDL
MODEL 3
REMARK VINA RESULT:      -9.8      1.938      7.770
REMARK  2 active torsions:
REMARK  status: ('A' for Active; 'I' for Inactive)
REMARK    1  A    between atoms: C_4  and  N_5 
REMARK    2  A    between atoms: C_12  and  C_13 
ROOT
HETATM    1  N   UNL     1       8.144  31.535  60.406  1.00  0.00    -0.236 N 
HETATM    2  N   UNL     1       7.355  30.511  59.836  1.00  0.00    -0.179 NA
HETATM    3  C   UNL     1       8.075  30.025  58.761  1.00  0.00     0.119 A 
HETATM    4  C   UNL     1       9.273  30.622  58.643  1.00  0.00     0.123 A 
HETATM    5  C   UNL     1       9.360  31.629  59.710  1.00  0.00     0.280 A 
HETATM    6  O   UNL     1      10.306  32.375  59.893  1.00  0.00    -0.265 OA
HETATM    7  N   UNL     1       7.664  29.087  57.855  1.00  0.00    -0.344 N 
HETATM    8  C   UNL     1       8.441  28.723  56.774  1.00  0.00     0.049 A 
HETATM    9  C   UNL     1       9.658  29.263  56.566  1.00  0.00     0.086 A 
HETATM   10  C   UNL     1      10.170  30.277  57.536  1.00  0.00     0.193 A 
HETATM   11  O   UNL     1      11.279  30.770  57.375  1.00  0.00    -0.287 OA
HETATM   12  H   UNL     1       6.444  30.852  59.528  1.00  0.00     0.155 HD
HETATM   13  H   UNL     1       6.762  28.645  57.987  1.00  0.00     0.167 HD
ENDROOT
BRANCH   8  14
HETATM   14  C   UNL     1       7.902  27.717  55.834  1.00  0.00     0.012 A 
HETATM   15  C   UNL     1       7.640  26.383  56.198  1.00  0.00     0.046 A 
HETATM   16 CL   UNL     1       7.909  25.794  57.805  1.00  0.00    -0.083 Cl
HETATM   17  C   UNL     1       7.134  25.475  55.262  1.00  0.00     0.025 A 
HETATM   18  C   UNL     1       6.881  25.881  53.953  1.00  0.00     0.002 A 
HETATM   19  C   UNL     1       7.137  27.197  53.576  1.00  0.00     0.001 A 
HETATM   20  C   UNL     1       7.646  28.105  54.506  1.00  0.00     0.015 A 
ENDBRANCH   8  14
BRANCH   1  21
HETATM   21  C   UNL     1       7.681  32.265  61.523  1.00  0.00     0.055 A 
HETATM   22  C   UNL     1       6.576  33.119  61.427  1.00  0.00     0.031 A 
HETATM   23  C   UNL     1       6.112  33.825  62.542  1.00  0.00     0.002 A 
HETATM   24  C   UNL     1       6.749  33.691  63.771  1.00  0.00     0.000 A 
HETATM   25  C   UNL     1       7.855  32.854  63.886  1.00  0.00     0.002 A 
HETATM   26  C   UNL     1       8.318  32.148  62.770  1.00  0.00     0.031 A 
ENDBRANCH   1  21
TORSDOF 2
ENDMDL
MODEL 4
REMARK VINA RESULT:      -9.7      3.744      9.062
REMARK  2 active torsions:
REMARK  status: ('A' for Active; 'I' for Inactive)
REMARK    1  A    between atoms: C_4  and  N_5 
REMARK    2  A    between atoms: C_12  and  C_13 
ROOT
HETATM    1  N   UNL     1       8.013  28.581  57.265  1.00  0.00    -0.236 N 
HETATM    2  N   UNL     1       8.713  27.355  57.312  1.00  0.00    -0.179 NA
HETATM    3  C   UNL     1       7.999  26.475  56.520  1.00  0.00     0.119 A 
HETATM    4  C   UNL     1       6.941  27.063  55.937  1.00  0.00     0.123 A 
HETATM    5  C   UNL     1       6.911  28.457  56.404  1.00  0.00     0.280 A 
HETATM    6  O   UNL     1       6.071  29.282  56.090  1.00  0.00    -0.265 OA
HETATM    7  N   UNL     1       8.249  25.143  56.342  1.00  0.00    -0.344 N 
HETATM    8  C   UNL     1       7.428  24.338  55.579  1.00  0.00     0.049 A 
HETATM    9  C   UNL     1       6.341  24.832  54.953  1.00  0.00     0.086 A 
HETATM   10  C   UNL     1       6.029  26.286  55.093  1.00  0.00     0.193 A 
HETATM   11  O   UNL     1       5.056  26.759  54.521  1.00  0.00    -0.287 OA
HETATM   12  H   UNL     1       8.792  26.993  58.262  1.00  0.00     0.155 HD
HETATM   13  H   UNL     1       9.067  24.738  56.782  1.00  0.00     0.167 HD
ENDROOT
BRANCH   8  14
HETATM   14  C   UNL     1       7.767  22.904  55.463  1.00  0.00     0.012 A 
HETATM   15  C   UNL     1       7.923  22.245  54.230  1.00  0.00     0.046 A 
HETATM   16 CL   UNL     1       7.750  23.067  52.715  1.00  0.00    -0.083 Cl
HETATM   17  C   UNL     1       8.240  20.883  54.184  1.00  0.00     0.025 A 
HETATM   18  C   UNL     1       8.406  20.159  55.364  1.00  0.00     0.002 A 
HETATM   19  C   UNL     1       8.253  20.796  56.593  1.00  0.00     0.001 A 
HETATM   20  C   UNL     1       7.933  22.154  56.643  1.00  0.00     0.015 A 
ENDBRANCH   8  14
BRANCH   1  21
HETATM   21  C   UNL     1       8.468  29.700  57.997  1.00  0.00     0.055 A 
HETATM   22  C   UNL     1       9.716  30.280  57.737  1.00  0.00     0.031 A 
HETATM   23  C   UNL     1      10.154  31.399  58.454  1.00  0.00     0.002 A 
HETATM   24  C   UNL     1       9.351  31.954  59.445  1.00  0.00     0.000 A 
HETATM   25  C   UNL     1       8.111  31.387  59.724  1.00  0.00     0.002 A 
HETATM   26  C   UNL     1       7.674  30.268  59.007  1.00  0.00     0.031 A 
ENDBRANCH   1  21
TORSDOF 2
ENDMDL
MODEL 5
REMARK VINA RESULT:      -9.5      7.991     10.474
REMARK  2 active torsions:
REMARK  status: ('A' for Active; 'I' for Inactive)
REMARK    1  A    between atoms: C_4  and  N_5 
REMARK    2  A    between atoms: C_12  and  C_13 
ROOT
HETATM    1  N   UNL     1       4.620  27.107  50.575  1.00  0.00    -0.236 N 
HETATM    2  N   UNL     1       4.640  25.731  50.895  1.00  0.00    -0.179 NA
HETATM    3  C   UNL     1       5.583  25.582  51.894  1.00  0.00     0.119 A 
HETATM    4  C   UNL     1       6.116  26.758  52.266  1.00  0.00     0.123 A 
HETATM    5  C   UNL     1       5.509  27.794  51.417  1.00  0.00     0.280 A 
HETATM    6  O   UNL     1       5.773  28.983  51.467  1.00  0.00    -0.265 OA
HETATM    7  N   UNL     1       6.011  24.409  52.452  1.00  0.00    -0.344 N 
HETATM    8  C   UNL     1       7.012  24.371  53.400  1.00  0.00     0.049 A 
HETATM    9  C   UNL     1       7.611  25.495  53.839  1.00  0.00     0.086 A 
HETATM   10  C   UNL     1       7.171  26.809  53.282  1.00  0.00     0.193 A 
HETATM   11  O   UNL     1       7.690  27.844  53.678  1.00  0.00    -0.287 OA
HETATM   12  H   UNL     1       4.882  25.152  50.090  1.00  0.00     0.155 HD
HETATM   13  H   UNL     1       5.572  23.543  52.160  1.00  0.00     0.167 HD
ENDROOT
BRANCH   8  14
HETATM   14  C   UNL     1       7.423  23.052  53.929  1.00  0.00     0.012 A 
HETATM   15  C   UNL     1       7.475  22.755  55.303  1.00  0.00     0.046 A 
HETATM   16 CL   UNL     1       7.038  23.912  56.517  1.00  0.00    -0.083 Cl
HETATM   17  C   UNL     1       7.877  21.489  55.744  1.00  0.00     0.025 A 
HETATM   18  C   UNL     1       8.231  20.503  54.824  1.00  0.00     0.002 A 
HETATM   19  C   UNL     1       8.187  20.782  53.460  1.00  0.00     0.001 A 
HETATM   20  C   UNL     1       7.790  22.046  53.017  1.00  0.00     0.015 A 
ENDBRANCH   8  14
BRANCH   1  21
HETATM   21  C   UNL     1       3.770  27.599  49.561  1.00  0.00     0.055 A 
HETATM   22  C   UNL     1       2.830  28.603  49.823  1.00  0.00     0.031 A 
HETATM   23  C   UNL     1       2.003  29.099  48.809  1.00  0.00     0.002 A 
HETATM   24  C   UNL     1       2.102  28.595  47.516  1.00  0.00     0.000 A 
HETATM   25  C   UNL     1       3.024  27.591  47.236  1.00  0.00     0.002 A 
HETATM   26  C   UNL     1       3.850  27.096  48.251  1.00  0.00     0.031 A 
ENDBRANCH   1  21
TORSDOF 2
ENDMDL
MODEL 6
REMARK VINA RESULT:      -9.3      2.949      8.382
REMARK  2 active torsions:
REMARK  status: ('A' for Active; 'I' for Inactive)
REMARK    1  A    between atoms: C_4  and  N_5 
REMARK    2  A    between atoms: C_12  and  C_13 
ROOT
HETATM    1  N   UNL     1       7.532  30.233  58.671  1.00  0.00    -0.236 N 
HETATM    2  N   UNL     1       8.188  29.066  58.217  1.00  0.00    -0.179 NA
HETATM    3  C   UNL     1       7.542  28.691  57.054  1.00  0.00     0.119 A 
HETATM    4  C   UNL     1       6.573  29.556  56.712  1.00  0.00     0.123 A 
HETATM    5  C   UNL     1       6.530  30.591  57.755  1.00  0.00     0.280 A 
HETATM    6  O   UNL     1       5.755  31.531  57.778  1.00  0.00    -0.265 OA
HETATM    7  N   UNL     1       7.773  27.565  56.314  1.00  0.00    -0.344 N 
HETATM    8  C   UNL     1       7.019  27.252  55.201  1.00  0.00     0.049 A 
HETATM    9  C   UNL     1       6.024  28.054  54.776  1.00  0.00     0.086 A 
HETATM   10  C   UNL     1       5.739  29.311  55.532  1.00  0.00     0.193 A 
HETATM   11  O   UNL     1       4.850  30.062  55.154  1.00  0.00    -0.287 OA
HETATM   12  H   UNL     1       8.150  28.312  58.903  1.00  0.00     0.155 HD
HETATM   13  H   UNL     1       8.525  26.945  56.592  1.00  0.00     0.167 HD
ENDROOT
BRANCH   8  14
HETATM   14  C   UNL     1       7.328  26.000  54.477  1.00  0.00     0.012 A 
HETATM   15  C   UNL     1       7.290  24.731  55.082  1.00  0.00     0.046 A 
HETATM   16 CL   UNL     1       6.855  24.511  56.744  1.00  0.00    -0.083 Cl
HETATM   17  C   UNL     1       7.597  23.581  54.346  1.00  0.00     0.025 A 
HETATM   18  C   UNL     1       7.944  23.679  52.999  1.00  0.00     0.002 A 
HETATM   19  C   UNL     1       7.988  24.929  52.386  1.00  0.00     0.001 A 
HETATM   20  C   UNL     1       7.687  26.079  53.119  1.00  0.00     0.015 A 
ENDBRANCH   8  14
BRANCH   1  21
HETATM   21  C   UNL     1       7.935  30.867  59.866  1.00  0.00     0.055 A 
HETATM   22  C   UNL     1       7.195  31.921  60.416  1.00  0.00     0.031 A 
HETATM   23  C   UNL     1       7.591  32.534  61.610  1.00  0.00     0.002 A 
HETATM   24  C   UNL     1       8.735  32.103  62.273  1.00  0.00     0.000 A 
HETATM   25  C   UNL     1       9.489  31.062  61.739  1.00  0.00     0.002 A 
HETATM   26  C   UNL     1       9.093  30.450  60.545  1.00  0.00     0.031 A 
ENDBRANCH   1  21
TORSDOF 2
ENDMDL
MODEL 7
REMARK VINA RESULT:      -9.2      8.353     10.198
REMARK  2 active torsions:
REMARK  status: ('A' for Active; 'I' for Inactive)
REMARK    1  A    between atoms: C_4  and  N_5 
REMARK    2  A    between atoms: C_12  and  C_13 
ROOT
HETATM    1  N   UNL     1       6.947  23.762  53.626  1.00  0.00    -0.236 N 
HETATM    2  N   UNL     1       7.011  24.165  52.274  1.00  0.00    -0.179 NA
HETATM    3  C   UNL     1       6.326  25.363  52.198  1.00  0.00     0.119 A 
HETATM    4  C   UNL     1       5.885  25.771  53.400  1.00  0.00     0.123 A 
HETATM    5  C   UNL     1       6.272  24.740  54.373  1.00  0.00     0.280 A 
HETATM    6  O   UNL     1       6.018  24.772  55.565  1.00  0.00    -0.265 OA
HETATM    7  N   UNL     1       6.048  26.079  51.067  1.00  0.00    -0.344 N 
HETATM    8  C   UNL     1       5.293  27.234  51.097  1.00  0.00     0.049 A 
HETATM    9  C   UNL     1       4.804  27.726  52.252  1.00  0.00     0.086 A 
HETATM   10  C   UNL     1       5.094  26.998  53.525  1.00  0.00     0.193 A 
HETATM   11  O   UNL     1       4.672  27.436  54.587  1.00  0.00    -0.287 OA
HETATM   12  H   UNL     1       6.594  23.478  51.646  1.00  0.00     0.155 HD
HETATM   13  H   UNL     1       6.413  25.751  50.180  1.00  0.00     0.167 HD
ENDROOT
BRANCH   8  14
HETATM   14  C   UNL     1       5.025  27.928  49.819  1.00  0.00     0.012 A 
HETATM   15  C   UNL     1       4.326  27.335  48.752  1.00  0.00     0.046 A 
HETATM   16 CL   UNL     1       3.689  25.727  48.844  1.00  0.00    -0.083 Cl
HETATM   17  C   UNL     1       4.107  28.041  47.564  1.00  0.00     0.025 A 
HETATM   18  C   UNL     1       4.579  29.345  47.423  1.00  0.00     0.002 A 
HETATM   19  C   UNL     1       5.276  29.945  48.469  1.00  0.00     0.001 A 
HETATM   20  C   UNL     1       5.500  29.242  49.655  1.00  0.00     0.015 A 
ENDBRANCH   8  14
BRANCH   1  21
HETATM   21  C   UNL     1       7.535  22.548  54.045  1.00  0.00     0.055 A 
HETATM   22  C   UNL     1       7.644  22.223  55.403  1.00  0.00     0.031 A 
HETATM   23  C   UNL     1       8.213  21.012  55.811  1.00  0.00     0.002 A 
HETATM   24  C   UNL     1       8.684  20.106  54.866  1.00  0.00     0.000 A 
HETATM   25  C   UNL     1       8.592  20.414  53.512  1.00  0.00     0.002 A 
HETATM   26  C   UNL     1       8.024  21.626  53.105  1.00  0.00     0.031 A 
ENDBRANCH   1  21
TORSDOF 2
ENDMDL
MODEL 8
REMARK VINA RESULT:      -9.2      3.220      5.242
REMARK  2 active torsions:
REMARK  status: ('A' for Active; 'I' for Inactive)
REMARK    1  A    between atoms: C_4  and  N_5 
REMARK    2  A    between atoms: C_12  and  C_13 
ROOT
HETATM    1  N   UNL     1       7.766  24.330  54.903  1.00  0.00    -0.236 N 
HETATM    2  N   UNL     1       8.043  24.974  56.129  1.00  0.00    -0.179 NA
HETATM    3  C   UNL     1       7.767  26.314  55.931  1.00  0.00     0.119 A 
HETATM    4  C   UNL     1       7.288  26.554  54.698  1.00  0.00     0.123 A 
HETATM    5  C   UNL     1       7.273  25.270  53.984  1.00  0.00     0.280 A 
HETATM    6  O   UNL     1       6.913  25.115  52.830  1.00  0.00    -0.265 OA
HETATM    7  N   UNL     1       7.976  27.335  56.815  1.00  0.00    -0.344 N 
HETATM    8  C   UNL     1       7.727  28.652  56.487  1.00  0.00     0.049 A 
HETATM    9  C   UNL     1       7.246  28.998  55.277  1.00  0.00     0.086 A 
HETATM   10  C   UNL     1       6.976  27.922  54.275  1.00  0.00     0.193 A 
HETATM   11  O   UNL     1       6.525  28.212  53.175  1.00  0.00    -0.287 OA
HETATM   12  H   UNL     1       9.014  24.851  56.418  1.00  0.00     0.155 HD
HETATM   13  H   UNL     1       8.321  27.114  57.742  1.00  0.00     0.167 HD
ENDROOT
BRANCH   8  14
HETATM   14  C   UNL     1       8.006  29.690  57.502  1.00  0.00     0.012 A 
HETATM   15  C   UNL     1       7.000  30.455  58.120  1.00  0.00     0.046 A 
HETATM   16 CL   UNL     1       5.320  30.236  57.759  1.00  0.00    -0.083 Cl
HETATM   17  C   UNL     1       7.326  31.427  59.071  1.00  0.00     0.025 A 
HETATM   18  C   UNL     1       8.657  31.650  59.421  1.00  0.00     0.002 A 
HETATM   19  C   UNL     1       9.665  30.903  58.818  1.00  0.00     0.001 A 
HETATM   20  C   UNL     1       9.343  29.935  57.864  1.00  0.00     0.015 A 
ENDBRANCH   8  14
BRANCH   1  21
HETATM   21  C   UNL     1       7.970  22.941  54.756  1.00  0.00     0.055 A 
HETATM   22  C   UNL     1       7.645  22.045  55.782  1.00  0.00     0.031 A 
HETATM   23  C   UNL     1       7.834  20.668  55.623  1.00  0.00     0.002 A 
HETATM   24  C   UNL     1       8.353  20.164  54.435  1.00  0.00     0.000 A 
HETATM   25  C   UNL     1       8.690  21.038  53.406  1.00  0.00     0.002 A 
HETATM   26  C   UNL     1       8.501  22.415  53.566  1.00  0.00     0.031 A 
ENDBRANCH   1  21
TORSDOF 2
ENDMDL
MODEL 9
REMARK VINA RESULT:      -8.9      5.576     10.785
REMARK  2 active torsions:
REMARK  status: ('A' for Active; 'I' for Inactive)
REMARK    1  A    between atoms: C_4  and  N_5 
REMARK    2  A    between atoms: C_12  and  C_13 
ROOT
HETATM    1  N   UNL     1       6.237  34.455  67.753  1.00  0.00    -0.236 N 
HETATM    2  N   UNL     1       7.314  34.211  66.872  1.00  0.00    -0.179 NA
HETATM    3  C   UNL     1       6.749  33.859  65.662  1.00  0.00     0.119 A 
HETATM    4  C   UNL     1       5.406  33.915  65.695  1.00  0.00     0.123 A 
HETATM    5  C   UNL     1       5.025  34.304  67.060  1.00  0.00     0.280 A 
HETATM    6  O   UNL     1       3.880  34.435  67.457  1.00  0.00    -0.265 OA
HETATM    7  N   UNL     1       7.407  33.444  64.537  1.00  0.00    -0.344 N 
HETATM    8  C   UNL     1       6.736  33.049  63.399  1.00  0.00     0.049 A 
HETATM    9  C   UNL     1       5.391  33.069  63.331  1.00  0.00     0.086 A 
HETATM   10  C   UNL     1       4.617  33.534  64.521  1.00  0.00     0.193 A 
HETATM   11  O   UNL     1       3.394  33.574  64.476  1.00  0.00    -0.287 OA
HETATM   12  H   UNL     1       7.925  33.466  67.209  1.00  0.00     0.155 HD
HETATM   13  H   UNL     1       8.421  33.432  64.543  1.00  0.00     0.167 HD
ENDROOT
BRANCH   8  14
HETATM   14  C   UNL     1       7.534  32.595  62.240  1.00  0.00     0.012 A 
HETATM   15  C   UNL     1       7.068  32.649  60.913  1.00  0.00     0.046 A 
HETATM   16 CL   UNL     1       5.506  33.278  60.508  1.00  0.00    -0.083 Cl
HETATM   17  C   UNL     1       7.868  32.199  59.857  1.00  0.00     0.025 A 
HETATM   18  C   UNL     1       9.142  31.691  60.107  1.00  0.00     0.002 A 
HETATM   19  C   UNL     1       9.618  31.629  61.414  1.00  0.00     0.001 A 
HETATM   20  C   UNL     1       8.820  32.073  62.471  1.00  0.00     0.015 A 
ENDBRANCH   8  14
BRANCH   1  21
HETATM   21  C   UNL     1       6.472  34.817  69.097  1.00  0.00     0.055 A 
HETATM   22  C   UNL     1       5.838  34.149  70.152  1.00  0.00     0.031 A 
HETATM   23  C   UNL     1       6.089  34.501  71.483  1.00  0.00     0.002 A 
HETATM   24  C   UNL     1       6.977  35.530  71.780  1.00  0.00     0.000 A 
HETATM   25  C   UNL     1       7.611  36.211  70.746  1.00  0.00     0.002 A 
HETATM   26  C   UNL     1       7.359  35.859  69.415  1.00  0.00     0.031 A 
ENDBRANCH   1  21
TORSDOF 2
ENDMDL
MODEL 10
REMARK VINA RESULT:      -8.9      5.193      6.501
REMARK  2 active torsions:
REMARK  status: ('A' for Active; 'I' for Inactive)
REMARK    1  A    between atoms: C_4  and  N_5 
REMARK    2  A    between atoms: C_12  and  C_13 
ROOT
HETATM    1  N   UNL     1       7.272  24.199  55.257  1.00  0.00    -0.236 N 
HETATM    2  N   UNL     1       6.334  25.018  54.590  1.00  0.00    -0.179 NA
HETATM    3  C   UNL     1       6.282  26.200  55.304  1.00  0.00     0.119 A 
HETATM    4  C   UNL     1       7.150  26.211  56.330  1.00  0.00     0.123 A 
HETATM    5  C   UNL     1       7.825  24.905  56.337  1.00  0.00     0.280 A 
HETATM    6  O   UNL     1       8.667  24.557  57.146  1.00  0.00    -0.265 OA
HETATM    7  N   UNL     1       5.441  27.256  55.084  1.00  0.00    -0.344 N 
HETATM    8  C   UNL     1       5.427  28.365  55.904  1.00  0.00     0.049 A 
HETATM    9  C   UNL     1       6.257  28.472  56.960  1.00  0.00     0.086 A 
HETATM   10  C   UNL     1       7.215  27.360  57.237  1.00  0.00     0.193 A 
HETATM   11  O   UNL     1       7.989  27.443  58.182  1.00  0.00    -0.287 OA
HETATM   12  H   UNL     1       5.410  24.588  54.547  1.00  0.00     0.155 HD
HETATM   13  H   UNL     1       4.813  27.220  54.290  1.00  0.00     0.167 HD
ENDROOT
BRANCH   8  14
HETATM   14  C   UNL     1       4.465  29.447  55.600  1.00  0.00     0.012 A 
HETATM   15  C   UNL     1       4.214  29.910  54.295  1.00  0.00     0.046 A 
HETATM   16 CL   UNL     1       5.000  29.236  52.907  1.00  0.00    -0.083 Cl
HETATM   17  C   UNL     1       3.295  30.941  54.070  1.00  0.00     0.025 A 
HETATM   18  C   UNL     1       2.615  31.523  55.139  1.00  0.00     0.002 A 
HETATM   19  C   UNL     1       2.854  31.078  56.436  1.00  0.00     0.001 A 
HETATM   20  C   UNL     1       3.773  30.052  56.665  1.00  0.00     0.015 A 
ENDBRANCH   8  14
BRANCH   1  21
HETATM   21  C   UNL     1       7.548  22.894  54.793  1.00  0.00     0.055 A 
HETATM   22  C   UNL     1       7.785  22.639  53.436  1.00  0.00     0.031 A 
HETATM   23  C   UNL     1       8.074  21.346  52.986  1.00  0.00     0.002 A 
HETATM   24  C   UNL     1       8.128  20.286  53.886  1.00  0.00     0.000 A 
HETATM   25  C   UNL     1       7.887  20.517  55.237  1.00  0.00     0.002 A 
HETATM   26  C   UNL     1       7.598  21.810  55.686  1.00  0.00     0.031 A 
ENDBRANCH   1  21
TORSDOF 2
ENDMDL
