MODEL 1
REMARK VINA RESULT:      -9.0      0.000      0.000
REMARK  8 active torsions:
REMARK  status: ('A' for Active; 'I' for Inactive)
REMARK    1  A    between atoms: C_2  and  N_3 
REMARK    2  A    between atoms: C_2  and  C_17 
REMARK    3  A    between atoms: N_3  and  N_4 
REMARK       I    between atoms: N_4  and  C_5 
REMARK    4  A    between atoms: C_5  and  C_6 
REMARK    5  A    between atoms: C_6  and  N_7 
REMARK    6  A    between atoms: N_7  and  C_8 
REMARK    7  A    between atoms: C_9  and  O_10 
REMARK       I    between atoms: C_17  and  N_18 
REMARK    8  A    between atoms: N_18  and  C_19 
ROOT
HETATM    1  N   UNL     1       7.875  29.062  58.762  1.00  0.00    -0.225 NA
HETATM    2  H   UNL     1       7.265  29.454  59.495  1.00  0.00     0.147 HD
ENDROOT
BRANCH   1   3
HETATM    3  C   UNL     1       8.579  30.231  58.155  1.00  0.00     0.165 C 
HETATM    4  C   UNL     1      10.021  29.935  57.751  1.00  0.00     0.038 C 
BRANCH   3   5
HETATM    5  C   UNL     1       8.586  31.392  59.184  1.00  0.00     0.241 C 
HETATM    6  N   UNL     1       7.722  31.171  60.246  1.00  0.00    -0.326 N 
HETATM    7  H   UNL     1       7.191  30.307  60.165  1.00  0.00     0.169 HD
HETATM    8  O   UNL     1       9.323  32.363  59.043  1.00  0.00    -0.271 OA
BRANCH   6   9
HETATM    9  C   UNL     1       7.446  32.003  61.345  1.00  0.00     0.036 A 
HETATM   10  C   UNL     1       6.496  33.024  61.330  1.00  0.00     0.053 A 
HETATM   11  C   UNL     1       6.286  33.795  62.476  1.00  0.00     0.036 A 
HETATM   12 CL   UNL     1       5.120  35.063  62.453  1.00  0.00    -0.084 Cl
HETATM   13  C   UNL     1       7.010  33.556  63.643  1.00  0.00     0.024 A 
HETATM   14  C   UNL     1       7.962  32.539  63.663  1.00  0.00     0.004 A 
HETATM   15  C   UNL     1       8.182  31.772  62.516  1.00  0.00     0.029 A 
ENDBRANCH   6   9
ENDBRANCH   3   5
ENDBRANCH   1   3
BRANCH   1  16
HETATM   16  N   UNL     1       7.022  28.396  57.846  1.00  0.00    -0.290 N 
HETATM   17  C   UNL     1       7.261  27.060  57.532  1.00  0.00     0.245 C 
HETATM   18  O   UNL     1       7.994  26.323  58.188  1.00  0.00    -0.271 OA
HETATM   19  H   UNL     1       6.622  28.934  57.068  1.00  0.00     0.183 HD
BRANCH  17  20
HETATM   20  C   UNL     1       6.504  26.603  56.280  1.00  0.00     0.196 C 
BRANCH  20  21
HETATM   21  N   UNL     1       6.217  25.158  56.324  1.00  0.00    -0.282 NA
HETATM   22  H   UNL     1       6.283  24.765  57.267  1.00  0.00     0.128 HD
BRANCH  21  23
HETATM   23  C   UNL     1       6.911  24.289  55.449  1.00  0.00     0.042 A 
HETATM   24  C   UNL     1       6.502  24.231  54.093  1.00  0.00     0.089 A 
HETATM   25  C   UNL     1       7.218  23.460  53.170  1.00  0.00     0.038 A 
HETATM   26  C   UNL     1       8.355  22.760  53.572  1.00  0.00     0.003 A 
HETATM   27  C   UNL     1       8.783  22.832  54.893  1.00  0.00     0.002 A 
HETATM   28  C   UNL     1       8.074  23.599  55.821  1.00  0.00     0.026 A 
BRANCH  24  29
HETATM   29  O   UNL     1       5.366  24.952  53.797  1.00  0.00    -0.354 OA
HETATM   30  C   UNL     1       4.881  24.868  52.462  1.00  0.00     0.210 C 
ENDBRANCH  24  29
ENDBRANCH  21  23
ENDBRANCH  20  21
ENDBRANCH  17  20
ENDBRANCH   1  16
TORSDOF 8
ENDMDL
MODEL 2
REMARK VINA RESULT:      -9.0      3.549      9.624
REMARK  8 active torsions:
REMARK  status: ('A' for Active; 'I' for Inactive)
REMARK    1  A    between atoms: C_2  and  N_3 
REMARK    2  A    between atoms: C_2  and  C_17 
REMARK    3  A    between atoms: N_3  and  N_4 
REMARK       I    between atoms: N_4  and  C_5 
REMARK    4  A    between atoms: C_5  and  C_6 
REMARK    5  A    between atoms: C_6  and  N_7 
REMARK    6  A    between atoms: N_7  and  C_8 
REMARK    7  A    between atoms: C_9  and  O_10 
REMARK       I    between atoms: C_17  and  N_18 
REMARK    8  A    between atoms: N_18  and  C_19 
ROOT
HETATM    1  N   UNL     1       7.165  28.977  55.298  1.00  0.00    -0.225 NA
HETATM    2  H   UNL     1       6.564  29.724  54.921  1.00  0.00     0.147 HD
ENDROOT
BRANCH   1   3
HETATM    3  C   UNL     1       6.247  27.843  55.616  1.00  0.00     0.165 C 
HETATM    4  C   UNL     1       5.539  27.987  56.961  1.00  0.00     0.038 C 
BRANCH   3   5
HETATM    5  C   UNL     1       7.074  26.529  55.635  1.00  0.00     0.241 C 
HETATM    6  N   UNL     1       6.654  25.619  54.678  1.00  0.00    -0.326 N 
HETATM    7  H   UNL     1       5.849  25.934  54.143  1.00  0.00     0.169 HD
HETATM    8  O   UNL     1       8.012  26.379  56.413  1.00  0.00    -0.271 OA
BRANCH   6   9
HETATM    9  C   UNL     1       7.142  24.327  54.417  1.00  0.00     0.036 A 
HETATM   10  C   UNL     1       7.148  23.292  55.353  1.00  0.00     0.053 A 
HETATM   11  C   UNL     1       7.648  22.037  54.998  1.00  0.00     0.036 A 
HETATM   12 CL   UNL     1       7.664  20.762  56.157  1.00  0.00    -0.084 Cl
HETATM   13  C   UNL     1       8.139  21.798  53.715  1.00  0.00     0.024 A 
HETATM   14  C   UNL     1       8.138  22.828  52.778  1.00  0.00     0.004 A 
HETATM   15  C   UNL     1       7.648  24.088  53.132  1.00  0.00     0.029 A 
ENDBRANCH   6   9
ENDBRANCH   3   5
ENDBRANCH   1   3
BRANCH   1  16
HETATM   16  N   UNL     1       7.796  29.514  56.449  1.00  0.00    -0.290 N 
HETATM   17  C   UNL     1       9.177  29.692  56.454  1.00  0.00     0.245 C 
HETATM   18  O   UNL     1       9.874  29.674  55.441  1.00  0.00    -0.271 OA
HETATM   19  H   UNL     1       7.409  29.285  57.372  1.00  0.00     0.183 HD
BRANCH  17  20
HETATM   20  C   UNL     1       9.738  29.922  57.862  1.00  0.00     0.196 C 
BRANCH  20  21
HETATM   21  N   UNL     1       8.702  29.718  58.892  1.00  0.00    -0.282 NA
HETATM   22  H   UNL     1       7.771  29.557  58.496  1.00  0.00     0.128 HD
BRANCH  21  23
HETATM   23  C   UNL     1       8.566  30.666  59.933  1.00  0.00     0.042 A 
HETATM   24  C   UNL     1       7.660  31.741  59.751  1.00  0.00     0.089 A 
HETATM   25  C   UNL     1       7.421  32.649  60.788  1.00  0.00     0.038 A 
HETATM   26  C   UNL     1       8.055  32.489  62.020  1.00  0.00     0.003 A 
HETATM   27  C   UNL     1       8.924  31.423  62.221  1.00  0.00     0.002 A 
HETATM   28  C   UNL     1       9.169  30.512  61.190  1.00  0.00     0.026 A 
BRANCH  24  29
HETATM   29  O   UNL     1       7.090  31.815  58.499  1.00  0.00    -0.354 OA
HETATM   30  C   UNL     1       5.717  32.184  58.439  1.00  0.00     0.210 C 
ENDBRANCH  24  29
ENDBRANCH  21  23
ENDBRANCH  20  21
ENDBRANCH  17  20
ENDBRANCH   1  16
TORSDOF 8
ENDMDL
MODEL 3
REMARK VINA RESULT:      -8.9      1.102      1.772
REMARK  8 active torsions:
REMARK  status: ('A' for Active; 'I' for Inactive)
REMARK    1  A    between atoms: C_2  and  N_3 
REMARK    2  A    between atoms: C_2  and  C_17 
REMARK    3  A    between atoms: N_3  and  N_4 
REMARK       I    between atoms: N_4  and  C_5 
REMARK    4  A    between atoms: C_5  and  C_6 
REMARK    5  A    between atoms: C_6  and  N_7 
REMARK    6  A    between atoms: N_7  and  C_8 
REMARK    7  A    between atoms: C_9  and  O_10 
REMARK       I    between atoms: C_17  and  N_18 
REMARK    8  A    between atoms: N_18  and  C_19 
ROOT
HETATM    1  N   UNL     1       7.921  29.305  59.002  1.00  0.00    -0.225 NA
HETATM    2  H   UNL     1       7.334  29.641  59.780  1.00  0.00     0.147 HD
ENDROOT
BRANCH   1   3
HETATM    3  C   UNL     1       8.565  30.522  58.427  1.00  0.00     0.165 C 
HETATM    4  C   UNL     1      10.012  30.302  57.992  1.00  0.00     0.038 C 
BRANCH   3   5
HETATM    5  C   UNL     1       8.540  31.646  59.497  1.00  0.00     0.241 C 
HETATM    6  N   UNL     1       7.621  31.405  60.506  1.00  0.00    -0.326 N 
HETATM    7  H   UNL     1       7.080  30.555  60.368  1.00  0.00     0.169 HD
HETATM    8  O   UNL     1       9.300  32.608  59.428  1.00  0.00    -0.271 OA
BRANCH   6   9
HETATM    9  C   UNL     1       7.305  32.202  61.619  1.00  0.00     0.036 A 
HETATM   10  C   UNL     1       6.221  33.079  61.667  1.00  0.00     0.053 A 
HETATM   11  C   UNL     1       5.982  33.826  62.823  1.00  0.00     0.036 A 
HETATM   12 CL   UNL     1       4.649  34.917  62.877  1.00  0.00    -0.084 Cl
HETATM   13  C   UNL     1       6.809  33.705  63.938  1.00  0.00     0.024 A 
HETATM   14  C   UNL     1       7.894  32.833  63.895  1.00  0.00     0.004 A 
HETATM   15  C   UNL     1       8.143  32.091  62.738  1.00  0.00     0.029 A 
ENDBRANCH   6   9
ENDBRANCH   3   5
ENDBRANCH   1   3
BRANCH   1  16
HETATM   16  N   UNL     1       7.046  28.662  58.091  1.00  0.00    -0.290 N 
HETATM   17  C   UNL     1       7.524  27.622  57.296  1.00  0.00     0.245 C 
HETATM   18  O   UNL     1       8.580  27.030  57.508  1.00  0.00    -0.271 OA
HETATM   19  H   UNL     1       6.313  29.220  57.636  1.00  0.00     0.183 HD
BRANCH  17  20
HETATM   20  C   UNL     1       6.587  27.291  56.130  1.00  0.00     0.196 C 
BRANCH  20  21
HETATM   21  N   UNL     1       6.482  25.835  55.922  1.00  0.00    -0.282 NA
HETATM   22  H   UNL     1       6.807  25.292  56.727  1.00  0.00     0.128 HD
BRANCH  21  23
HETATM   23  C   UNL     1       7.051  25.260  54.761  1.00  0.00     0.042 A 
HETATM   24  C   UNL     1       7.357  23.876  54.776  1.00  0.00     0.089 A 
HETATM   25  C   UNL     1       7.831  23.243  53.622  1.00  0.00     0.038 A 
HETATM   26  C   UNL     1       7.985  23.965  52.439  1.00  0.00     0.003 A 
HETATM   27  C   UNL     1       7.661  25.317  52.403  1.00  0.00     0.002 A 
HETATM   28  C   UNL     1       7.188  25.956  53.552  1.00  0.00     0.026 A 
BRANCH  24  29
HETATM   29  O   UNL     1       7.176  23.254  55.992  1.00  0.00    -0.354 OA
HETATM   30  C   UNL     1       8.339  22.734  56.627  1.00  0.00     0.210 C 
ENDBRANCH  24  29
ENDBRANCH  21  23
ENDBRANCH  20  21
ENDBRANCH  17  20
ENDBRANCH   1  16
TORSDOF 8
ENDMDL
MODEL 4
REMARK VINA RESULT:      -8.9      4.233      9.225
REMARK  8 active torsions:
REMARK  status: ('A' for Active; 'I' for Inactive)
REMARK    1  A    between atoms: C_2  and  N_3 
REMARK    2  A    between atoms: C_2  and  C_17 
REMARK    3  A    between atoms: N_3  and  N_4 
REMARK       I    between atoms: N_4  and  C_5 
REMARK    4  A    between atoms: C_5  and  C_6 
REMARK    5  A    between atoms: C_6  and  N_7 
REMARK    6  A    between atoms: N_7  and  C_8 
REMARK    7  A    between atoms: C_9  and  O_10 
REMARK       I    between atoms: C_17  and  N_18 
REMARK    8  A    between atoms: N_18  and  C_19 
ROOT
HETATM    1  N   UNL     1       4.561  27.203  55.726  1.00  0.00    -0.225 NA
HETATM    2  H   UNL     1       4.625  26.266  56.150  1.00  0.00     0.147 HD
ENDROOT
BRANCH   1   3
HETATM    3  C   UNL     1       5.289  27.109  54.426  1.00  0.00     0.165 C 
HETATM    4  C   UNL     1       4.570  27.800  53.269  1.00  0.00     0.038 C 
BRANCH   3   5
HETATM    5  C   UNL     1       5.467  25.610  54.067  1.00  0.00     0.241 C 
HETATM    6  N   UNL     1       6.662  25.085  54.533  1.00  0.00    -0.326 N 
HETATM    7  H   UNL     1       7.252  25.771  54.999  1.00  0.00     0.169 HD
HETATM    8  O   UNL     1       4.594  24.992  53.463  1.00  0.00    -0.271 OA
BRANCH   6   9
HETATM    9  C   UNL     1       7.173  23.785  54.380  1.00  0.00     0.036 A 
HETATM   10  C   UNL     1       7.301  22.869  55.425  1.00  0.00     0.053 A 
HETATM   11  C   UNL     1       7.813  21.595  55.174  1.00  0.00     0.036 A 
HETATM   12 CL   UNL     1       7.980  20.469  56.467  1.00  0.00    -0.084 Cl
HETATM   13  C   UNL     1       8.197  21.218  53.888  1.00  0.00     0.024 A 
HETATM   14  C   UNL     1       8.075  22.128  52.841  1.00  0.00     0.004 A 
HETATM   15  C   UNL     1       7.571  23.408  53.090  1.00  0.00     0.029 A 
ENDBRANCH   6   9
ENDBRANCH   3   5
ENDBRANCH   1   3
BRANCH   1  16
HETATM   16  N   UNL     1       5.177  28.097  56.638  1.00  0.00    -0.290 N 
HETATM   17  C   UNL     1       4.785  29.434  56.660  1.00  0.00     0.245 C 
HETATM   18  O   UNL     1       3.754  29.853  56.138  1.00  0.00    -0.271 OA
HETATM   19  H   UNL     1       6.167  27.957  56.869  1.00  0.00     0.183 HD
BRANCH  17  20
HETATM   20  C   UNL     1       5.776  30.327  57.415  1.00  0.00     0.196 C 
BRANCH  20  21
HETATM   21  N   UNL     1       6.752  29.524  58.174  1.00  0.00    -0.282 NA
HETATM   22  H   UNL     1       6.566  29.516  59.181  1.00  0.00     0.128 HD
BRANCH  21  23
HETATM   23  C   UNL     1       8.134  29.766  57.995  1.00  0.00     0.042 A 
HETATM   24  C   UNL     1       8.857  28.921  57.116  1.00  0.00     0.089 A 
HETATM   25  C   UNL     1      10.203  29.179  56.833  1.00  0.00     0.038 A 
HETATM   26  C   UNL     1      10.839  30.285  57.397  1.00  0.00     0.003 A 
HETATM   27  C   UNL     1      10.132  31.138  58.238  1.00  0.00     0.002 A 
HETATM   28  C   UNL     1       8.789  30.887  58.525  1.00  0.00     0.026 A 
BRANCH  24  29
HETATM   29  O   UNL     1       8.143  27.854  56.616  1.00  0.00    -0.354 OA
HETATM   30  C   UNL     1       8.374  26.587  57.220  1.00  0.00     0.210 C 
ENDBRANCH  24  29
ENDBRANCH  21  23
ENDBRANCH  20  21
ENDBRANCH  17  20
ENDBRANCH   1  16
TORSDOF 8
ENDMDL
MODEL 5
REMARK VINA RESULT:      -8.8      3.507      4.964
REMARK  8 active torsions:
REMARK  status: ('A' for Active; 'I' for Inactive)
REMARK    1  A    between atoms: C_2  and  N_3 
REMARK    2  A    between atoms: C_2  and  C_17 
REMARK    3  A    between atoms: N_3  and  N_4 
REMARK       I    between atoms: N_4  and  C_5 
REMARK    4  A    between atoms: C_5  and  C_6 
REMARK    5  A    between atoms: C_6  and  N_7 
REMARK    6  A    between atoms: N_7  and  C_8 
REMARK    7  A    between atoms: C_9  and  O_10 
REMARK       I    between atoms: C_17  and  N_18 
REMARK    8  A    between atoms: N_18  and  C_19 
ROOT
HETATM    1  N   UNL     1       5.143  27.426  54.564  1.00  0.00    -0.225 NA
HETATM    2  H   UNL     1       5.653  28.238  54.187  1.00  0.00     0.147 HD
ENDROOT
BRANCH   1   3
HETATM    3  C   UNL     1       4.907  27.732  56.006  1.00  0.00     0.165 C 
HETATM    4  C   UNL     1       4.083  28.997  56.237  1.00  0.00     0.038 C 
BRANCH   3   5
HETATM    5  C   UNL     1       6.282  27.909  56.705  1.00  0.00     0.241 C 
HETATM    6  N   UNL     1       6.866  29.137  56.432  1.00  0.00    -0.326 N 
HETATM    7  H   UNL     1       6.326  29.710  55.789  1.00  0.00     0.169 HD
HETATM    8  O   UNL     1       6.740  27.038  57.438  1.00  0.00    -0.271 OA
BRANCH   6   9
HETATM    9  C   UNL     1       8.107  29.637  56.864  1.00  0.00     0.036 A 
HETATM   10  C   UNL     1       8.276  30.423  58.005  1.00  0.00     0.053 A 
HETATM   11  C   UNL     1       9.552  30.867  58.359  1.00  0.00     0.036 A 
HETATM   12 CL   UNL     1       9.759  31.847  59.761  1.00  0.00    -0.084 Cl
HETATM   13  C   UNL     1      10.666  30.533  57.591  1.00  0.00     0.024 A 
HETATM   14  C   UNL     1      10.503  29.751  56.450  1.00  0.00     0.004 A 
HETATM   15  C   UNL     1       9.227  29.311  56.087  1.00  0.00     0.029 A 
ENDBRANCH   6   9
ENDBRANCH   3   5
ENDBRANCH   1   3
BRANCH   1  16
HETATM   16  N   UNL     1       5.984  26.301  54.370  1.00  0.00    -0.290 N 
HETATM   17  C   UNL     1       7.220  26.466  53.750  1.00  0.00     0.245 C 
HETATM   18  O   UNL     1       7.767  27.556  53.593  1.00  0.00    -0.271 OA
HETATM   19  H   UNL     1       5.549  25.391  54.180  1.00  0.00     0.183 HD
BRANCH  17  20
HETATM   20  C   UNL     1       7.831  25.138  53.287  1.00  0.00     0.196 C 
BRANCH  20  21
HETATM   21  N   UNL     1       6.947  24.002  53.605  1.00  0.00    -0.282 NA
HETATM   22  H   UNL     1       6.259  24.221  54.332  1.00  0.00     0.128 HD
BRANCH  21  23
HETATM   23  C   UNL     1       7.520  22.749  53.923  1.00  0.00     0.042 A 
HETATM   24  C   UNL     1       7.643  22.392  55.290  1.00  0.00     0.089 A 
HETATM   25  C   UNL     1       8.115  21.125  55.651  1.00  0.00     0.038 A 
HETATM   26  C   UNL     1       8.448  20.193  54.668  1.00  0.00     0.003 A 
HETATM   27  C   UNL     1       8.305  20.521  53.324  1.00  0.00     0.002 A 
HETATM   28  C   UNL     1       7.834  21.784  52.956  1.00  0.00     0.026 A 
BRANCH  24  29
HETATM   29  O   UNL     1       7.295  23.381  56.183  1.00  0.00    -0.354 OA
HETATM   30  C   UNL     1       8.340  23.922  56.983  1.00  0.00     0.210 C 
ENDBRANCH  24  29
ENDBRANCH  21  23
ENDBRANCH  20  21
ENDBRANCH  17  20
ENDBRANCH   1  16
TORSDOF 8
ENDMDL
MODEL 6
REMARK VINA RESULT:      -8.8      3.769      9.711
REMARK  8 active torsions:
REMARK  status: ('A' for Active; 'I' for Inactive)
REMARK    1  A    between atoms: C_2  and  N_3 
REMARK    2  A    between atoms: C_2  and  C_17 
REMARK    3  A    between atoms: N_3  and  N_4 
REMARK       I    between atoms: N_4  and  C_5 
REMARK    4  A    between atoms: C_5  and  C_6 
REMARK    5  A    between atoms: C_6  and  N_7 
REMARK    6  A    between atoms: N_7  and  C_8 
REMARK    7  A    between atoms: C_9  and  O_10 
REMARK       I    between atoms: C_17  and  N_18 
REMARK    8  A    between atoms: N_18  and  C_19 
ROOT
HETATM    1  N   UNL     1       6.453  27.385  53.492  1.00  0.00    -0.225 NA
HETATM    2  H   UNL     1       5.552  27.840  53.699  1.00  0.00     0.147 HD
ENDROOT
BRANCH   1   3
HETATM    3  C   UNL     1       6.124  26.207  52.637  1.00  0.00     0.165 C 
HETATM    4  C   UNL     1       4.750  25.605  52.926  1.00  0.00     0.038 C 
BRANCH   3   5
HETATM    5  C   UNL     1       7.198  25.112  52.871  1.00  0.00     0.241 C 
HETATM    6  N   UNL     1       6.683  23.979  53.482  1.00  0.00    -0.326 N 
HETATM    7  H   UNL     1       5.697  24.057  53.718  1.00  0.00     0.169 HD
HETATM    8  O   UNL     1       8.358  25.269  52.502  1.00  0.00    -0.271 OA
BRANCH   6   9
HETATM    9  C   UNL     1       7.352  22.805  53.869  1.00  0.00     0.036 A 
HETATM   10  C   UNL     1       7.601  22.451  55.195  1.00  0.00     0.053 A 
HETATM   11  C   UNL     1       8.268  21.258  55.482  1.00  0.00     0.036 A 
HETATM   12 CL   UNL     1       8.585  20.827  57.120  1.00  0.00    -0.084 Cl
HETATM   13  C   UNL     1       8.687  20.407  54.461  1.00  0.00     0.024 A 
HETATM   14  C   UNL     1       8.444  20.757  53.135  1.00  0.00     0.004 A 
HETATM   15  C   UNL     1       7.785  21.954  52.842  1.00  0.00     0.029 A 
ENDBRANCH   6   9
ENDBRANCH   3   5
ENDBRANCH   1   3
BRANCH   1  16
HETATM   16  N   UNL     1       7.013  27.020  54.742  1.00  0.00    -0.290 N 
HETATM   17  C   UNL     1       6.284  27.235  55.910  1.00  0.00     0.245 C 
HETATM   18  O   UNL     1       5.078  27.471  55.930  1.00  0.00    -0.271 OA
HETATM   19  H   UNL     1       8.027  27.109  54.871  1.00  0.00     0.183 HD
BRANCH  17  20
HETATM   20  C   UNL     1       7.149  27.139  57.172  1.00  0.00     0.196 C 
BRANCH  20  21
HETATM   21  N   UNL     1       7.265  28.446  57.844  1.00  0.00    -0.282 NA
HETATM   22  H   UNL     1       6.469  29.062  57.659  1.00  0.00     0.128 HD
BRANCH  21  23
HETATM   23  C   UNL     1       8.445  29.208  57.674  1.00  0.00     0.042 A 
HETATM   24  C   UNL     1       8.595  30.394  58.435  1.00  0.00     0.089 A 
HETATM   25  C   UNL     1       9.784  31.130  58.373  1.00  0.00     0.038 A 
HETATM   26  C   UNL     1      10.841  30.688  57.578  1.00  0.00     0.003 A 
HETATM   27  C   UNL     1      10.717  29.510  56.849  1.00  0.00     0.002 A 
HETATM   28  C   UNL     1       9.533  28.771  56.906  1.00  0.00     0.026 A 
BRANCH  24  29
HETATM   29  O   UNL     1       7.494  30.749  59.183  1.00  0.00    -0.354 OA
HETATM   30  C   UNL     1       7.580  31.965  59.917  1.00  0.00     0.210 C 
ENDBRANCH  24  29
ENDBRANCH  21  23
ENDBRANCH  20  21
ENDBRANCH  17  20
ENDBRANCH   1  16
TORSDOF 8
ENDMDL
MODEL 7
REMARK VINA RESULT:      -8.7      4.010      5.741
REMARK  8 active torsions:
REMARK  status: ('A' for Active; 'I' for Inactive)
REMARK    1  A    between atoms: C_2  and  N_3 
REMARK    2  A    between atoms: C_2  and  C_17 
REMARK    3  A    between atoms: N_3  and  N_4 
REMARK       I    between atoms: N_4  and  C_5 
REMARK    4  A    between atoms: C_5  and  C_6 
REMARK    5  A    between atoms: C_6  and  N_7 
REMARK    6  A    between atoms: N_7  and  C_8 
REMARK    7  A    between atoms: C_9  and  O_10 
REMARK       I    between atoms: C_17  and  N_18 
REMARK    8  A    between atoms: N_18  and  C_19 
ROOT
HETATM    1  N   UNL     1       4.310  26.729  53.222  1.00  0.00    -0.225 NA
HETATM    2  H   UNL     1       4.032  26.893  52.243  1.00  0.00     0.147 HD
ENDROOT
BRANCH   1   3
HETATM    3  C   UNL     1       4.270  28.068  53.882  1.00  0.00     0.165 C 
HETATM    4  C   UNL     1       4.706  29.213  52.970  1.00  0.00     0.038 C 
BRANCH   3   5
HETATM    5  C   UNL     1       5.212  28.039  55.115  1.00  0.00     0.241 C 
HETATM    6  N   UNL     1       6.011  29.168  55.206  1.00  0.00    -0.326 N 
HETATM    7  H   UNL     1       5.886  29.817  54.433  1.00  0.00     0.169 HD
HETATM    8  O   UNL     1       5.186  27.107  55.914  1.00  0.00    -0.271 OA
BRANCH   6   9
HETATM    9  C   UNL     1       6.991  29.479  56.163  1.00  0.00     0.036 A 
HETATM   10  C   UNL     1       8.358  29.266  55.978  1.00  0.00     0.053 A 
HETATM   11  C   UNL     1       9.259  29.615  56.986  1.00  0.00     0.036 A 
HETATM   12 CL   UNL     1      10.945  29.341  56.760  1.00  0.00    -0.084 Cl
HETATM   13  C   UNL     1       8.814  30.182  58.179  1.00  0.00     0.024 A 
HETATM   14  C   UNL     1       7.452  30.395  58.371  1.00  0.00     0.004 A 
HETATM   15  C   UNL     1       6.545  30.039  57.369  1.00  0.00     0.029 A 
ENDBRANCH   6   9
ENDBRANCH   3   5
ENDBRANCH   1   3
BRANCH   1  16
HETATM   16  N   UNL     1       5.614  26.174  53.181  1.00  0.00    -0.290 N 
HETATM   17  C   UNL     1       6.160  25.796  51.956  1.00  0.00     0.245 C 
HETATM   18  O   UNL     1       5.712  26.150  50.868  1.00  0.00    -0.271 OA
HETATM   19  H   UNL     1       5.923  25.588  53.965  1.00  0.00     0.183 HD
BRANCH  17  20
HETATM   20  C   UNL     1       7.388  24.892  52.112  1.00  0.00     0.196 C 
BRANCH  20  21
HETATM   21  N   UNL     1       7.610  24.527  53.524  1.00  0.00    -0.282 NA
HETATM   22  H   UNL     1       8.367  25.062  53.961  1.00  0.00     0.128 HD
BRANCH  21  23
HETATM   23  C   UNL     1       7.796  23.167  53.865  1.00  0.00     0.042 A 
HETATM   24  C   UNL     1       7.702  22.796  55.230  1.00  0.00     0.089 A 
HETATM   25  C   UNL     1       7.782  21.451  55.606  1.00  0.00     0.038 A 
HETATM   26  C   UNL     1       7.932  20.460  54.636  1.00  0.00     0.003 A 
HETATM   27  C   UNL     1       7.997  20.807  53.292  1.00  0.00     0.002 A 
HETATM   28  C   UNL     1       7.918  22.149  52.909  1.00  0.00     0.026 A 
BRANCH  24  29
HETATM   29  O   UNL     1       7.560  23.847  56.109  1.00  0.00    -0.354 OA
HETATM   30  C   UNL     1       8.518  23.943  57.157  1.00  0.00     0.210 C 
ENDBRANCH  24  29
ENDBRANCH  21  23
ENDBRANCH  20  21
ENDBRANCH  17  20
ENDBRANCH   1  16
TORSDOF 8
ENDMDL
MODEL 8
REMARK VINA RESULT:      -8.7      3.600      9.164
REMARK  8 active torsions:
REMARK  status: ('A' for Active; 'I' for Inactive)
REMARK    1  A    between atoms: C_2  and  N_3 
REMARK    2  A    between atoms: C_2  and  C_17 
REMARK    3  A    between atoms: N_3  and  N_4 
REMARK       I    between atoms: N_4  and  C_5 
REMARK    4  A    between atoms: C_5  and  C_6 
REMARK    5  A    between atoms: C_6  and  N_7 
REMARK    6  A    between atoms: N_7  and  C_8 
REMARK    7  A    between atoms: C_9  and  O_10 
REMARK       I    between atoms: C_17  and  N_18 
REMARK    8  A    between atoms: N_18  and  C_19 
ROOT
HETATM    1  N   UNL     1       6.211  29.793  57.236  1.00  0.00    -0.225 NA
HETATM    2  H   UNL     1       6.206  28.997  57.890  1.00  0.00     0.147 HD
ENDROOT
BRANCH   1   3
HETATM    3  C   UNL     1       5.826  29.229  55.909  1.00  0.00     0.165 C 
HETATM    4  C   UNL     1       4.457  28.551  55.906  1.00  0.00     0.038 C 
BRANCH   3   5
HETATM    5  C   UNL     1       6.892  28.182  55.489  1.00  0.00     0.241 C 
HETATM    6  N   UNL     1       6.553  26.892  55.867  1.00  0.00    -0.326 N 
HETATM    7  H   UNL     1       5.685  26.837  56.393  1.00  0.00     0.169 HD
HETATM    8  O   UNL     1       7.893  28.511  54.860  1.00  0.00    -0.271 OA
BRANCH   6   9
HETATM    9  C   UNL     1       7.277  25.701  55.683  1.00  0.00     0.036 A 
HETATM   10  C   UNL     1       7.287  24.971  54.493  1.00  0.00     0.053 A 
HETATM   11  C   UNL     1       8.044  23.802  54.402  1.00  0.00     0.036 A 
HETATM   12 CL   UNL     1       8.047  22.895  52.937  1.00  0.00    -0.084 Cl
HETATM   13  C   UNL     1       8.800  23.352  55.483  1.00  0.00     0.024 A 
HETATM   14  C   UNL     1       8.792  24.074  56.673  1.00  0.00     0.004 A 
HETATM   15  C   UNL     1       8.029  25.240  56.772  1.00  0.00     0.029 A 
ENDBRANCH   6   9
ENDBRANCH   3   5
ENDBRANCH   1   3
BRANCH   1  16
HETATM   16  N   UNL     1       7.530  30.314  57.251  1.00  0.00    -0.290 N 
HETATM   17  C   UNL     1       8.456  29.812  58.163  1.00  0.00     0.245 C 
HETATM   18  O   UNL     1       8.305  28.762  58.784  1.00  0.00    -0.271 OA
HETATM   19  H   UNL     1       7.668  31.308  57.033  1.00  0.00     0.183 HD
BRANCH  17  20
HETATM   20  C   UNL     1       9.689  30.711  58.306  1.00  0.00     0.196 C 
BRANCH  20  21
HETATM   21  N   UNL     1       9.327  32.041  58.828  1.00  0.00    -0.282 NA
HETATM   22  H   UNL     1      10.103  32.708  58.796  1.00  0.00     0.128 HD
BRANCH  21  23
HETATM   23  C   UNL     1       8.727  32.143  60.105  1.00  0.00     0.042 A 
HETATM   24  C   UNL     1       7.330  32.371  60.176  1.00  0.00     0.089 A 
HETATM   25  C   UNL     1       6.676  32.384  61.413  1.00  0.00     0.038 A 
HETATM   26  C   UNL     1       7.392  32.148  62.587  1.00  0.00     0.003 A 
HETATM   27  C   UNL     1       8.758  31.894  62.528  1.00  0.00     0.002 A 
HETATM   28  C   UNL     1       9.417  31.881  61.297  1.00  0.00     0.026 A 
BRANCH  24  29
HETATM   29  O   UNL     1       6.715  32.598  58.964  1.00  0.00    -0.354 OA
HETATM   30  C   UNL     1       5.315  32.849  58.990  1.00  0.00     0.210 C 
ENDBRANCH  24  29
ENDBRANCH  21  23
ENDBRANCH  20  21
ENDBRANCH  17  20
ENDBRANCH   1  16
TORSDOF 8
ENDMDL
MODEL 9
REMARK VINA RESULT:      -8.6      3.495     10.270
REMARK  8 active torsions:
REMARK  status: ('A' for Active; 'I' for Inactive)
REMARK    1  A    between atoms: C_2  and  N_3 
REMARK    2  A    between atoms: C_2  and  C_17 
REMARK    3  A    between atoms: N_3  and  N_4 
REMARK       I    between atoms: N_4  and  C_5 
REMARK    4  A    between atoms: C_5  and  C_6 
REMARK    5  A    between atoms: C_6  and  N_7 
REMARK    6  A    between atoms: N_7  and  C_8 
REMARK    7  A    between atoms: C_9  and  O_10 
REMARK       I    between atoms: C_17  and  N_18 
REMARK    8  A    between atoms: N_18  and  C_19 
ROOT
HETATM    1  N   UNL     1       7.746  27.771  58.062  1.00  0.00    -0.225 NA
HETATM    2  H   UNL     1       8.714  27.717  57.713  1.00  0.00     0.147 HD
ENDROOT
BRANCH   1   3
HETATM    3  C   UNL     1       6.875  27.487  56.883  1.00  0.00     0.165 C 
HETATM    4  C   UNL     1       5.437  27.972  57.054  1.00  0.00     0.038 C 
BRANCH   3   5
HETATM    5  C   UNL     1       6.850  25.954  56.646  1.00  0.00     0.241 C 
HETATM    6  N   UNL     1       7.651  25.564  55.584  1.00  0.00    -0.326 N 
HETATM    7  H   UNL     1       8.095  26.343  55.103  1.00  0.00     0.169 HD
HETATM    8  O   UNL     1       6.201  25.208  57.372  1.00  0.00    -0.271 OA
BRANCH   6   9
HETATM    9  C   UNL     1       7.858  24.276  55.063  1.00  0.00     0.036 A 
HETATM   10  C   UNL     1       8.295  23.189  55.821  1.00  0.00     0.053 A 
HETATM   11  C   UNL     1       8.464  21.942  55.216  1.00  0.00     0.036 A 
HETATM   12 CL   UNL     1       9.014  20.603  56.151  1.00  0.00    -0.084 Cl
HETATM   13  C   UNL     1       8.197  21.762  53.860  1.00  0.00     0.024 A 
HETATM   14  C   UNL     1       7.763  22.843  53.097  1.00  0.00     0.004 A 
HETATM   15  C   UNL     1       7.601  24.095  53.696  1.00  0.00     0.029 A 
ENDBRANCH   6   9
ENDBRANCH   3   5
ENDBRANCH   1   3
BRANCH   1  16
HETATM   16  N   UNL     1       7.577  29.085  58.568  1.00  0.00    -0.290 N 
HETATM   17  C   UNL     1       8.662  29.958  58.590  1.00  0.00     0.245 C 
HETATM   18  O   UNL     1       9.699  29.775  57.956  1.00  0.00    -0.271 OA
HETATM   19  H   UNL     1       6.919  29.231  59.343  1.00  0.00     0.183 HD
BRANCH  17  20
HETATM   20  C   UNL     1       8.421  31.178  59.486  1.00  0.00     0.196 C 
BRANCH  20  21
HETATM   21  N   UNL     1       7.579  30.833  60.646  1.00  0.00    -0.282 NA
HETATM   22  H   UNL     1       6.657  30.477  60.379  1.00  0.00     0.128 HD
BRANCH  21  23
HETATM   23  C   UNL     1       7.388  31.790  61.670  1.00  0.00     0.042 A 
HETATM   24  C   UNL     1       6.192  32.551  61.665  1.00  0.00     0.089 A 
HETATM   25  C   UNL     1       5.915  33.442  62.708  1.00  0.00     0.038 A 
HETATM   26  C   UNL     1       6.803  33.570  63.775  1.00  0.00     0.003 A 
HETATM   27  C   UNL     1       7.966  32.808  63.807  1.00  0.00     0.002 A 
HETATM   28  C   UNL     1       8.250  31.918  62.768  1.00  0.00     0.026 A 
BRANCH  24  29
HETATM   29  O   UNL     1       5.384  32.357  60.566  1.00  0.00    -0.354 OA
HETATM   30  C   UNL     1       3.982  32.304  60.801  1.00  0.00     0.210 C 
ENDBRANCH  24  29
ENDBRANCH  21  23
ENDBRANCH  20  21
ENDBRANCH  17  20
ENDBRANCH   1  16
TORSDOF 8
ENDMDL
MODEL 10
REMARK VINA RESULT:      -8.4      6.575      9.843
REMARK  8 active torsions:
REMARK  status: ('A' for Active; 'I' for Inactive)
REMARK    1  A    between atoms: C_2  and  N_3 
REMARK    2  A    between atoms: C_2  and  C_17 
REMARK    3  A    between atoms: N_3  and  N_4 
REMARK       I    between atoms: N_4  and  C_5 
REMARK    4  A    between atoms: C_5  and  C_6 
REMARK    5  A    between atoms: C_6  and  N_7 
REMARK    6  A    between atoms: N_7  and  C_8 
REMARK    7  A    between atoms: C_9  and  O_10 
REMARK       I    between atoms: C_17  and  N_18 
REMARK    8  A    between atoms: N_18  and  C_19 
ROOT
HETATM    1  N   UNL     1       4.142  26.745  53.429  1.00  0.00    -0.225 NA
HETATM    2  H   UNL     1       3.208  26.939  53.818  1.00  0.00     0.147 HD
ENDROOT
BRANCH   1   3
HETATM    3  C   UNL     1       5.113  27.143  54.491  1.00  0.00     0.165 C 
HETATM    4  C   UNL     1       5.599  28.585  54.368  1.00  0.00     0.038 C 
BRANCH   3   5
HETATM    5  C   UNL     1       6.344  26.202  54.412  1.00  0.00     0.241 C 
HETATM    6  N   UNL     1       5.993  24.861  54.397  1.00  0.00    -0.326 N 
HETATM    7  H   UNL     1       4.992  24.702  54.480  1.00  0.00     0.169 HD
HETATM    8  O   UNL     1       7.485  26.651  54.337  1.00  0.00    -0.271 OA
BRANCH   6   9
HETATM    9  C   UNL     1       6.829  23.732  54.356  1.00  0.00     0.036 A 
HETATM   10  C   UNL     1       7.243  23.027  55.486  1.00  0.00     0.053 A 
HETATM   11  C   UNL     1       8.070  21.910  55.345  1.00  0.00     0.036 A 
HETATM   12 CL   UNL     1       8.588  21.046  56.743  1.00  0.00    -0.084 Cl
HETATM   13  C   UNL     1       8.486  21.482  54.086  1.00  0.00     0.024 A 
HETATM   14  C   UNL     1       8.079  22.183  52.954  1.00  0.00     0.004 A 
HETATM   15  C   UNL     1       7.260  23.307  53.091  1.00  0.00     0.029 A 
ENDBRANCH   6   9
ENDBRANCH   3   5
ENDBRANCH   1   3
BRANCH   1  16
HETATM   16  N   UNL     1       4.257  27.533  52.255  1.00  0.00    -0.290 N 
HETATM   17  C   UNL     1       4.971  27.041  51.165  1.00  0.00     0.245 C 
HETATM   18  O   UNL     1       5.289  25.861  51.031  1.00  0.00    -0.271 OA
HETATM   19  H   UNL     1       4.311  28.554  52.352  1.00  0.00     0.183 HD
BRANCH  17  20
HETATM   20  C   UNL     1       5.313  28.131  50.143  1.00  0.00     0.196 C 
BRANCH  20  21
HETATM   21  N   UNL     1       5.198  27.627  48.762  1.00  0.00    -0.282 NA
HETATM   22  H   UNL     1       5.974  27.923  48.163  1.00  0.00     0.128 HD
BRANCH  21  23
HETATM   23  C   UNL     1       3.997  27.841  48.046  1.00  0.00     0.042 A 
HETATM   24  C   UNL     1       3.143  26.734  47.819  1.00  0.00     0.089 A 
HETATM   25  C   UNL     1       1.900  26.913  47.200  1.00  0.00     0.038 A 
HETATM   26  C   UNL     1       1.483  28.189  46.821  1.00  0.00     0.003 A 
HETATM   27  C   UNL     1       2.300  29.287  47.065  1.00  0.00     0.002 A 
HETATM   28  C   UNL     1       3.541  29.116  47.682  1.00  0.00     0.026 A 
BRANCH  24  29
HETATM   29  O   UNL     1       3.647  25.517  48.223  1.00  0.00    -0.354 OA
HETATM   30  C   UNL     1       2.870  24.365  47.917  1.00  0.00     0.210 C 
ENDBRANCH  24  29
ENDBRANCH  21  23
ENDBRANCH  20  21
ENDBRANCH  17  20
ENDBRANCH   1  16
TORSDOF 8
ENDMDL
