MODEL 1
REMARK VINA RESULT:      -9.7      0.000      0.000
REMARK  4 active torsions:
REMARK  status: ('A' for Active; 'I' for Inactive)
REMARK    1  A    between atoms: C_5  and  C_6 
REMARK    2  A    between atoms: C_6  and  N_7 
REMARK    3  A    between atoms: C_13  and  C_14 
REMARK    4  A    between atoms: C_14  and  N_15 
ROOT
HETATM    1  N   UNL     1       8.006  25.330  56.321  1.00  0.00    -0.060 N 
HETATM    2  H   UNL     1       8.652  25.968  55.848  1.00  0.00     0.280 HD
HETATM    3  C   UNL     1       6.814  25.124  55.392  1.00  0.00     0.274 C 
HETATM    4  C   UNL     1       7.237  24.907  53.901  1.00  0.00     0.092 C 
HETATM    5  C   UNL     1       6.055  24.355  53.064  1.00  0.00     0.041 C 
HETATM    6  C   UNL     1       4.947  25.374  52.797  1.00  0.00     0.009 C 
HETATM    7  C   UNL     1       5.482  26.633  52.092  1.00  0.00     0.012 C 
HETATM    8  C   UNL     1       6.605  27.246  52.941  1.00  0.00     0.009 C 
HETATM    9  C   UNL     1       7.714  26.230  53.244  1.00  0.00     0.041 C 
HETATM   10  O   UNL     1       8.374  24.015  53.775  1.00  0.00    -0.338 OA
HETATM   11  C   UNL     1       8.250  22.846  54.474  1.00  0.00     0.077 A 
HETATM   12  C   UNL     1       8.451  22.838  55.856  1.00  0.00     0.001 A 
HETATM   13  C   UNL     1       8.859  24.089  56.571  1.00  0.00     0.276 C 
HETATM   14  C   UNL     1       7.989  21.670  53.775  1.00  0.00     0.037 A 
HETATM   15  C   UNL     1       7.866  20.470  54.472  1.00  0.00     0.003 A 
HETATM   16  C   UNL     1       8.029  20.447  55.856  1.00  0.00     0.001 A 
HETATM   17  C   UNL     1       8.332  21.623  56.546  1.00  0.00     0.012 A 
ENDROOT
BRANCH   1  18
HETATM   18  C   UNL     1       7.629  26.029  57.614  1.00  0.00     0.276 C 
BRANCH  18  19
HETATM   19  C   UNL     1       7.503  27.503  57.512  1.00  0.00     0.004 A 
HETATM   20  C   UNL     1       8.563  28.438  57.442  1.00  0.00     0.149 A 
HETATM   21  N   UNL     1       8.132  29.687  57.295  1.00  0.00    -0.185 NA
HETATM   22  N   UNL     1       6.795  29.586  57.357  1.00  0.00    -0.285 N 
HETATM   23  C   UNL     1       5.977  30.776  57.309  1.00  0.00     0.179 C 
HETATM   24  C   UNL     1       6.367  28.290  57.468  1.00  0.00     0.122 A 
ENDBRANCH  18  19
ENDBRANCH   1  18
BRANCH   7  25
HETATM   25  C   UNL     1       4.313  27.603  51.814  1.00  0.00     0.238 C 
BRANCH  25  26
HETATM   26  N   UNL     1       3.763  27.502  50.407  1.00  0.00    -0.078 N 
HETATM   27  H   UNL     1       2.949  26.876  50.404  1.00  0.00     0.278 HD
HETATM   28  C   UNL     1       3.309  28.821  49.831  1.00  0.00     0.269 C 
HETATM   29  C   UNL     1       4.772  26.853  49.482  1.00  0.00     0.269 C 
ENDBRANCH  25  26
ENDBRANCH   7  25
TORSDOF 4
ENDMDL
MODEL 2
REMARK VINA RESULT:      -9.2      1.722      5.977
REMARK  4 active torsions:
REMARK  status: ('A' for Active; 'I' for Inactive)
REMARK    1  A    between atoms: C_5  and  C_6 
REMARK    2  A    between atoms: C_6  and  N_7 
REMARK    3  A    between atoms: C_13  and  C_14 
REMARK    4  A    between atoms: C_14  and  N_15 
ROOT
HETATM    1  N   UNL     1       6.098  25.943  53.582  1.00  0.00    -0.060 N 
HETATM    2  H   UNL     1       5.207  26.145  54.043  1.00  0.00     0.280 HD
HETATM    3  C   UNL     1       7.208  26.399  54.523  1.00  0.00     0.274 C 
HETATM    4  C   UNL     1       6.945  25.996  56.012  1.00  0.00     0.092 C 
HETATM    5  C   UNL     1       8.229  26.152  56.864  1.00  0.00     0.041 C 
HETATM    6  C   UNL     1       8.630  27.603  57.133  1.00  0.00     0.009 C 
HETATM    7  C   UNL     1       7.503  28.392  57.822  1.00  0.00     0.012 C 
HETATM    8  C   UNL     1       6.236  28.318  56.957  1.00  0.00     0.009 C 
HETATM    9  C   UNL     1       5.834  26.869  56.653  1.00  0.00     0.041 C 
HETATM   10  O   UNL     1       6.448  24.638  56.135  1.00  0.00    -0.338 OA
HETATM   11  C   UNL     1       7.179  23.708  55.448  1.00  0.00     0.077 A 
HETATM   12  C   UNL     1       7.029  23.593  54.063  1.00  0.00     0.001 A 
HETATM   13  C   UNL     1       6.031  24.439  53.335  1.00  0.00     0.276 C 
HETATM   14  C   UNL     1       8.012  22.849  56.159  1.00  0.00     0.037 A 
HETATM   15  C   UNL     1       8.759  21.893  55.473  1.00  0.00     0.003 A 
HETATM   16  C   UNL     1       8.649  21.785  54.088  1.00  0.00     0.001 A 
HETATM   17  C   UNL     1       7.780  22.622  53.385  1.00  0.00     0.012 A 
ENDROOT
BRANCH   1  18
HETATM   18  C   UNL     1       6.065  26.733  52.286  1.00  0.00     0.276 C 
BRANCH  18  19
HETATM   19  C   UNL     1       4.858  27.573  52.099  1.00  0.00     0.004 A 
HETATM   20  C   UNL     1       3.957  27.993  53.106  1.00  0.00     0.149 A 
HETATM   21  N   UNL     1       3.003  28.790  52.637  1.00  0.00    -0.185 NA
HETATM   22  N   UNL     1       3.221  28.825  51.313  1.00  0.00    -0.285 N 
HETATM   23  C   UNL     1       2.316  29.549  50.450  1.00  0.00     0.179 C 
HETATM   24  C   UNL     1       4.337  28.124  50.942  1.00  0.00     0.122 A 
ENDBRANCH  18  19
ENDBRANCH   1  18
BRANCH   7  25
HETATM   25  C   UNL     1       7.981  29.834  58.102  1.00  0.00     0.238 C 
BRANCH  25  26
HETATM   26  N   UNL     1       7.602  30.341  59.477  1.00  0.00    -0.078 N 
HETATM   27  H   UNL     1       6.966  29.671  59.924  1.00  0.00     0.278 HD
HETATM   28  C   UNL     1       8.776  30.525  60.408  1.00  0.00     0.269 C 
HETATM   29  C   UNL     1       6.817  31.633  59.374  1.00  0.00     0.269 C 
ENDBRANCH  25  26
ENDBRANCH   7  25
TORSDOF 4
ENDMDL
MODEL 3
REMARK VINA RESULT:      -9.1      1.888      5.922
REMARK  4 active torsions:
REMARK  status: ('A' for Active; 'I' for Inactive)
REMARK    1  A    between atoms: C_5  and  C_6 
REMARK    2  A    between atoms: C_6  and  N_7 
REMARK    3  A    between atoms: C_13  and  C_14 
REMARK    4  A    between atoms: C_14  and  N_15 
ROOT
HETATM    1  N   UNL     1       6.839  27.779  54.135  1.00  0.00    -0.060 N 
HETATM    2  H   UNL     1       6.310  27.460  54.951  1.00  0.00     0.280 HD
HETATM    3  C   UNL     1       7.505  26.551  53.521  1.00  0.00     0.274 C 
HETATM    4  C   UNL     1       6.550  25.315  53.448  1.00  0.00     0.092 C 
HETATM    5  C   UNL     1       7.129  24.221  52.515  1.00  0.00     0.041 C 
HETATM    6  C   UNL     1       8.341  23.486  53.087  1.00  0.00     0.009 C 
HETATM    7  C   UNL     1       8.029  22.835  54.446  1.00  0.00     0.012 C 
HETATM    8  C   UNL     1       7.526  23.913  55.417  1.00  0.00     0.009 C 
HETATM    9  C   UNL     1       6.326  24.681  54.847  1.00  0.00     0.041 C 
HETATM   10  O   UNL     1       5.217  25.674  53.000  1.00  0.00    -0.338 OA
HETATM   11  C   UNL     1       5.193  26.439  51.867  1.00  0.00     0.077 A 
HETATM   12  C   UNL     1       5.489  27.802  51.943  1.00  0.00     0.001 A 
HETATM   13  C   UNL     1       5.775  28.444  53.265  1.00  0.00     0.276 C 
HETATM   14  C   UNL     1       4.807  25.849  50.667  1.00  0.00     0.037 A 
HETATM   15  C   UNL     1       4.772  26.617  49.504  1.00  0.00     0.003 A 
HETATM   16  C   UNL     1       5.097  27.971  49.553  1.00  0.00     0.001 A 
HETATM   17  C   UNL     1       5.443  28.566  50.768  1.00  0.00     0.012 A 
ENDROOT
BRANCH   1  18
HETATM   18  C   UNL     1       7.840  28.783  54.674  1.00  0.00     0.276 C 
BRANCH  18  19
HETATM   19  C   UNL     1       7.929  28.841  56.153  1.00  0.00     0.004 A 
HETATM   20  C   UNL     1       7.709  27.773  57.055  1.00  0.00     0.149 A 
HETATM   21  N   UNL     1       7.922  28.122  58.319  1.00  0.00    -0.185 NA
HETATM   22  N   UNL     1       8.195  29.435  58.261  1.00  0.00    -0.285 N 
HETATM   23  C   UNL     1       8.410  30.184  59.477  1.00  0.00     0.179 C 
HETATM   24  C   UNL     1       8.229  29.910  56.977  1.00  0.00     0.122 A 
ENDBRANCH  18  19
ENDBRANCH   1  18
BRANCH   7  25
HETATM   25  C   UNL     1       9.276  22.077  54.951  1.00  0.00     0.238 C 
BRANCH  25  26
HETATM   26  N   UNL     1       9.058  20.587  55.105  1.00  0.00    -0.078 N 
HETATM   27  H   UNL     1       9.936  20.142  55.397  1.00  0.00     0.278 HD
HETATM   28  C   UNL     1       8.015  20.224  56.134  1.00  0.00     0.269 C 
HETATM   29  C   UNL     1       8.711  19.954  53.773  1.00  0.00     0.269 C 
ENDBRANCH  25  26
ENDBRANCH   7  25
TORSDOF 4
ENDMDL
MODEL 4
REMARK VINA RESULT:      -8.6      1.697      6.376
REMARK  4 active torsions:
REMARK  status: ('A' for Active; 'I' for Inactive)
REMARK    1  A    between atoms: C_5  and  C_6 
REMARK    2  A    between atoms: C_6  and  N_7 
REMARK    3  A    between atoms: C_13  and  C_14 
REMARK    4  A    between atoms: C_14  and  N_15 
ROOT
HETATM    1  N   UNL     1       5.967  26.783  53.007  1.00  0.00    -0.060 N 
HETATM    2  H   UNL     1       5.046  27.044  53.371  1.00  0.00     0.280 HD
HETATM    3  C   UNL     1       6.983  27.066  54.110  1.00  0.00     0.274 C 
HETATM    4  C   UNL     1       6.495  26.598  55.520  1.00  0.00     0.092 C 
HETATM    5  C   UNL     1       7.668  26.572  56.533  1.00  0.00     0.041 C 
HETATM    6  C   UNL     1       8.161  27.956  56.956  1.00  0.00     0.009 C 
HETATM    7  C   UNL     1       7.031  28.808  57.560  1.00  0.00     0.012 C 
HETATM    8  C   UNL     1       5.885  28.916  56.543  1.00  0.00     0.009 C 
HETATM    9  C   UNL     1       5.395  27.537  56.084  1.00  0.00     0.041 C 
HETATM   10  O   UNL     1       5.865  25.292  55.479  1.00  0.00    -0.338 OA
HETATM   11  C   UNL     1       6.590  24.339  54.819  1.00  0.00     0.077 A 
HETATM   12  C   UNL     1       6.610  24.326  53.422  1.00  0.00     0.001 A 
HETATM   13  C   UNL     1       5.796  25.311  52.642  1.00  0.00     0.276 C 
HETATM   14  C   UNL     1       7.242  23.358  55.561  1.00  0.00     0.037 A 
HETATM   15  C   UNL     1       7.981  22.377  54.902  1.00  0.00     0.003 A 
HETATM   16  C   UNL     1       8.041  22.367  53.510  1.00  0.00     0.001 A 
HETATM   17  C   UNL     1       7.351  23.329  52.771  1.00  0.00     0.012 A 
ENDROOT
BRANCH   1  18
HETATM   18  C   UNL     1       6.175  27.652  51.780  1.00  0.00     0.276 C 
BRANCH  18  19
HETATM   19  C   UNL     1       4.982  27.796  50.911  1.00  0.00     0.004 A 
HETATM   20  C   UNL     1       4.737  27.119  49.693  1.00  0.00     0.149 A 
HETATM   21  N   UNL     1       3.550  27.415  49.175  1.00  0.00    -0.185 NA
HETATM   22  N   UNL     1       3.051  28.350  49.999  1.00  0.00    -0.285 N 
HETATM   23  C   UNL     1       1.782  28.973  49.703  1.00  0.00     0.179 C 
HETATM   24  C   UNL     1       3.867  28.600  51.070  1.00  0.00     0.122 A 
ENDBRANCH  18  19
ENDBRANCH   1  18
BRANCH   7  25
HETATM   25  C   UNL     1       7.599  30.174  58.003  1.00  0.00     0.238 C 
BRANCH  25  26
HETATM   26  N   UNL     1       6.911  30.749  59.223  1.00  0.00    -0.078 N 
HETATM   27  H   UNL     1       6.379  30.008  59.695  1.00  0.00     0.278 HD
HETATM   28  C   UNL     1       7.858  31.333  60.243  1.00  0.00     0.269 C 
HETATM   29  C   UNL     1       5.883  31.787  58.820  1.00  0.00     0.269 C 
ENDBRANCH  25  26
ENDBRANCH   7  25
TORSDOF 4
ENDMDL
MODEL 5
REMARK VINA RESULT:      -8.4      1.985      6.410
REMARK  4 active torsions:
REMARK  status: ('A' for Active; 'I' for Inactive)
REMARK    1  A    between atoms: C_5  and  C_6 
REMARK    2  A    between atoms: C_6  and  N_7 
REMARK    3  A    between atoms: C_13  and  C_14 
REMARK    4  A    between atoms: C_14  and  N_15 
ROOT
HETATM    1  N   UNL     1       4.568  28.170  52.947  1.00  0.00    -0.060 N 
HETATM    2  H   UNL     1       3.914  27.521  53.393  1.00  0.00     0.280 HD
HETATM    3  C   UNL     1       5.827  27.379  52.606  1.00  0.00     0.274 C 
HETATM    4  C   UNL     1       5.514  25.976  51.990  1.00  0.00     0.092 C 
HETATM    5  C   UNL     1       6.779  25.362  51.339  1.00  0.00     0.041 C 
HETATM    6  C   UNL     1       7.835  24.894  52.340  1.00  0.00     0.009 C 
HETATM    7  C   UNL     1       7.268  23.868  53.336  1.00  0.00     0.012 C 
HETATM    8  C   UNL     1       6.056  24.481  54.055  1.00  0.00     0.009 C 
HETATM    9  C   UNL     1       4.997  24.982  53.065  1.00  0.00     0.041 C 
HETATM   10  O   UNL     1       4.446  26.030  51.009  1.00  0.00    -0.338 OA
HETATM   11  C   UNL     1       4.599  27.008  50.066  1.00  0.00     0.077 A 
HETATM   12  C   UNL     1       4.312  28.337  50.391  1.00  0.00     0.001 A 
HETATM   13  C   UNL     1       3.781  28.689  51.746  1.00  0.00     0.276 C 
HETATM   14  C   UNL     1       4.977  26.645  48.777  1.00  0.00     0.037 A 
HETATM   15  C   UNL     1       5.132  27.630  47.803  1.00  0.00     0.003 A 
HETATM   16  C   UNL     1       4.883  28.965  48.116  1.00  0.00     0.001 A 
HETATM   17  C   UNL     1       4.464  29.318  49.400  1.00  0.00     0.012 A 
ENDROOT
BRANCH   1  18
HETATM   18  C   UNL     1       4.817  29.258  53.975  1.00  0.00     0.276 C 
BRANCH  18  19
HETATM   19  C   UNL     1       5.426  28.789  55.242  1.00  0.00     0.004 A 
HETATM   20  C   UNL     1       4.917  27.789  56.104  1.00  0.00     0.149 A 
HETATM   21  N   UNL     1       5.721  27.547  57.135  1.00  0.00    -0.185 NA
HETATM   22  N   UNL     1       6.710  28.444  57.003  1.00  0.00    -0.285 N 
HETATM   23  C   UNL     1       7.748  28.530  58.004  1.00  0.00     0.179 C 
HETATM   24  C   UNL     1       6.588  29.202  55.869  1.00  0.00     0.122 A 
ENDBRANCH  18  19
ENDBRANCH   1  18
BRANCH   7  25
HETATM   25  C   UNL     1       8.389  23.405  54.293  1.00  0.00     0.238 C 
BRANCH  25  26
HETATM   26  N   UNL     1       8.500  21.900  54.413  1.00  0.00    -0.078 N 
HETATM   27  H   UNL     1       9.491  21.633  54.447  1.00  0.00     0.278 HD
HETATM   28  C   UNL     1       7.846  21.335  55.651  1.00  0.00     0.269 C 
HETATM   29  C   UNL     1       7.943  21.221  53.179  1.00  0.00     0.269 C 
ENDBRANCH  25  26
ENDBRANCH   7  25
TORSDOF 4
ENDMDL
MODEL 6
REMARK VINA RESULT:      -8.3      2.298      6.142
REMARK  4 active torsions:
REMARK  status: ('A' for Active; 'I' for Inactive)
REMARK    1  A    between atoms: C_5  and  C_6 
REMARK    2  A    between atoms: C_6  and  N_7 
REMARK    3  A    between atoms: C_13  and  C_14 
REMARK    4  A    between atoms: C_14  and  N_15 
ROOT
HETATM    1  N   UNL     1       5.948  28.060  54.326  1.00  0.00    -0.060 N 
HETATM    2  H   UNL     1       5.285  27.498  54.867  1.00  0.00     0.280 HD
HETATM    3  C   UNL     1       6.901  27.091  53.634  1.00  0.00     0.274 C 
HETATM    4  C   UNL     1       6.166  25.860  53.008  1.00  0.00     0.092 C 
HETATM    5  C   UNL     1       7.094  25.100  52.026  1.00  0.00     0.041 C 
HETATM    6  C   UNL     1       8.220  24.319  52.706  1.00  0.00     0.009 C 
HETATM    7  C   UNL     1       7.678  23.305  53.729  1.00  0.00     0.012 C 
HETATM    8  C   UNL     1       6.816  24.046  54.762  1.00  0.00     0.009 C 
HETATM    9  C   UNL     1       5.698  24.858  54.097  1.00  0.00     0.041 C 
HETATM   10  O   UNL     1       4.945  26.238  52.320  1.00  0.00    -0.338 OA
HETATM   11  C   UNL     1       5.094  27.277  51.445  1.00  0.00     0.077 A 
HETATM   12  C   UNL     1       5.177  28.586  51.928  1.00  0.00     0.001 A 
HETATM   13  C   UNL     1       5.047  28.864  53.393  1.00  0.00     0.276 C 
HETATM   14  C   UNL     1       5.092  27.010  50.079  1.00  0.00     0.037 A 
HETATM   15  C   UNL     1       5.236  28.060  49.173  1.00  0.00     0.003 A 
HETATM   16  C   UNL     1       5.355  29.369  49.636  1.00  0.00     0.001 A 
HETATM   17  C   UNL     1       5.314  29.635  51.006  1.00  0.00     0.012 A 
ENDROOT
BRANCH   1  18
HETATM   18  C   UNL     1       6.645  28.945  55.343  1.00  0.00     0.276 C 
BRANCH  18  19
HETATM   19  C   UNL     1       5.738  29.760  56.185  1.00  0.00     0.004 A 
HETATM   20  C   UNL     1       4.946  29.299  57.264  1.00  0.00     0.149 A 
HETATM   21  N   UNL     1       4.282  30.281  57.865  1.00  0.00    -0.185 NA
HETATM   22  N   UNL     1       4.564  31.370  57.132  1.00  0.00    -0.285 N 
HETATM   23  C   UNL     1       3.945  32.636  57.450  1.00  0.00     0.179 C 
HETATM   24  C   UNL     1       5.451  31.111  56.122  1.00  0.00     0.122 A 
ENDBRANCH  18  19
ENDBRANCH   1  18
BRANCH   7  25
HETATM   25  C   UNL     1       8.856  22.523  54.350  1.00  0.00     0.238 C 
BRANCH  25  26
HETATM   26  N   UNL     1       8.726  21.021  54.211  1.00  0.00    -0.078 N 
HETATM   27  H   UNL     1       9.640  20.620  53.971  1.00  0.00     0.278 HD
HETATM   28  C   UNL     1       8.255  20.329  55.467  1.00  0.00     0.269 C 
HETATM   29  C   UNL     1       7.815  20.666  53.054  1.00  0.00     0.269 C 
ENDBRANCH  25  26
ENDBRANCH   7  25
TORSDOF 4
ENDMDL
MODEL 7
REMARK VINA RESULT:      -8.1      1.705      2.406
REMARK  4 active torsions:
REMARK  status: ('A' for Active; 'I' for Inactive)
REMARK    1  A    between atoms: C_5  and  C_6 
REMARK    2  A    between atoms: C_6  and  N_7 
REMARK    3  A    between atoms: C_13  and  C_14 
REMARK    4  A    between atoms: C_14  and  N_15 
ROOT
HETATM    1  N   UNL     1       6.090  26.590  55.320  1.00  0.00    -0.060 N 
HETATM    2  H   UNL     1       6.624  27.447  55.153  1.00  0.00     0.280 HD
HETATM    3  C   UNL     1       5.407  26.221  54.007  1.00  0.00     0.274 C 
HETATM    4  C   UNL     1       6.349  26.373  52.768  1.00  0.00     0.092 C 
HETATM    5  C   UNL     1       5.752  25.664  51.526  1.00  0.00     0.041 C 
HETATM    6  C   UNL     1       4.539  26.373  50.924  1.00  0.00     0.009 C 
HETATM    7  C   UNL     1       4.858  27.827  50.534  1.00  0.00     0.012 C 
HETATM    8  C   UNL     1       5.380  28.575  51.769  1.00  0.00     0.009 C 
HETATM    9  C   UNL     1       6.581  27.864  52.405  1.00  0.00     0.041 C 
HETATM   10  O   UNL     1       7.681  25.855  53.023  1.00  0.00    -0.338 OA
HETATM   11  C   UNL     1       7.702  24.599  53.563  1.00  0.00     0.077 A 
HETATM   12  C   UNL     1       7.419  24.422  54.920  1.00  0.00     0.001 A 
HETATM   13  C   UNL     1       7.151  25.604  55.800  1.00  0.00     0.276 C 
HETATM   14  C   UNL     1       8.071  23.527  52.756  1.00  0.00     0.037 A 
HETATM   15  C   UNL     1       8.102  22.241  53.293  1.00  0.00     0.003 A 
HETATM   16  C   UNL     1       7.790  22.039  54.636  1.00  0.00     0.001 A 
HETATM   17  C   UNL     1       7.461  23.125  55.451  1.00  0.00     0.012 A 
ENDROOT
BRANCH   1  18
HETATM   18  C   UNL     1       5.103  26.940  56.418  1.00  0.00     0.276 C 
BRANCH  18  19
HETATM   19  C   UNL     1       5.030  28.382  56.753  1.00  0.00     0.004 A 
HETATM   20  C   UNL     1       4.021  29.292  56.356  1.00  0.00     0.149 A 
HETATM   21  N   UNL     1       4.201  30.506  56.865  1.00  0.00    -0.185 NA
HETATM   22  N   UNL     1       5.369  30.423  57.521  1.00  0.00    -0.285 N 
HETATM   23  C   UNL     1       5.932  31.596  58.148  1.00  0.00     0.179 C 
HETATM   24  C   UNL     1       5.898  29.160  57.498  1.00  0.00     0.122 A 
ENDBRANCH  18  19
ENDBRANCH   1  18
BRANCH   7  25
HETATM   25  C   UNL     1       3.609  28.474  49.897  1.00  0.00     0.238 C 
BRANCH  25  26
HETATM   26  N   UNL     1       3.800  28.858  48.445  1.00  0.00    -0.078 N 
HETATM   27  H   UNL     1       2.973  29.370  48.116  1.00  0.00     0.278 HD
HETATM   28  C   UNL     1       4.996  29.746  48.199  1.00  0.00     0.269 C 
HETATM   29  C   UNL     1       3.884  27.624  47.570  1.00  0.00     0.269 C 
ENDBRANCH  25  26
ENDBRANCH   7  25
TORSDOF 4
ENDMDL
MODEL 8
REMARK VINA RESULT:      -8.0      1.921      5.741
REMARK  4 active torsions:
REMARK  status: ('A' for Active; 'I' for Inactive)
REMARK    1  A    between atoms: C_5  and  C_6 
REMARK    2  A    between atoms: C_6  and  N_7 
REMARK    3  A    between atoms: C_13  and  C_14 
REMARK    4  A    between atoms: C_14  and  N_15 
ROOT
HETATM    1  N   UNL     1       7.437  25.464  55.978  1.00  0.00    -0.060 N 
HETATM    2  H   UNL     1       6.640  24.822  55.984  1.00  0.00     0.280 HD
HETATM    3  C   UNL     1       7.244  26.412  54.798  1.00  0.00     0.274 C 
HETATM    4  C   UNL     1       5.774  26.928  54.668  1.00  0.00     0.092 C 
HETATM    5  C   UNL     1       5.694  28.138  53.703  1.00  0.00     0.041 C 
HETATM    6  C   UNL     1       5.896  27.780  52.231  1.00  0.00     0.009 C 
HETATM    7  C   UNL     1       4.884  26.723  51.753  1.00  0.00     0.012 C 
HETATM    8  C   UNL     1       4.997  25.479  52.646  1.00  0.00     0.009 C 
HETATM    9  C   UNL     1       4.825  25.823  54.131  1.00  0.00     0.041 C 
HETATM   10  O   UNL     1       5.204  27.297  55.951  1.00  0.00    -0.338 OA
HETATM   11  C   UNL     1       5.997  28.119  56.702  1.00  0.00     0.077 A 
HETATM   12  C   UNL     1       7.093  27.590  57.388  1.00  0.00     0.001 A 
HETATM   13  C   UNL     1       7.370  26.119  57.355  1.00  0.00     0.276 C 
HETATM   14  C   UNL     1       5.652  29.463  56.817  1.00  0.00     0.037 A 
HETATM   15  C   UNL     1       6.448  30.313  57.584  1.00  0.00     0.003 A 
HETATM   16  C   UNL     1       7.564  29.810  58.249  1.00  0.00     0.001 A 
HETATM   17  C   UNL     1       7.881  28.453  58.163  1.00  0.00     0.012 A 
ENDROOT
BRANCH   1  18
HETATM   18  C   UNL     1       8.662  24.581  55.828  1.00  0.00     0.276 C 
BRANCH  18  19
HETATM   19  C   UNL     1       8.512  23.467  54.862  1.00  0.00     0.004 A 
HETATM   20  C   UNL     1       7.947  23.543  53.567  1.00  0.00     0.149 A 
HETATM   21  N   UNL     1       8.008  22.386  52.915  1.00  0.00    -0.185 NA
HETATM   22  N   UNL     1       8.530  21.529  53.807  1.00  0.00    -0.285 N 
HETATM   23  C   UNL     1       8.676  20.132  53.469  1.00  0.00     0.179 C 
HETATM   24  C   UNL     1       8.867  22.136  54.987  1.00  0.00     0.122 A 
ENDBRANCH  18  19
ENDBRANCH   1  18
BRANCH   7  25
HETATM   25  C   UNL     1       5.113  26.435  50.253  1.00  0.00     0.238 C 
BRANCH  25  26
HETATM   26  N   UNL     1       3.882  26.655  49.399  1.00  0.00    -0.078 N 
HETATM   27  H   UNL     1       3.130  26.034  49.720  1.00  0.00     0.278 HD
HETATM   28  C   UNL     1       3.345  28.064  49.451  1.00  0.00     0.269 C 
HETATM   29  C   UNL     1       4.148  26.256  47.962  1.00  0.00     0.269 C 
ENDBRANCH  25  26
ENDBRANCH   7  25
TORSDOF 4
ENDMDL
MODEL 9
REMARK VINA RESULT:      -8.0      2.801      7.778
REMARK  4 active torsions:
REMARK  status: ('A' for Active; 'I' for Inactive)
REMARK    1  A    between atoms: C_5  and  C_6 
REMARK    2  A    between atoms: C_6  and  N_7 
REMARK    3  A    between atoms: C_13  and  C_14 
REMARK    4  A    between atoms: C_14  and  N_15 
ROOT
HETATM    1  N   UNL     1       5.532  26.899  51.008  1.00  0.00    -0.060 N 
HETATM    2  H   UNL     1       6.467  26.848  50.595  1.00  0.00     0.280 HD
HETATM    3  C   UNL     1       5.514  25.953  52.205  1.00  0.00     0.274 C 
HETATM    4  C   UNL     1       6.805  26.057  53.081  1.00  0.00     0.092 C 
HETATM    5  C   UNL     1       6.603  25.363  54.451  1.00  0.00     0.041 C 
HETATM    6  C   UNL     1       6.551  23.837  54.379  1.00  0.00     0.009 C 
HETATM    7  C   UNL     1       7.817  23.249  53.730  1.00  0.00     0.012 C 
HETATM    8  C   UNL     1       7.999  23.864  52.335  1.00  0.00     0.009 C 
HETATM    9  C   UNL     1       8.025  25.397  52.384  1.00  0.00     0.041 C 
HETATM   10  O   UNL     1       7.216  27.433  53.294  1.00  0.00    -0.338 OA
HETATM   11  C   UNL     1       6.212  28.260  53.716  1.00  0.00     0.077 A 
HETATM   12  C   UNL     1       5.268  28.728  52.800  1.00  0.00     0.001 A 
HETATM   13  C   UNL     1       5.380  28.379  51.348  1.00  0.00     0.276 C 
HETATM   14  C   UNL     1       6.194  28.670  55.046  1.00  0.00     0.037 A 
HETATM   15  C   UNL     1       5.181  29.517  55.491  1.00  0.00     0.003 A 
HETATM   16  C   UNL     1       4.209  29.968  54.599  1.00  0.00     0.001 A 
HETATM   17  C   UNL     1       4.256  29.586  53.257  1.00  0.00     0.012 A 
ENDROOT
BRANCH   1  18
HETATM   18  C   UNL     1       4.583  26.470  49.905  1.00  0.00     0.276 C 
BRANCH  18  19
HETATM   19  C   UNL     1       4.353  27.488  48.851  1.00  0.00     0.004 A 
HETATM   20  C   UNL     1       5.309  27.987  47.936  1.00  0.00     0.149 A 
HETATM   21  N   UNL     1       4.786  28.848  47.070  1.00  0.00    -0.185 NA
HETATM   22  N   UNL     1       3.511  28.985  47.467  1.00  0.00    -0.285 N 
HETATM   23  C   UNL     1       2.640  29.920  46.793  1.00  0.00     0.179 C 
HETATM   24  C   UNL     1       3.197  28.173  48.524  1.00  0.00     0.122 A 
ENDBRANCH  18  19
ENDBRANCH   1  18
BRANCH   7  25
HETATM   25  C   UNL     1       7.722  21.708  53.723  1.00  0.00     0.238 C 
BRANCH  25  26
HETATM   26  N   UNL     1       8.580  21.043  54.778  1.00  0.00    -0.078 N 
HETATM   27  H   UNL     1       9.064  20.236  54.366  1.00  0.00     0.278 HD
HETATM   28  C   UNL     1       9.642  21.944  55.361  1.00  0.00     0.269 C 
HETATM   29  C   UNL     1       7.721  20.473  55.887  1.00  0.00     0.269 C 
ENDBRANCH  25  26
ENDBRANCH   7  25
TORSDOF 4
ENDMDL
MODEL 10
REMARK VINA RESULT:      -8.0     10.016     14.172
REMARK  4 active torsions:
REMARK  status: ('A' for Active; 'I' for Inactive)
REMARK    1  A    between atoms: C_5  and  C_6 
REMARK    2  A    between atoms: C_6  and  N_7 
REMARK    3  A    between atoms: C_13  and  C_14 
REMARK    4  A    between atoms: C_14  and  N_15 
ROOT
HETATM    1  N   UNL     1       5.220  34.578  62.039  1.00  0.00    -0.060 N 
HETATM    2  H   UNL     1       4.318  34.206  62.348  1.00  0.00     0.280 HD
HETATM    3  C   UNL     1       6.128  34.634  63.264  1.00  0.00     0.274 C 
HETATM    4  C   UNL     1       6.031  33.350  64.151  1.00  0.00     0.092 C 
HETATM    5  C   UNL     1       7.201  33.285  65.164  1.00  0.00     0.041 C 
HETATM    6  C   UNL     1       7.103  34.304  66.300  1.00  0.00     0.009 C 
HETATM    7  C   UNL     1       5.787  34.163  67.085  1.00  0.00     0.012 C 
HETATM    8  C   UNL     1       4.605  34.301  66.114  1.00  0.00     0.009 C 
HETATM    9  C   UNL     1       4.701  33.306  64.950  1.00  0.00     0.041 C 
HETATM   10  O   UNL     1       6.013  32.133  63.359  1.00  0.00    -0.338 OA
HETATM   11  C   UNL     1       7.001  32.062  62.417  1.00  0.00     0.077 A 
HETATM   12  C   UNL     1       6.882  32.787  61.229  1.00  0.00     0.001 A 
HETATM   13  C   UNL     1       5.652  33.596  60.954  1.00  0.00     0.276 C 
HETATM   14  C   UNL     1       8.080  31.210  62.639  1.00  0.00     0.037 A 
HETATM   15  C   UNL     1       9.093  31.122  61.685  1.00  0.00     0.003 A 
HETATM   16  C   UNL     1       9.009  31.864  60.509  1.00  0.00     0.001 A 
HETATM   17  C   UNL     1       7.904  32.685  60.274  1.00  0.00     0.012 A 
ENDROOT
BRANCH   1  18
HETATM   18  C   UNL     1       4.913  35.952  61.472  1.00  0.00     0.276 C 
BRANCH  18  19
HETATM   19  C   UNL     1       5.403  37.087  62.290  1.00  0.00     0.004 A 
HETATM   20  C   UNL     1       4.935  37.469  63.570  1.00  0.00     0.149 A 
HETATM   21  N   UNL     1       5.614  38.493  64.076  1.00  0.00    -0.185 NA
HETATM   22  N   UNL     1       6.465  38.843  63.099  1.00  0.00    -0.285 N 
HETATM   23  C   UNL     1       7.327  39.990  63.267  1.00  0.00     0.179 C 
HETATM   24  C   UNL     1       6.390  38.015  62.011  1.00  0.00     0.122 A 
ENDBRANCH  18  19
ENDBRANCH   1  18
BRANCH   7  25
HETATM   25  C   UNL     1       5.765  35.188  68.240  1.00  0.00     0.238 C 
BRANCH  25  26
HETATM   26  N   UNL     1       6.760  34.883  69.340  1.00  0.00    -0.078 N 
HETATM   27  H   UNL     1       7.408  34.154  69.020  1.00  0.00     0.278 HD
HETATM   28  C   UNL     1       7.597  36.068  69.755  1.00  0.00     0.269 C 
HETATM   29  C   UNL     1       6.060  34.296  70.548  1.00  0.00     0.269 C 
ENDBRANCH  25  26
ENDBRANCH   7  25
TORSDOF 4
ENDMDL
