MODEL 1
REMARK VINA RESULT:     -10.6      0.000      0.000
REMARK  6 active torsions:
REMARK  status: ('A' for Active; 'I' for Inactive)
REMARK    1  A    between atoms: O_2  and  C_3 
REMARK    2  A    between atoms: C_6  and  C_7 
REMARK    3  A    between atoms: C_11  and  C_12 
REMARK       I    between atoms: C_12  and  N_13 
REMARK    4  A    between atoms: N_13  and  N_14 
REMARK       I    between atoms: N_14  and  C_15 
REMARK    5  A    between atoms: C_15  and  C_16 
REMARK    6  A    between atoms: C_17  and  C_18 
ROOT
HETATM    1  C   UNL     1       9.129  29.412  57.441  1.00  0.00     0.288 C 
HETATM    2  N   UNL     1       8.001  28.691  57.109  1.00  0.00    -0.262 N 
HETATM    3  O   UNL     1      10.216  29.200  56.906  1.00  0.00    -0.264 OA
HETATM    4  H   UNL     1       7.085  28.839  57.523  1.00  0.00     0.190 HD
ENDROOT
BRANCH   1   5
HETATM    5  C   UNL     1       8.947  30.416  58.450  1.00  0.00     0.121 A 
HETATM    6  N   UNL     1       9.697  31.558  58.468  1.00  0.00    -0.272 N 
HETATM    7  N   UNL     1       9.427  32.379  59.492  1.00  0.00    -0.174 NA
HETATM    8  H   UNL     1      10.421  31.821  57.806  1.00  0.00     0.189 HD
HETATM    9  C   UNL     1       8.447  31.764  60.174  1.00  0.00     0.089 A 
HETATM   10  C   UNL     1       8.113  30.530  59.546  1.00  0.00     0.071 A 
BRANCH   9  11
HETATM   11  C   UNL     1       7.877  32.343  61.395  1.00  0.00    -0.005 A 
HETATM   12  C   UNL     1       8.498  32.175  62.639  1.00  0.00     0.016 A 
HETATM   13  C   UNL     1       7.953  32.757  63.789  1.00  0.00     0.037 A 
HETATM   14  C   UNL     1       6.786  33.519  63.721  1.00  0.00     0.068 A 
HETATM   15  C   UNL     1       6.152  33.679  62.491  1.00  0.00     0.037 A 
HETATM   16  C   UNL     1       6.694  33.094  61.339  1.00  0.00     0.016 A 
BRANCH  14  17
HETATM   17  O   UNL     1       6.371  34.041  64.914  1.00  0.00    -0.356 OA
HETATM   18  C   UNL     1       5.031  33.763  65.302  1.00  0.00     0.210 C 
ENDBRANCH  14  17
ENDBRANCH   9  11
ENDBRANCH   1   5
BRANCH   2  19
HETATM   19  N   UNL     1       8.101  27.679  56.151  1.00  0.00    -0.267 N 
HETATM   20  C   UNL     1       7.213  27.679  55.101  1.00  0.00     0.240 C 
HETATM   21  O   UNL     1       6.359  28.545  54.933  1.00  0.00    -0.271 OA
HETATM   22  H   UNL     1       8.759  26.926  56.338  1.00  0.00     0.190 HD
BRANCH  20  23
HETATM   23  C   UNL     1       7.350  26.520  54.181  1.00  0.00     0.089 A 
HETATM   24  C   UNL     1       6.752  25.183  54.593  1.00  0.00     0.034 A 
HETATM   25  C   UNL     1       6.162  25.968  53.444  1.00  0.00     0.025 A 
BRANCH  24  26
HETATM   26  C   UNL     1       7.553  23.916  54.361  1.00  0.00    -0.031 A 
HETATM   27  C   UNL     1       8.503  23.438  55.287  1.00  0.00     0.040 A 
HETATM   28 CL   UNL     1       8.819  24.294  56.759  1.00  0.00    -0.084 Cl
HETATM   29  C   UNL     1       9.221  22.258  55.060  1.00  0.00     0.024 A 
HETATM   30  C   UNL     1       9.001  21.520  53.898  1.00  0.00     0.002 A 
HETATM   31  C   UNL     1       8.062  21.959  52.973  1.00  0.00     0.001 A 
HETATM   32  C   UNL     1       7.344  23.138  53.207  1.00  0.00     0.009 A 
ENDBRANCH  24  26
ENDBRANCH  20  23
ENDBRANCH   2  19
TORSDOF 6
ENDMDL
MODEL 2
REMARK VINA RESULT:     -10.5      1.579      2.050
REMARK  6 active torsions:
REMARK  status: ('A' for Active; 'I' for Inactive)
REMARK    1  A    between atoms: O_2  and  C_3 
REMARK    2  A    between atoms: C_6  and  C_7 
REMARK    3  A    between atoms: C_11  and  C_12 
REMARK       I    between atoms: C_12  and  N_13 
REMARK    4  A    between atoms: N_13  and  N_14 
REMARK       I    between atoms: N_14  and  C_15 
REMARK    5  A    between atoms: C_15  and  C_16 
REMARK    6  A    between atoms: C_17  and  C_18 
ROOT
HETATM    1  C   UNL     1       8.412  29.957  58.803  1.00  0.00     0.288 C 
HETATM    2  N   UNL     1       7.337  29.193  58.400  1.00  0.00    -0.262 N 
HETATM    3  O   UNL     1       9.434  30.049  58.125  1.00  0.00    -0.264 OA
HETATM    4  H   UNL     1       6.475  29.096  58.928  1.00  0.00     0.190 HD
ENDROOT
BRANCH   1   5
HETATM    5  C   UNL     1       8.258  30.628  60.062  1.00  0.00     0.121 A 
HETATM    6  N   UNL     1       8.975  30.257  61.164  1.00  0.00    -0.272 N 
HETATM    7  N   UNL     1       8.694  30.962  62.268  1.00  0.00    -0.174 NA
HETATM    8  H   UNL     1       9.666  29.514  61.219  1.00  0.00     0.189 HD
HETATM    9  C   UNL     1       7.763  31.848  61.881  1.00  0.00     0.089 A 
HETATM   10  C   UNL     1       7.467  31.674  60.498  1.00  0.00     0.071 A 
BRANCH   9  11
HETATM   11  C   UNL     1       7.171  32.806  62.821  1.00  0.00    -0.005 A 
HETATM   12  C   UNL     1       6.080  33.604  62.457  1.00  0.00     0.016 A 
HETATM   13  C   UNL     1       5.512  34.493  63.376  1.00  0.00     0.037 A 
HETATM   14  C   UNL     1       6.017  34.601  64.672  1.00  0.00     0.068 A 
HETATM   15  C   UNL     1       7.113  33.823  65.040  1.00  0.00     0.037 A 
HETATM   16  C   UNL     1       7.684  32.934  64.119  1.00  0.00     0.016 A 
BRANCH  14  17
HETATM   17  O   UNL     1       5.362  35.496  65.471  1.00  0.00    -0.356 OA
HETATM   18  C   UNL     1       4.385  36.317  64.844  1.00  0.00     0.210 C 
ENDBRANCH  14  17
ENDBRANCH   9  11
ENDBRANCH   1   5
BRANCH   2  19
HETATM   19  N   UNL     1       7.419  28.490  57.196  1.00  0.00    -0.267 N 
HETATM   20  C   UNL     1       7.661  27.137  57.241  1.00  0.00     0.240 C 
HETATM   21  O   UNL     1       7.769  26.500  58.285  1.00  0.00    -0.271 OA
HETATM   22  H   UNL     1       7.405  29.035  56.338  1.00  0.00     0.190 HD
BRANCH  20  23
HETATM   23  C   UNL     1       7.808  26.495  55.909  1.00  0.00     0.089 A 
HETATM   24  C   UNL     1       6.886  25.340  55.547  1.00  0.00     0.034 A 
HETATM   25  C   UNL     1       6.764  26.671  54.842  1.00  0.00     0.025 A 
BRANCH  24  26
HETATM   26  C   UNL     1       7.467  24.124  54.853  1.00  0.00    -0.031 A 
HETATM   27  C   UNL     1       8.203  23.135  55.541  1.00  0.00     0.040 A 
HETATM   28 CL   UNL     1       8.496  23.269  57.243  1.00  0.00    -0.084 Cl
HETATM   29  C   UNL     1       8.718  22.013  54.883  1.00  0.00     0.024 A 
HETATM   30  C   UNL     1       8.505  21.846  53.517  1.00  0.00     0.002 A 
HETATM   31  C   UNL     1       7.773  22.796  52.814  1.00  0.00     0.001 A 
HETATM   32  C   UNL     1       7.257  23.914  53.477  1.00  0.00     0.009 A 
ENDBRANCH  24  26
ENDBRANCH  20  23
ENDBRANCH   2  19
TORSDOF 6
ENDMDL
MODEL 3
REMARK VINA RESULT:     -10.1      2.743     11.002
REMARK  6 active torsions:
REMARK  status: ('A' for Active; 'I' for Inactive)
REMARK    1  A    between atoms: O_2  and  C_3 
REMARK    2  A    between atoms: C_6  and  C_7 
REMARK    3  A    between atoms: C_11  and  C_12 
REMARK       I    between atoms: C_12  and  N_13 
REMARK    4  A    between atoms: N_13  and  N_14 
REMARK       I    between atoms: N_14  and  C_15 
REMARK    5  A    between atoms: C_15  and  C_16 
REMARK    6  A    between atoms: C_17  and  C_18 
ROOT
HETATM    1  C   UNL     1       7.070  29.498  57.509  1.00  0.00     0.288 C 
HETATM    2  N   UNL     1       8.082  29.404  58.441  1.00  0.00    -0.262 N 
HETATM    3  O   UNL     1       6.182  30.344  57.598  1.00  0.00    -0.264 OA
HETATM    4  H   UNL     1       8.836  28.724  58.400  1.00  0.00     0.190 HD
ENDROOT
BRANCH   1   5
HETATM    5  C   UNL     1       7.122  28.541  56.440  1.00  0.00     0.121 A 
HETATM    6  N   UNL     1       6.850  28.895  55.149  1.00  0.00    -0.272 N 
HETATM    7  N   UNL     1       6.911  27.881  54.275  1.00  0.00    -0.174 NA
HETATM    8  H   UNL     1       6.604  29.820  54.810  1.00  0.00     0.189 HD
HETATM    9  C   UNL     1       7.252  26.813  55.014  1.00  0.00     0.089 A 
HETATM   10  C   UNL     1       7.400  27.190  56.380  1.00  0.00     0.071 A 
BRANCH   9  11
HETATM   11  C   UNL     1       7.404  25.481  54.419  1.00  0.00    -0.005 A 
HETATM   12  C   UNL     1       7.219  24.319  55.178  1.00  0.00     0.016 A 
HETATM   13  C   UNL     1       7.343  23.057  54.586  1.00  0.00     0.037 A 
HETATM   14  C   UNL     1       7.649  22.929  53.230  1.00  0.00     0.068 A 
HETATM   15  C   UNL     1       7.851  24.079  52.470  1.00  0.00     0.037 A 
HETATM   16  C   UNL     1       7.730  25.343  53.062  1.00  0.00     0.016 A 
BRANCH  14  17
HETATM   17  O   UNL     1       7.726  21.641  52.778  1.00  0.00    -0.356 OA
HETATM   18  C   UNL     1       8.213  20.670  53.695  1.00  0.00     0.210 C 
ENDBRANCH  14  17
ENDBRANCH   9  11
ENDBRANCH   1   5
BRANCH   2  19
HETATM   19  N   UNL     1       8.089  30.284  59.525  1.00  0.00    -0.267 N 
HETATM   20  C   UNL     1       8.848  31.428  59.437  1.00  0.00     0.240 C 
HETATM   21  O   UNL     1       9.490  31.743  58.439  1.00  0.00    -0.271 OA
HETATM   22  H   UNL     1       7.618  29.980  60.374  1.00  0.00     0.190 HD
BRANCH  20  23
HETATM   23  C   UNL     1       8.852  32.258  60.670  1.00  0.00     0.089 A 
HETATM   24  C   UNL     1       8.302  31.661  61.957  1.00  0.00     0.034 A 
HETATM   25  C   UNL     1       9.779  31.949  61.813  1.00  0.00     0.025 A 
BRANCH  24  26
HETATM   26  C   UNL     1       7.409  32.512  62.840  1.00  0.00    -0.031 A 
HETATM   27  C   UNL     1       6.084  32.844  62.486  1.00  0.00     0.040 A 
HETATM   28 CL   UNL     1       5.400  32.297  60.992  1.00  0.00    -0.084 Cl
HETATM   29  C   UNL     1       5.273  33.619  63.322  1.00  0.00     0.024 A 
HETATM   30  C   UNL     1       5.765  34.078  64.542  1.00  0.00     0.002 A 
HETATM   31  C   UNL     1       7.062  33.757  64.924  1.00  0.00     0.001 A 
HETATM   32  C   UNL     1       7.869  32.979  64.086  1.00  0.00     0.009 A 
ENDBRANCH  24  26
ENDBRANCH  20  23
ENDBRANCH   2  19
TORSDOF 6
ENDMDL
MODEL 4
REMARK VINA RESULT:      -9.4      8.204     12.148
REMARK  6 active torsions:
REMARK  status: ('A' for Active; 'I' for Inactive)
REMARK    1  A    between atoms: O_2  and  C_3 
REMARK    2  A    between atoms: C_6  and  C_7 
REMARK    3  A    between atoms: C_11  and  C_12 
REMARK       I    between atoms: C_12  and  N_13 
REMARK    4  A    between atoms: N_13  and  N_14 
REMARK       I    between atoms: N_14  and  C_15 
REMARK    5  A    between atoms: C_15  and  C_16 
REMARK    6  A    between atoms: C_17  and  C_18 
ROOT
HETATM    1  C   UNL     1       4.964  27.414  50.457  1.00  0.00     0.288 C 
HETATM    2  N   UNL     1       5.587  26.185  50.401  1.00  0.00    -0.262 N 
HETATM    3  O   UNL     1       5.062  28.148  51.439  1.00  0.00    -0.264 OA
HETATM    4  H   UNL     1       5.535  25.553  49.607  1.00  0.00     0.190 HD
ENDROOT
BRANCH   1   5
HETATM    5  C   UNL     1       4.193  27.771  49.300  1.00  0.00     0.121 A 
HETATM    6  N   UNL     1       4.764  28.377  48.217  1.00  0.00    -0.272 N 
HETATM    7  N   UNL     1       3.903  28.672  47.233  1.00  0.00    -0.174 NA
HETATM    8  H   UNL     1       5.743  28.623  48.103  1.00  0.00     0.189 HD
HETATM    9  C   UNL     1       2.714  28.231  47.675  1.00  0.00     0.089 A 
HETATM   10  C   UNL     1       2.857  27.652  48.969  1.00  0.00     0.071 A 
BRANCH   9  11
HETATM   11  C   UNL     1       1.491  28.388  46.881  1.00  0.00    -0.005 A 
HETATM   12  C   UNL     1       1.028  29.653  46.500  1.00  0.00     0.016 A 
HETATM   13  C   UNL     1      -0.128  29.781  45.721  1.00  0.00     0.037 A 
HETATM   14  C   UNL     1      -0.838  28.655  45.305  1.00  0.00     0.068 A 
HETATM   15  C   UNL     1      -0.394  27.392  45.692  1.00  0.00     0.037 A 
HETATM   16  C   UNL     1       0.760  27.263  46.474  1.00  0.00     0.016 A 
BRANCH  14  17
HETATM   17  O   UNL     1      -1.938  28.921  44.538  1.00  0.00    -0.356 OA
HETATM   18  C   UNL     1      -1.720  29.090  43.143  1.00  0.00     0.210 C 
ENDBRANCH  14  17
ENDBRANCH   9  11
ENDBRANCH   1   5
BRANCH   2  19
HETATM   19  N   UNL     1       6.338  25.755  51.497  1.00  0.00    -0.267 N 
HETATM   20  C   UNL     1       5.753  24.894  52.396  1.00  0.00     0.240 C 
HETATM   21  O   UNL     1       4.618  24.445  52.267  1.00  0.00    -0.271 OA
HETATM   22  H   UNL     1       7.247  26.189  51.637  1.00  0.00     0.190 HD
BRANCH  20  23
HETATM   23  C   UNL     1       6.604  24.558  53.567  1.00  0.00     0.089 A 
HETATM   24  C   UNL     1       7.748  23.571  53.382  1.00  0.00     0.034 A 
HETATM   25  C   UNL     1       8.029  25.031  53.654  1.00  0.00     0.025 A 
BRANCH  24  26
HETATM   26  C   UNL     1       7.980  22.507  54.438  1.00  0.00    -0.031 A 
HETATM   27  C   UNL     1       8.107  21.138  54.122  1.00  0.00     0.040 A 
HETATM   28 CL   UNL     1       7.990  20.590  52.483  1.00  0.00    -0.084 Cl
HETATM   29  C   UNL     1       8.334  20.175  55.110  1.00  0.00     0.024 A 
HETATM   30  C   UNL     1       8.449  20.557  56.445  1.00  0.00     0.002 A 
HETATM   31  C   UNL     1       8.342  21.900  56.786  1.00  0.00     0.001 A 
HETATM   32  C   UNL     1       8.117  22.860  55.793  1.00  0.00     0.009 A 
ENDBRANCH  24  26
ENDBRANCH  20  23
ENDBRANCH   2  19
TORSDOF 6
ENDMDL
MODEL 5
REMARK VINA RESULT:      -9.1      6.840     10.426
REMARK  6 active torsions:
REMARK  status: ('A' for Active; 'I' for Inactive)
REMARK    1  A    between atoms: O_2  and  C_3 
REMARK    2  A    between atoms: C_6  and  C_7 
REMARK    3  A    between atoms: C_11  and  C_12 
REMARK       I    between atoms: C_12  and  N_13 
REMARK    4  A    between atoms: N_13  and  N_14 
REMARK       I    between atoms: N_14  and  C_15 
REMARK    5  A    between atoms: C_15  and  C_16 
REMARK    6  A    between atoms: C_17  and  C_18 
ROOT
HETATM    1  C   UNL     1       5.132  26.548  51.406  1.00  0.00     0.288 C 
HETATM    2  N   UNL     1       4.528  26.577  52.645  1.00  0.00    -0.262 N 
HETATM    3  O   UNL     1       5.948  25.679  51.101  1.00  0.00    -0.264 OA
HETATM    4  H   UNL     1       3.847  27.274  52.933  1.00  0.00     0.190 HD
ENDROOT
BRANCH   1   5
HETATM    5  C   UNL     1       4.750  27.598  50.505  1.00  0.00     0.121 A 
HETATM    6  N   UNL     1       3.451  27.775  50.121  1.00  0.00    -0.272 N 
HETATM    7  N   UNL     1       3.265  28.779  49.253  1.00  0.00    -0.174 NA
HETATM    8  H   UNL     1       2.649  27.226  50.416  1.00  0.00     0.189 HD
HETATM    9  C   UNL     1       4.488  29.299  49.064  1.00  0.00     0.089 A 
HETATM   10  C   UNL     1       5.448  28.587  49.839  1.00  0.00     0.071 A 
BRANCH   9  11
HETATM   11  C   UNL     1       4.715  30.424  48.151  1.00  0.00    -0.005 A 
HETATM   12  C   UNL     1       5.311  31.612  48.593  1.00  0.00     0.016 A 
HETATM   13  C   UNL     1       5.543  32.665  47.701  1.00  0.00     0.037 A 
HETATM   14  C   UNL     1       5.190  32.553  46.355  1.00  0.00     0.068 A 
HETATM   15  C   UNL     1       4.582  31.382  45.909  1.00  0.00     0.037 A 
HETATM   16  C   UNL     1       4.346  30.328  46.801  1.00  0.00     0.016 A 
BRANCH  14  17
HETATM   17  O   UNL     1       5.485  33.649  45.592  1.00  0.00    -0.356 OA
HETATM   18  C   UNL     1       6.820  33.754  45.114  1.00  0.00     0.210 C 
ENDBRANCH  14  17
ENDBRANCH   9  11
ENDBRANCH   1   5
BRANCH   2  19
HETATM   19  N   UNL     1       4.865  25.603  53.587  1.00  0.00    -0.267 N 
HETATM   20  C   UNL     1       5.714  25.947  54.612  1.00  0.00     0.240 C 
HETATM   21  O   UNL     1       6.162  27.078  54.774  1.00  0.00    -0.271 OA
HETATM   22  H   UNL     1       4.552  24.652  53.404  1.00  0.00     0.190 HD
BRANCH  20  23
HETATM   23  C   UNL     1       6.074  24.822  55.515  1.00  0.00     0.089 A 
HETATM   24  C   UNL     1       7.524  24.366  55.575  1.00  0.00     0.034 A 
HETATM   25  C   UNL     1       6.885  25.053  56.760  1.00  0.00     0.025 A 
BRANCH  24  26
HETATM   26  C   UNL     1       7.829  22.881  55.588  1.00  0.00    -0.031 A 
HETATM   27  C   UNL     1       7.829  22.095  54.416  1.00  0.00     0.040 A 
HETATM   28 CL   UNL     1       7.462  22.796  52.876  1.00  0.00    -0.084 Cl
HETATM   29  C   UNL     1       8.127  20.728  54.448  1.00  0.00     0.024 A 
HETATM   30  C   UNL     1       8.440  20.111  55.657  1.00  0.00     0.002 A 
HETATM   31  C   UNL     1       8.462  20.861  56.826  1.00  0.00     0.001 A 
HETATM   32  C   UNL     1       8.166  22.228  56.788  1.00  0.00     0.009 A 
ENDBRANCH  24  26
ENDBRANCH  20  23
ENDBRANCH   2  19
TORSDOF 6
ENDMDL
MODEL 6
REMARK VINA RESULT:      -9.1      3.149     11.197
REMARK  6 active torsions:
REMARK  status: ('A' for Active; 'I' for Inactive)
REMARK    1  A    between atoms: O_2  and  C_3 
REMARK    2  A    between atoms: C_6  and  C_7 
REMARK    3  A    between atoms: C_11  and  C_12 
REMARK       I    between atoms: C_12  and  N_13 
REMARK    4  A    between atoms: N_13  and  N_14 
REMARK       I    between atoms: N_14  and  C_15 
REMARK    5  A    between atoms: C_15  and  C_16 
REMARK    6  A    between atoms: C_17  and  C_18 
ROOT
HETATM    1  C   UNL     1       6.946  29.322  56.813  1.00  0.00     0.288 C 
HETATM    2  N   UNL     1       6.684  29.308  58.167  1.00  0.00    -0.262 N 
HETATM    3  O   UNL     1       7.315  30.343  56.233  1.00  0.00    -0.264 OA
HETATM    4  H   UNL     1       6.383  28.486  58.683  1.00  0.00     0.190 HD
ENDROOT
BRANCH   1   5
HETATM    5  C   UNL     1       6.752  28.074  56.131  1.00  0.00     0.121 A 
HETATM    6  N   UNL     1       5.622  27.821  55.407  1.00  0.00    -0.272 N 
HETATM    7  N   UNL     1       5.581  26.600  54.858  1.00  0.00    -0.174 NA
HETATM    8  H   UNL     1       4.836  28.449  55.266  1.00  0.00     0.189 HD
HETATM    9  C   UNL     1       6.739  26.023  55.219  1.00  0.00     0.089 A 
HETATM   10  C   UNL     1       7.506  26.922  56.015  1.00  0.00     0.071 A 
BRANCH   9  11
HETATM   11  C   UNL     1       7.072  24.651  54.825  1.00  0.00    -0.005 A 
HETATM   12  C   UNL     1       7.133  24.274  53.477  1.00  0.00     0.016 A 
HETATM   13  C   UNL     1       7.479  22.965  53.121  1.00  0.00     0.037 A 
HETATM   14  C   UNL     1       7.774  22.012  54.096  1.00  0.00     0.068 A 
HETATM   15  C   UNL     1       7.701  22.373  55.440  1.00  0.00     0.037 A 
HETATM   16  C   UNL     1       7.352  23.681  55.799  1.00  0.00     0.016 A 
BRANCH  14  17
HETATM   17  O   UNL     1       8.110  20.779  53.610  1.00  0.00    -0.356 OA
HETATM   18  C   UNL     1       8.817  19.916  54.492  1.00  0.00     0.210 C 
ENDBRANCH  14  17
ENDBRANCH   9  11
ENDBRANCH   1   5
BRANCH   2  19
HETATM   19  N   UNL     1       6.827  30.490  58.898  1.00  0.00    -0.267 N 
HETATM   20  C   UNL     1       7.969  30.667  59.642  1.00  0.00     0.240 C 
HETATM   21  O   UNL     1       8.895  29.862  59.669  1.00  0.00    -0.271 OA
HETATM   22  H   UNL     1       6.025  31.115  58.931  1.00  0.00     0.190 HD
BRANCH  20  23
HETATM   23  C   UNL     1       7.990  31.919  60.444  1.00  0.00     0.089 A 
HETATM   24  C   UNL     1       7.216  31.962  61.753  1.00  0.00     0.034 A 
HETATM   25  C   UNL     1       8.727  31.990  61.753  1.00  0.00     0.025 A 
BRANCH  24  26
HETATM   26  C   UNL     1       6.399  33.197  62.083  1.00  0.00    -0.031 A 
HETATM   27  C   UNL     1       6.548  33.905  63.295  1.00  0.00     0.040 A 
HETATM   28 CL   UNL     1       7.683  33.385  64.494  1.00  0.00    -0.084 Cl
HETATM   29  C   UNL     1       5.794  35.050  63.573  1.00  0.00     0.024 A 
HETATM   30  C   UNL     1       4.872  35.523  62.641  1.00  0.00     0.002 A 
HETATM   31  C   UNL     1       4.713  34.855  61.433  1.00  0.00     0.001 A 
HETATM   32  C   UNL     1       5.471  33.712  61.158  1.00  0.00     0.009 A 
ENDBRANCH  24  26
ENDBRANCH  20  23
ENDBRANCH   2  19
TORSDOF 6
ENDMDL
MODEL 7
REMARK VINA RESULT:      -8.6      3.439     11.343
REMARK  6 active torsions:
REMARK  status: ('A' for Active; 'I' for Inactive)
REMARK    1  A    between atoms: O_2  and  C_3 
REMARK    2  A    between atoms: C_6  and  C_7 
REMARK    3  A    between atoms: C_11  and  C_12 
REMARK       I    between atoms: C_12  and  N_13 
REMARK    4  A    between atoms: N_13  and  N_14 
REMARK       I    between atoms: N_14  and  C_15 
REMARK    5  A    between atoms: C_15  and  C_16 
REMARK    6  A    between atoms: C_17  and  C_18 
ROOT
HETATM    1  C   UNL     1       4.802  29.610  56.700  1.00  0.00     0.288 C 
HETATM    2  N   UNL     1       5.440  29.943  57.876  1.00  0.00    -0.262 N 
HETATM    3  O   UNL     1       3.694  30.062  56.411  1.00  0.00    -0.264 OA
HETATM    4  H   UNL     1       6.356  29.595  58.147  1.00  0.00     0.190 HD
ENDROOT
BRANCH   1   5
HETATM    5  C   UNL     1       5.511  28.702  55.844  1.00  0.00     0.121 A 
HETATM    6  N   UNL     1       6.154  29.132  54.718  1.00  0.00    -0.272 N 
HETATM    7  N   UNL     1       6.743  28.157  54.013  1.00  0.00    -0.174 NA
HETATM    8  H   UNL     1       6.212  30.087  54.378  1.00  0.00     0.189 HD
HETATM    9  C   UNL     1       6.493  27.035  54.706  1.00  0.00     0.089 A 
HETATM   10  C   UNL     1       5.726  27.337  55.868  1.00  0.00     0.071 A 
BRANCH   9  11
HETATM   11  C   UNL     1       6.961  25.723  54.245  1.00  0.00    -0.005 A 
HETATM   12  C   UNL     1       7.512  25.554  52.969  1.00  0.00     0.016 A 
HETATM   13  C   UNL     1       7.977  24.300  52.557  1.00  0.00     0.037 A 
HETATM   14  C   UNL     1       7.906  23.196  53.407  1.00  0.00     0.068 A 
HETATM   15  C   UNL     1       7.345  23.350  54.673  1.00  0.00     0.037 A 
HETATM   16  C   UNL     1       6.876  24.604  55.086  1.00  0.00     0.016 A 
BRANCH  14  17
HETATM   17  O   UNL     1       8.408  22.036  52.885  1.00  0.00    -0.356 OA
HETATM   18  C   UNL     1       7.756  20.830  53.264  1.00  0.00     0.210 C 
ENDBRANCH  14  17
ENDBRANCH   9  11
ENDBRANCH   1   5
BRANCH   2  19
HETATM   19  N   UNL     1       4.804  30.803  58.773  1.00  0.00    -0.267 N 
HETATM   20  C   UNL     1       5.435  31.975  59.118  1.00  0.00     0.240 C 
HETATM   21  O   UNL     1       6.512  32.331  58.648  1.00  0.00    -0.271 OA
HETATM   22  H   UNL     1       3.951  30.467  59.214  1.00  0.00     0.190 HD
BRANCH  20  23
HETATM   23  C   UNL     1       4.715  32.783  60.136  1.00  0.00     0.089 A 
HETATM   24  C   UNL     1       5.520  33.699  61.047  1.00  0.00     0.034 A 
HETATM   25  C   UNL     1       4.594  34.276  60.001  1.00  0.00     0.025 A 
BRANCH  24  26
HETATM   26  C   UNL     1       5.180  33.752  62.524  1.00  0.00    -0.031 A 
HETATM   27  C   UNL     1       6.080  33.333  63.527  1.00  0.00     0.040 A 
HETATM   28 CL   UNL     1       7.644  32.714  63.114  1.00  0.00    -0.084 Cl
HETATM   29  C   UNL     1       5.751  33.403  64.884  1.00  0.00     0.024 A 
HETATM   30  C   UNL     1       4.511  33.903  65.278  1.00  0.00     0.002 A 
HETATM   31  C   UNL     1       3.608  34.335  64.314  1.00  0.00     0.001 A 
HETATM   32  C   UNL     1       3.943  34.266  62.957  1.00  0.00     0.009 A 
ENDBRANCH  24  26
ENDBRANCH  20  23
ENDBRANCH   2  19
TORSDOF 6
ENDMDL
MODEL 8
REMARK VINA RESULT:      -8.6      2.015      2.436
REMARK  6 active torsions:
REMARK  status: ('A' for Active; 'I' for Inactive)
REMARK    1  A    between atoms: O_2  and  C_3 
REMARK    2  A    between atoms: C_6  and  C_7 
REMARK    3  A    between atoms: C_11  and  C_12 
REMARK       I    between atoms: C_12  and  N_13 
REMARK    4  A    between atoms: N_13  and  N_14 
REMARK       I    between atoms: N_14  and  C_15 
REMARK    5  A    between atoms: C_15  and  C_16 
REMARK    6  A    between atoms: C_17  and  C_18 
ROOT
HETATM    1  C   UNL     1       8.155  29.266  57.703  1.00  0.00     0.288 C 
HETATM    2  N   UNL     1       7.819  27.959  57.983  1.00  0.00    -0.262 N 
HETATM    3  O   UNL     1       8.747  29.578  56.671  1.00  0.00    -0.264 OA
HETATM    4  H   UNL     1       7.326  27.662  58.821  1.00  0.00     0.190 HD
ENDROOT
BRANCH   1   5
HETATM    5  C   UNL     1       7.775  30.231  58.696  1.00  0.00     0.121 A 
HETATM    6  N   UNL     1       8.395  30.289  59.912  1.00  0.00    -0.272 N 
HETATM    7  N   UNL     1       7.903  31.224  60.737  1.00  0.00    -0.174 NA
HETATM    8  H   UNL     1       9.156  29.700  60.236  1.00  0.00     0.189 HD
HETATM    9  C   UNL     1       6.927  31.821  60.034  1.00  0.00     0.089 A 
HETATM   10  C   UNL     1       6.821  31.228  58.743  1.00  0.00     0.071 A 
BRANCH   9  11
HETATM   11  C   UNL     1       6.120  32.904  60.604  1.00  0.00    -0.005 A 
HETATM   12  C   UNL     1       6.456  33.498  61.827  1.00  0.00     0.016 A 
HETATM   13  C   UNL     1       5.688  34.549  62.341  1.00  0.00     0.037 A 
HETATM   14  C   UNL     1       4.576  35.029  61.647  1.00  0.00     0.068 A 
HETATM   15  C   UNL     1       4.224  34.434  60.437  1.00  0.00     0.037 A 
HETATM   16  C   UNL     1       4.990  33.381  59.922  1.00  0.00     0.016 A 
BRANCH  14  17
HETATM   17  O   UNL     1       3.925  36.066  62.255  1.00  0.00    -0.356 OA
HETATM   18  C   UNL     1       4.121  36.212  63.656  1.00  0.00     0.210 C 
ENDBRANCH  14  17
ENDBRANCH   9  11
ENDBRANCH   1   5
BRANCH   2  19
HETATM   19  N   UNL     1       8.175  26.958  57.077  1.00  0.00    -0.267 N 
HETATM   20  C   UNL     1       7.208  26.459  56.237  1.00  0.00     0.240 C 
HETATM   21  O   UNL     1       6.053  26.874  56.207  1.00  0.00    -0.271 OA
HETATM   22  H   UNL     1       9.111  26.568  57.159  1.00  0.00     0.190 HD
BRANCH  20  23
HETATM   23  C   UNL     1       7.666  25.345  55.366  1.00  0.00     0.089 A 
HETATM   24  C   UNL     1       6.865  24.051  55.349  1.00  0.00     0.034 A 
HETATM   25  C   UNL     1       6.896  24.952  54.136  1.00  0.00     0.025 A 
BRANCH  24  26
HETATM   26  C   UNL     1       7.604  22.727  55.375  1.00  0.00    -0.031 A 
HETATM   27  C   UNL     1       7.966  22.036  54.199  1.00  0.00     0.040 A 
HETATM   28 CL   UNL     1       7.566  22.669  52.637  1.00  0.00    -0.084 Cl
HETATM   29  C   UNL     1       8.660  20.823  54.245  1.00  0.00     0.024 A 
HETATM   30  C   UNL     1       9.019  20.270  55.472  1.00  0.00     0.002 A 
HETATM   31  C   UNL     1       8.689  20.934  56.648  1.00  0.00     0.001 A 
HETATM   32  C   UNL     1       7.997  22.149  56.596  1.00  0.00     0.009 A 
ENDBRANCH  24  26
ENDBRANCH  20  23
ENDBRANCH   2  19
TORSDOF 6
ENDMDL
MODEL 9
REMARK VINA RESULT:      -8.5      3.620     11.207
REMARK  6 active torsions:
REMARK  status: ('A' for Active; 'I' for Inactive)
REMARK    1  A    between atoms: O_2  and  C_3 
REMARK    2  A    between atoms: C_6  and  C_7 
REMARK    3  A    between atoms: C_11  and  C_12 
REMARK       I    between atoms: C_12  and  N_13 
REMARK    4  A    between atoms: N_13  and  N_14 
REMARK       I    between atoms: N_14  and  C_15 
REMARK    5  A    between atoms: C_15  and  C_16 
REMARK    6  A    between atoms: C_17  and  C_18 
ROOT
HETATM    1  C   UNL     1       6.080  30.152  57.255  1.00  0.00     0.288 C 
HETATM    2  N   UNL     1       7.036  29.839  58.198  1.00  0.00    -0.262 N 
HETATM    3  O   UNL     1       5.400  31.175  57.333  1.00  0.00    -0.264 OA
HETATM    4  H   UNL     1       7.620  29.008  58.166  1.00  0.00     0.190 HD
ENDROOT
BRANCH   1   5
HETATM    5  C   UNL     1       5.930  29.206  56.186  1.00  0.00     0.121 A 
HETATM    6  N   UNL     1       6.282  27.895  56.335  1.00  0.00    -0.272 N 
HETATM    7  N   UNL     1       6.109  27.149  55.235  1.00  0.00    -0.174 NA
HETATM    8  H   UNL     1       6.660  27.458  57.170  1.00  0.00     0.189 HD
HETATM    9  C   UNL     1       5.608  27.996  54.323  1.00  0.00     0.089 A 
HETATM   10  C   UNL     1       5.474  29.299  54.885  1.00  0.00     0.071 A 
BRANCH   9  11
HETATM   11  C   UNL     1       5.294  27.562  52.957  1.00  0.00    -0.005 A 
HETATM   12  C   UNL     1       4.574  28.382  52.080  1.00  0.00     0.016 A 
HETATM   13  C   UNL     1       4.307  27.960  50.772  1.00  0.00     0.037 A 
HETATM   14  C   UNL     1       4.755  26.720  50.314  1.00  0.00     0.068 A 
HETATM   15  C   UNL     1       5.459  25.891  51.185  1.00  0.00     0.037 A 
HETATM   16  C   UNL     1       5.724  26.310  52.495  1.00  0.00     0.016 A 
BRANCH  14  17
HETATM   17  O   UNL     1       4.438  26.440  49.014  1.00  0.00    -0.356 OA
HETATM   18  C   UNL     1       4.998  27.291  48.022  1.00  0.00     0.210 C 
ENDBRANCH  14  17
ENDBRANCH   9  11
ENDBRANCH   1   5
BRANCH   2  19
HETATM   19  N   UNL     1       7.226  30.698  59.282  1.00  0.00    -0.267 N 
HETATM   20  C   UNL     1       8.391  31.424  59.348  1.00  0.00     0.240 C 
HETATM   21  O   UNL     1       9.261  31.394  58.482  1.00  0.00    -0.271 OA
HETATM   22  H   UNL     1       6.537  30.661  60.031  1.00  0.00     0.190 HD
BRANCH  20  23
HETATM   23  C   UNL     1       8.533  32.248  60.577  1.00  0.00     0.089 A 
HETATM   24  C   UNL     1       8.104  31.653  61.910  1.00  0.00     0.034 A 
HETATM   25  C   UNL     1       9.564  31.916  61.621  1.00  0.00     0.025 A 
BRANCH  24  26
HETATM   26  C   UNL     1       7.320  32.515  62.881  1.00  0.00    -0.031 A 
HETATM   27  C   UNL     1       5.971  32.870  62.664  1.00  0.00     0.040 A 
HETATM   28 CL   UNL     1       5.131  32.342  61.246  1.00  0.00    -0.084 Cl
HETATM   29  C   UNL     1       5.262  33.654  63.581  1.00  0.00     0.024 A 
HETATM   30  C   UNL     1       5.883  34.099  64.746  1.00  0.00     0.002 A 
HETATM   31  C   UNL     1       7.206  33.754  64.995  1.00  0.00     0.001 A 
HETATM   32  C   UNL     1       7.910  32.968  64.076  1.00  0.00     0.009 A 
ENDBRANCH  24  26
ENDBRANCH  20  23
ENDBRANCH   2  19
TORSDOF 6
ENDMDL
MODEL 10
REMARK VINA RESULT:      -8.5      4.048     11.437
REMARK  6 active torsions:
REMARK  status: ('A' for Active; 'I' for Inactive)
REMARK    1  A    between atoms: O_2  and  C_3 
REMARK    2  A    between atoms: C_6  and  C_7 
REMARK    3  A    between atoms: C_11  and  C_12 
REMARK       I    between atoms: C_12  and  N_13 
REMARK    4  A    between atoms: N_13  and  N_14 
REMARK       I    between atoms: N_14  and  C_15 
REMARK    5  A    between atoms: C_15  and  C_16 
REMARK    6  A    between atoms: C_17  and  C_18 
ROOT
HETATM    1  C   UNL     1       4.421  28.666  56.578  1.00  0.00     0.288 C 
HETATM    2  N   UNL     1       4.502  29.140  57.870  1.00  0.00    -0.262 N 
HETATM    3  O   UNL     1       3.931  29.335  55.669  1.00  0.00    -0.264 OA
HETATM    4  H   UNL     1       4.903  28.621  58.646  1.00  0.00     0.190 HD
ENDROOT
BRANCH   1   5
HETATM    5  C   UNL     1       4.938  27.343  56.370  1.00  0.00     0.121 A 
HETATM    6  N   UNL     1       4.567  26.295  57.165  1.00  0.00    -0.272 N 
HETATM    7  N   UNL     1       5.162  25.134  56.859  1.00  0.00    -0.174 NA
HETATM    8  H   UNL     1       3.916  26.323  57.944  1.00  0.00     0.189 HD
HETATM    9  C   UNL     1       5.948  25.418  55.809  1.00  0.00     0.089 A 
HETATM   10  C   UNL     1       5.829  26.797  55.467  1.00  0.00     0.071 A 
BRANCH   9  11
HETATM   11  C   UNL     1       6.794  24.398  55.180  1.00  0.00    -0.005 A 
HETATM   12  C   UNL     1       7.708  23.648  55.930  1.00  0.00     0.016 A 
HETATM   13  C   UNL     1       8.488  22.660  55.317  1.00  0.00     0.037 A 
HETATM   14  C   UNL     1       8.369  22.400  53.951  1.00  0.00     0.068 A 
HETATM   15  C   UNL     1       7.473  23.152  53.193  1.00  0.00     0.037 A 
HETATM   16  C   UNL     1       6.694  24.143  53.805  1.00  0.00     0.016 A 
BRANCH  14  17
HETATM   17  O   UNL     1       9.178  21.402  53.484  1.00  0.00    -0.356 OA
HETATM   18  C   UNL     1       8.546  20.348  52.769  1.00  0.00     0.210 C 
ENDBRANCH  14  17
ENDBRANCH   9  11
ENDBRANCH   1   5
BRANCH   2  19
HETATM   19  N   UNL     1       3.998  30.410  58.158  1.00  0.00    -0.267 N 
HETATM   20  C   UNL     1       4.857  31.483  58.110  1.00  0.00     0.240 C 
HETATM   21  O   UNL     1       6.038  31.395  57.785  1.00  0.00    -0.271 OA
HETATM   22  H   UNL     1       3.041  30.465  58.499  1.00  0.00     0.190 HD
BRANCH  20  23
HETATM   23  C   UNL     1       4.246  32.778  58.509  1.00  0.00     0.089 A 
HETATM   24  C   UNL     1       4.987  33.663  59.500  1.00  0.00     0.034 A 
HETATM   25  C   UNL     1       4.833  34.087  58.058  1.00  0.00     0.025 A 
BRANCH  24  26
HETATM   26  C   UNL     1       4.206  34.335  60.613  1.00  0.00    -0.031 A 
HETATM   27  C   UNL     1       3.772  33.642  61.763  1.00  0.00     0.040 A 
HETATM   28 CL   UNL     1       4.106  31.955  61.962  1.00  0.00    -0.084 Cl
HETATM   29  C   UNL     1       3.065  34.285  62.785  1.00  0.00     0.024 A 
HETATM   30  C   UNL     1       2.778  35.645  62.686  1.00  0.00     0.002 A 
HETATM   31  C   UNL     1       3.203  36.358  61.571  1.00  0.00     0.001 A 
HETATM   32  C   UNL     1       3.912  35.710  60.553  1.00  0.00     0.009 A 
ENDBRANCH  24  26
ENDBRANCH  20  23
ENDBRANCH   2  19
TORSDOF 6
ENDMDL
