MODEL 1
REMARK VINA RESULT:      -9.7      0.000      0.000
REMARK  5 active torsions:
REMARK  status: ('A' for Active; 'I' for Inactive)
REMARK    1  A    between atoms: C_4  and  C_5 
REMARK    2  A    between atoms: C_5  and  C_6 
REMARK       I    between atoms: C_6  and  N_7 
REMARK    3  A    between atoms: N_7  and  C_8 
REMARK    4  A    between atoms: C_8  and  C_9 
REMARK    5  A    between atoms: N_11  and  C_12 
ROOT
HETATM    1  C   UNL     1       6.432  24.734  57.084  1.00  0.00     0.184 C 
ENDROOT
BRANCH   1   2
HETATM    2  N   UNL     1       6.324  26.154  56.817  1.00  0.00    -0.354 N 
HETATM    3  C   UNL     1       7.146  27.093  57.404  1.00  0.00     0.231 C 
HETATM    4  O   UNL     1       8.026  26.774  58.202  1.00  0.00    -0.272 OA
HETATM    5  H   UNL     1       5.532  26.461  56.263  1.00  0.00     0.162 HD
BRANCH   3   6
HETATM    6  C   UNL     1       6.895  28.563  56.961  1.00  0.00     0.072 C 
HETATM    7  C   UNL     1       5.642  29.064  57.736  1.00  0.00     0.050 C 
HETATM    8  C   UNL     1       5.065  30.353  57.159  1.00  0.00     0.169 C 
HETATM    9  O   UNL     1       4.775  30.210  55.773  1.00  0.00    -0.391 OA
HETATM   10  C   UNL     1       5.941  29.905  55.013  1.00  0.00     0.169 C 
HETATM   11  C   UNL     1       6.507  28.564  55.453  1.00  0.00     0.050 C 
BRANCH   6  12
HETATM   12  C   UNL     1       8.190  29.375  57.198  1.00  0.00    -0.040 A 
HETATM   13  C   UNL     1       9.255  29.271  56.282  1.00  0.00     0.008 A 
HETATM   14  C   UNL     1      10.446  29.977  56.463  1.00  0.00     0.001 A 
HETATM   15  C   UNL     1      10.609  30.794  57.576  1.00  0.00     0.000 A 
HETATM   16  C   UNL     1       9.585  30.894  58.510  1.00  0.00     0.001 A 
HETATM   17  C   UNL     1       8.390  30.189  58.327  1.00  0.00     0.008 A 
ENDBRANCH   6  12
ENDBRANCH   3   6
ENDBRANCH   1   2
BRANCH   1  18
HETATM   18  C   UNL     1       6.896  24.047  55.805  1.00  0.00     0.084 A 
HETATM   19  N   UNL     1       6.647  24.661  54.687  1.00  0.00    -0.171 NA
HETATM   20  N   UNL     1       7.055  24.107  53.498  1.00  0.00    -0.229 N 
HETATM   21  C   UNL     1       7.667  22.857  53.400  1.00  0.00     0.275 A 
HETATM   22  O   UNL     1       7.946  22.306  52.336  1.00  0.00    -0.266 OA
HETATM   23  C   UNL     1       7.991  22.178  54.667  1.00  0.00     0.046 A 
HETATM   24  C   UNL     1       7.618  22.758  55.875  1.00  0.00     0.008 A 
HETATM   25  C   UNL     1       8.674  20.953  54.647  1.00  0.00     0.018 A 
HETATM   26  C   UNL     1       7.937  22.109  57.074  1.00  0.00     0.014 A 
HETATM   27  C   UNL     1       8.621  20.890  57.056  1.00  0.00     0.001 A 
HETATM   28  C   UNL     1       8.988  20.311  55.844  1.00  0.00     0.001 A 
BRANCH  20  29
HETATM   29  C   UNL     1       6.627  24.772  52.268  1.00  0.00     0.114 C 
HETATM   30  C   UNL     1       5.111  24.691  52.066  1.00  0.00     0.027 C 
HETATM   31  C   UNL     1       4.842  25.793  51.056  1.00  0.00     0.002 C 
HETATM   32  C   UNL     1       5.727  26.934  51.536  1.00  0.00     0.002 C 
HETATM   33  C   UNL     1       6.961  26.270  52.153  1.00  0.00     0.027 C 
ENDBRANCH  20  29
ENDBRANCH   1  18
TORSDOF 5
ENDMDL
MODEL 2
REMARK VINA RESULT:      -9.5      2.147      8.198
REMARK  5 active torsions:
REMARK  status: ('A' for Active; 'I' for Inactive)
REMARK    1  A    between atoms: C_4  and  C_5 
REMARK    2  A    between atoms: C_5  and  C_6 
REMARK       I    between atoms: C_6  and  N_7 
REMARK    3  A    between atoms: N_7  and  C_8 
REMARK    4  A    between atoms: C_8  and  C_9 
REMARK    5  A    between atoms: N_11  and  C_12 
ROOT
HETATM    1  C   UNL     1       7.476  26.959  57.727  1.00  0.00     0.184 C 
ENDROOT
BRANCH   1   2
HETATM    2  N   UNL     1       7.103  26.383  56.451  1.00  0.00    -0.354 N 
HETATM    3  C   UNL     1       7.752  25.299  55.899  1.00  0.00     0.231 C 
HETATM    4  O   UNL     1       8.699  24.755  56.464  1.00  0.00    -0.272 OA
HETATM    5  H   UNL     1       6.410  26.882  55.904  1.00  0.00     0.162 HD
BRANCH   3   6
HETATM    6  C   UNL     1       7.179  24.807  54.539  1.00  0.00     0.072 C 
HETATM    7  C   UNL     1       7.749  25.747  53.439  1.00  0.00     0.050 C 
HETATM    8  C   UNL     1       7.014  25.616  52.107  1.00  0.00     0.169 C 
HETATM    9  O   UNL     1       5.616  25.823  52.271  1.00  0.00    -0.391 OA
HETATM   10  C   UNL     1       5.036  24.869  53.157  1.00  0.00     0.169 C 
HETATM   11  C   UNL     1       5.637  25.023  54.546  1.00  0.00     0.050 C 
BRANCH   6  12
HETATM   12  C   UNL     1       7.525  23.308  54.374  1.00  0.00    -0.040 A 
HETATM   13  C   UNL     1       7.333  22.426  55.456  1.00  0.00     0.008 A 
HETATM   14  C   UNL     1       7.642  21.068  55.355  1.00  0.00     0.001 A 
HETATM   15  C   UNL     1       8.168  20.559  54.173  1.00  0.00     0.000 A 
HETATM   16  C   UNL     1       8.393  21.412  53.099  1.00  0.00     0.001 A 
HETATM   17  C   UNL     1       8.081  22.773  53.199  1.00  0.00     0.008 A 
ENDBRANCH   6  12
ENDBRANCH   3   6
ENDBRANCH   1   2
BRANCH   1  18
HETATM   18  C   UNL     1       7.078  28.430  57.716  1.00  0.00     0.084 A 
HETATM   19  N   UNL     1       7.777  29.232  58.463  1.00  0.00    -0.171 NA
HETATM   20  N   UNL     1       7.484  30.574  58.485  1.00  0.00    -0.229 N 
HETATM   21  C   UNL     1       6.407  31.140  57.802  1.00  0.00     0.275 A 
HETATM   22  O   UNL     1       6.076  32.320  57.892  1.00  0.00    -0.266 OA
HETATM   23  C   UNL     1       5.639  30.243  56.919  1.00  0.00     0.046 A 
HETATM   24  C   UNL     1       5.961  28.891  56.862  1.00  0.00     0.008 A 
HETATM   25  C   UNL     1       4.591  30.757  56.144  1.00  0.00     0.018 A 
HETATM   26  C   UNL     1       5.231  28.048  56.015  1.00  0.00     0.014 A 
HETATM   27  C   UNL     1       4.188  28.561  55.240  1.00  0.00     0.001 A 
HETATM   28  C   UNL     1       3.865  29.914  55.305  1.00  0.00     0.001 A 
BRANCH  20  29
HETATM   29  C   UNL     1       8.214  31.403  59.445  1.00  0.00     0.114 C 
HETATM   30  C   UNL     1       7.401  31.662  60.716  1.00  0.00     0.027 C 
HETATM   31  C   UNL     1       8.459  32.097  61.715  1.00  0.00     0.002 C 
HETATM   32  C   UNL     1       9.613  31.143  61.443  1.00  0.00     0.002 C 
HETATM   33  C   UNL     1       9.558  30.843  59.943  1.00  0.00     0.027 C 
ENDBRANCH  20  29
ENDBRANCH   1  18
TORSDOF 5
ENDMDL
MODEL 3
REMARK VINA RESULT:      -9.3      2.101      5.721
REMARK  5 active torsions:
REMARK  status: ('A' for Active; 'I' for Inactive)
REMARK    1  A    between atoms: C_4  and  C_5 
REMARK    2  A    between atoms: C_5  and  C_6 
REMARK       I    between atoms: C_6  and  N_7 
REMARK    3  A    between atoms: N_7  and  C_8 
REMARK    4  A    between atoms: C_8  and  C_9 
REMARK    5  A    between atoms: N_11  and  C_12 
ROOT
HETATM    1  C   UNL     1       7.686  24.437  52.090  1.00  0.00     0.184 C 
ENDROOT
BRANCH   1   2
HETATM    2  N   UNL     1       6.986  25.705  52.048  1.00  0.00    -0.354 N 
HETATM    3  C   UNL     1       5.610  25.801  52.022  1.00  0.00     0.231 C 
HETATM    4  O   UNL     1       4.892  24.803  52.028  1.00  0.00    -0.272 OA
HETATM    5  H   UNL     1       7.547  26.539  51.917  1.00  0.00     0.162 HD
BRANCH   3   6
HETATM    6  C   UNL     1       5.048  27.251  52.015  1.00  0.00     0.072 C 
HETATM    7  C   UNL     1       5.923  28.082  52.996  1.00  0.00     0.050 C 
HETATM    8  C   UNL     1       5.293  29.423  53.363  1.00  0.00     0.169 C 
HETATM    9  O   UNL     1       3.981  29.246  53.886  1.00  0.00    -0.391 OA
HETATM   10  C   UNL     1       3.111  28.626  52.943  1.00  0.00     0.169 C 
HETATM   11  C   UNL     1       3.613  27.228  52.619  1.00  0.00     0.050 C 
BRANCH   6  12
HETATM   12  C   UNL     1       5.024  27.761  50.554  1.00  0.00    -0.040 A 
HETATM   13  C   UNL     1       4.601  26.899  49.523  1.00  0.00     0.008 A 
HETATM   14  C   UNL     1       4.573  27.314  48.189  1.00  0.00     0.001 A 
HETATM   15  C   UNL     1       4.985  28.598  47.851  1.00  0.00     0.000 A 
HETATM   16  C   UNL     1       5.432  29.460  48.845  1.00  0.00     0.001 A 
HETATM   17  C   UNL     1       5.457  29.046  50.182  1.00  0.00     0.008 A 
ENDBRANCH   6  12
ENDBRANCH   3   6
ENDBRANCH   1   2
BRANCH   1  18
HETATM   18  C   UNL     1       7.749  23.980  53.543  1.00  0.00     0.084 A 
HETATM   19  N   UNL     1       7.460  24.866  54.449  1.00  0.00    -0.171 NA
HETATM   20  N   UNL     1       7.478  24.516  55.776  1.00  0.00    -0.229 N 
HETATM   21  C   UNL     1       7.871  23.259  56.238  1.00  0.00     0.275 A 
HETATM   22  O   UNL     1       7.986  22.964  57.425  1.00  0.00    -0.266 OA
HETATM   23  C   UNL     1       8.155  22.238  55.213  1.00  0.00     0.046 A 
HETATM   24  C   UNL     1       8.096  22.578  53.866  1.00  0.00     0.008 A 
HETATM   25  C   UNL     1       8.483  20.932  55.602  1.00  0.00     0.018 A 
HETATM   26  C   UNL     1       8.361  21.600  52.899  1.00  0.00     0.014 A 
HETATM   27  C   UNL     1       8.684  20.297  53.286  1.00  0.00     0.001 A 
HETATM   28  C   UNL     1       8.748  19.962  54.637  1.00  0.00     0.001 A 
BRANCH  20  29
HETATM   29  C   UNL     1       7.280  25.586  56.754  1.00  0.00     0.114 C 
HETATM   30  C   UNL     1       8.395  26.633  56.695  1.00  0.00     0.027 C 
HETATM   31  C   UNL     1       7.778  27.828  57.401  1.00  0.00     0.002 C 
HETATM   32  C   UNL     1       6.353  27.854  56.869  1.00  0.00     0.002 C 
HETATM   33  C   UNL     1       5.975  26.391  56.626  1.00  0.00     0.027 C 
ENDBRANCH  20  29
ENDBRANCH   1  18
TORSDOF 5
ENDMDL
MODEL 4
REMARK VINA RESULT:      -9.3      3.065      6.933
REMARK  5 active torsions:
REMARK  status: ('A' for Active; 'I' for Inactive)
REMARK    1  A    between atoms: C_4  and  C_5 
REMARK    2  A    between atoms: C_5  and  C_6 
REMARK       I    between atoms: C_6  and  N_7 
REMARK    3  A    between atoms: N_7  and  C_8 
REMARK    4  A    between atoms: C_8  and  C_9 
REMARK    5  A    between atoms: N_11  and  C_12 
ROOT
HETATM    1  C   UNL     1       5.197  25.195  52.173  1.00  0.00     0.184 C 
ENDROOT
BRANCH   1   2
HETATM    2  N   UNL     1       4.782  26.548  51.860  1.00  0.00    -0.354 N 
HETATM    3  C   UNL     1       4.722  27.035  50.571  1.00  0.00     0.231 C 
HETATM    4  O   UNL     1       5.025  26.341  49.602  1.00  0.00    -0.272 OA
HETATM    5  H   UNL     1       4.645  27.181  52.639  1.00  0.00     0.162 HD
BRANCH   3   6
HETATM    6  C   UNL     1       4.218  28.501  50.440  1.00  0.00     0.072 C 
HETATM    7  C   UNL     1       5.477  29.415  50.440  1.00  0.00     0.050 C 
HETATM    8  C   UNL     1       5.141  30.887  50.668  1.00  0.00     0.169 C 
HETATM    9  O   UNL     1       4.392  31.061  51.865  1.00  0.00    -0.391 OA
HETATM   10  C   UNL     1       3.154  30.357  51.827  1.00  0.00     0.169 C 
HETATM   11  C   UNL     1       3.413  28.862  51.723  1.00  0.00     0.050 C 
BRANCH   6  12
HETATM   12  C   UNL     1       3.325  28.602  49.181  1.00  0.00    -0.040 A 
HETATM   13  C   UNL     1       2.066  27.968  49.167  1.00  0.00     0.008 A 
HETATM   14  C   UNL     1       1.232  28.025  48.048  1.00  0.00     0.001 A 
HETATM   15  C   UNL     1       1.643  28.703  46.907  1.00  0.00     0.000 A 
HETATM   16  C   UNL     1       2.892  29.314  46.884  1.00  0.00     0.001 A 
HETATM   17  C   UNL     1       3.726  29.261  48.005  1.00  0.00     0.008 A 
ENDBRANCH   6  12
ENDBRANCH   3   6
ENDBRANCH   1   2
BRANCH   1  18
HETATM   18  C   UNL     1       6.006  25.236  53.464  1.00  0.00     0.084 A 
HETATM   19  N   UNL     1       5.746  26.208  54.288  1.00  0.00    -0.171 NA
HETATM   20  N   UNL     1       6.424  26.293  55.479  1.00  0.00    -0.229 N 
HETATM   21  C   UNL     1       7.457  25.428  55.842  1.00  0.00     0.275 A 
HETATM   22  O   UNL     1       8.138  25.553  56.858  1.00  0.00    -0.266 OA
HETATM   23  C   UNL     1       7.725  24.299  54.933  1.00  0.00     0.046 A 
HETATM   24  C   UNL     1       7.009  24.185  53.746  1.00  0.00     0.008 A 
HETATM   25  C   UNL     1       8.698  23.348  55.269  1.00  0.00     0.018 A 
HETATM   26  C   UNL     1       7.265  23.106  52.891  1.00  0.00     0.014 A 
HETATM   27  C   UNL     1       8.232  22.155  53.228  1.00  0.00     0.001 A 
HETATM   28  C   UNL     1       8.950  22.276  54.415  1.00  0.00     0.001 A 
BRANCH  20  29
HETATM   29  C   UNL     1       6.188  27.480  56.300  1.00  0.00     0.114 C 
HETATM   30  C   UNL     1       7.043  28.669  55.853  1.00  0.00     0.027 C 
HETATM   31  C   UNL     1       6.332  29.856  56.479  1.00  0.00     0.002 C 
HETATM   32  C   UNL     1       4.860  29.542  56.253  1.00  0.00     0.002 C 
HETATM   33  C   UNL     1       4.747  28.017  56.321  1.00  0.00     0.027 C 
ENDBRANCH  20  29
ENDBRANCH   1  18
TORSDOF 5
ENDMDL
MODEL 5
REMARK VINA RESULT:      -9.3      1.091      3.977
REMARK  5 active torsions:
REMARK  status: ('A' for Active; 'I' for Inactive)
REMARK    1  A    between atoms: C_4  and  C_5 
REMARK    2  A    between atoms: C_5  and  C_6 
REMARK       I    between atoms: C_6  and  N_7 
REMARK    3  A    between atoms: N_7  and  C_8 
REMARK    4  A    between atoms: C_8  and  C_9 
REMARK    5  A    between atoms: N_11  and  C_12 
ROOT
HETATM    1  C   UNL     1       5.118  25.565  56.527  1.00  0.00     0.184 C 
ENDROOT
BRANCH   1   2
HETATM    2  N   UNL     1       5.335  26.998  56.519  1.00  0.00    -0.354 N 
HETATM    3  C   UNL     1       6.397  27.599  57.162  1.00  0.00     0.231 C 
HETATM    4  O   UNL     1       7.227  26.945  57.791  1.00  0.00    -0.272 OA
HETATM    5  H   UNL     1       4.604  27.574  56.117  1.00  0.00     0.162 HD
BRANCH   3   6
HETATM    6  C   UNL     1       6.476  29.145  57.006  1.00  0.00     0.072 C 
HETATM    7  C   UNL     1       5.572  29.760  58.112  1.00  0.00     0.050 C 
HETATM    8  C   UNL     1       5.270  31.238  57.877  1.00  0.00     0.169 C 
HETATM    9  O   UNL     1       4.700  31.445  56.590  1.00  0.00    -0.391 OA
HETATM   10  C   UNL     1       5.578  31.033  55.546  1.00  0.00     0.169 C 
HETATM   11  C   UNL     1       5.831  29.537  55.644  1.00  0.00     0.050 C 
BRANCH   6  12
HETATM   12  C   UNL     1       7.963  29.567  57.054  1.00  0.00    -0.040 A 
HETATM   13  C   UNL     1       8.794  29.317  55.943  1.00  0.00     0.008 A 
HETATM   14  C   UNL     1      10.145  29.672  55.947  1.00  0.00     0.001 A 
HETATM   15  C   UNL     1      10.705  30.271  57.070  1.00  0.00     0.000 A 
HETATM   16  C   UNL     1       9.914  30.505  58.189  1.00  0.00     0.001 A 
HETATM   17  C   UNL     1       8.560  30.153  58.184  1.00  0.00     0.008 A 
ENDBRANCH   6  12
ENDBRANCH   3   6
ENDBRANCH   1   2
BRANCH   1  18
HETATM   18  C   UNL     1       5.880  24.965  55.352  1.00  0.00     0.084 A 
HETATM   19  N   UNL     1       6.629  23.933  55.604  1.00  0.00    -0.171 NA
HETATM   20  N   UNL     1       7.328  23.331  54.587  1.00  0.00    -0.229 N 
HETATM   21  C   UNL     1       7.352  23.812  53.278  1.00  0.00     0.275 A 
HETATM   22  O   UNL     1       8.051  23.343  52.382  1.00  0.00    -0.266 OA
HETATM   23  C   UNL     1       6.470  24.954  52.976  1.00  0.00     0.046 A 
HETATM   24  C   UNL     1       5.727  25.539  53.996  1.00  0.00     0.008 A 
HETATM   25  C   UNL     1       6.385  25.444  51.666  1.00  0.00     0.018 A 
HETATM   26  C   UNL     1       4.886  26.619  53.700  1.00  0.00     0.014 A 
HETATM   27  C   UNL     1       4.799  27.105  52.393  1.00  0.00     0.001 A 
HETATM   28  C   UNL     1       5.549  26.520  51.375  1.00  0.00     0.001 A 
BRANCH  20  29
HETATM   29  C   UNL     1       8.258  22.263  54.954  1.00  0.00     0.114 C 
HETATM   30  C   UNL     1       8.387  22.108  56.472  1.00  0.00     0.027 C 
HETATM   31  C   UNL     1       8.979  20.718  56.623  1.00  0.00     0.002 C 
HETATM   32  C   UNL     1       8.215  19.896  55.596  1.00  0.00     0.002 C 
HETATM   33  C   UNL     1       7.912  20.855  54.441  1.00  0.00     0.027 C 
ENDBRANCH  20  29
ENDBRANCH   1  18
TORSDOF 5
ENDMDL
MODEL 6
REMARK VINA RESULT:      -9.0      6.445     10.469
REMARK  5 active torsions:
REMARK  status: ('A' for Active; 'I' for Inactive)
REMARK    1  A    between atoms: C_4  and  C_5 
REMARK    2  A    between atoms: C_5  and  C_6 
REMARK       I    between atoms: C_6  and  N_7 
REMARK    3  A    between atoms: N_7  and  C_8 
REMARK    4  A    between atoms: C_8  and  C_9 
REMARK    5  A    between atoms: N_11  and  C_12 
ROOT
HETATM    1  C   UNL     1       4.772  32.670  59.860  1.00  0.00     0.184 C 
ENDROOT
BRANCH   1   2
HETATM    2  N   UNL     1       4.637  34.111  59.933  1.00  0.00    -0.354 N 
HETATM    3  C   UNL     1       3.422  34.756  59.831  1.00  0.00     0.231 C 
HETATM    4  O   UNL     1       2.372  34.137  59.666  1.00  0.00    -0.272 OA
HETATM    5  H   UNL     1       5.492  34.655  59.944  1.00  0.00     0.162 HD
BRANCH   3   6
HETATM    6  C   UNL     1       3.482  36.304  59.971  1.00  0.00     0.072 C 
HETATM    7  C   UNL     1       2.042  36.839  59.719  1.00  0.00     0.050 C 
HETATM    8  C   UNL     1       2.003  38.345  59.478  1.00  0.00     0.169 C 
HETATM    9  O   UNL     1       2.870  38.716  58.413  1.00  0.00    -0.391 OA
HETATM   10  C   UNL     1       4.227  38.379  58.688  1.00  0.00     0.169 C 
HETATM   11  C   UNL     1       4.367  36.870  58.822  1.00  0.00     0.050 C 
BRANCH   6  12
HETATM   12  C   UNL     1       4.084  36.649  61.353  1.00  0.00    -0.040 A 
HETATM   13  C   UNL     1       3.313  36.457  62.517  1.00  0.00     0.008 A 
HETATM   14  C   UNL     1       3.813  36.765  63.784  1.00  0.00     0.001 A 
HETATM   15  C   UNL     1       5.093  37.290  63.919  1.00  0.00     0.000 A 
HETATM   16  C   UNL     1       5.865  37.516  62.785  1.00  0.00     0.001 A 
HETATM   17  C   UNL     1       5.366  37.204  61.516  1.00  0.00     0.008 A 
ENDBRANCH   6  12
ENDBRANCH   3   6
ENDBRANCH   1   2
BRANCH   1  18
HETATM   18  C   UNL     1       6.123  32.291  60.458  1.00  0.00     0.084 A 
HETATM   19  N   UNL     1       6.931  31.616  59.697  1.00  0.00    -0.171 NA
HETATM   20  N   UNL     1       8.172  31.259  60.166  1.00  0.00    -0.229 N 
HETATM   21  C   UNL     1       8.606  31.511  61.468  1.00  0.00     0.275 A 
HETATM   22  O   UNL     1       9.672  31.111  61.930  1.00  0.00    -0.266 OA
HETATM   23  C   UNL     1       7.711  32.315  62.319  1.00  0.00     0.046 A 
HETATM   24  C   UNL     1       6.472  32.716  61.831  1.00  0.00     0.008 A 
HETATM   25  C   UNL     1       8.114  32.672  63.613  1.00  0.00     0.018 A 
HETATM   26  C   UNL     1       5.631  33.486  62.645  1.00  0.00     0.014 A 
HETATM   27  C   UNL     1       6.034  33.845  63.934  1.00  0.00     0.001 A 
HETATM   28  C   UNL     1       7.274  33.437  64.420  1.00  0.00     0.001 A 
BRANCH  20  29
HETATM   29  C   UNL     1       8.982  30.384  59.318  1.00  0.00     0.114 C 
HETATM   30  C   UNL     1       8.122  29.528  58.386  1.00  0.00     0.027 C 
HETATM   31  C   UNL     1       9.110  29.084  57.321  1.00  0.00     0.002 C 
HETATM   32  C   UNL     1       9.927  30.339  57.055  1.00  0.00     0.002 C 
HETATM   33  C   UNL     1       9.994  31.081  58.393  1.00  0.00     0.027 C 
ENDBRANCH  20  29
ENDBRANCH   1  18
TORSDOF 5
ENDMDL
MODEL 7
REMARK VINA RESULT:      -9.0      2.997      7.626
REMARK  5 active torsions:
REMARK  status: ('A' for Active; 'I' for Inactive)
REMARK    1  A    between atoms: C_4  and  C_5 
REMARK    2  A    between atoms: C_5  and  C_6 
REMARK       I    between atoms: C_6  and  N_7 
REMARK    3  A    between atoms: N_7  and  C_8 
REMARK    4  A    between atoms: C_8  and  C_9 
REMARK    5  A    between atoms: N_11  and  C_12 
ROOT
HETATM    1  C   UNL     1       6.037  25.971  51.002  1.00  0.00     0.184 C 
ENDROOT
BRANCH   1   2
HETATM    2  N   UNL     1       6.077  25.477  52.364  1.00  0.00    -0.354 N 
HETATM    3  C   UNL     1       7.255  25.213  53.032  1.00  0.00     0.231 C 
HETATM    4  O   UNL     1       8.351  25.381  52.501  1.00  0.00    -0.272 OA
HETATM    5  H   UNL     1       5.194  25.212  52.785  1.00  0.00     0.162 HD
BRANCH   3   6
HETATM    6  C   UNL     1       7.088  24.724  54.499  1.00  0.00     0.072 C 
HETATM    7  C   UNL     1       5.644  25.099  54.941  1.00  0.00     0.050 C 
HETATM    8  C   UNL     1       5.442  25.002  56.451  1.00  0.00     0.169 C 
HETATM    9  O   UNL     1       6.401  25.789  57.148  1.00  0.00    -0.391 OA
HETATM   10  C   UNL     1       7.735  25.362  56.882  1.00  0.00     0.169 C 
HETATM   11  C   UNL     1       8.051  25.545  55.406  1.00  0.00     0.050 C 
BRANCH   6  12
HETATM   12  C   UNL     1       7.428  23.216  54.555  1.00  0.00    -0.040 A 
HETATM   13  C   UNL     1       7.586  22.493  53.356  1.00  0.00     0.008 A 
HETATM   14  C   UNL     1       7.882  21.128  53.360  1.00  0.00     0.001 A 
HETATM   15  C   UNL     1       8.011  20.447  54.565  1.00  0.00     0.000 A 
HETATM   16  C   UNL     1       7.833  21.130  55.762  1.00  0.00     0.001 A 
HETATM   17  C   UNL     1       7.539  22.498  55.759  1.00  0.00     0.008 A 
ENDBRANCH   6  12
ENDBRANCH   3   6
ENDBRANCH   1   2
BRANCH   1  18
HETATM   18  C   UNL     1       4.949  27.035  50.917  1.00  0.00     0.084 A 
HETATM   19  N   UNL     1       4.719  27.725  51.995  1.00  0.00    -0.171 NA
HETATM   20  N   UNL     1       3.766  28.713  51.982  1.00  0.00    -0.229 N 
HETATM   21  C   UNL     1       2.949  28.983  50.884  1.00  0.00     0.275 A 
HETATM   22  O   UNL     1       2.027  29.796  50.892  1.00  0.00    -0.266 OA
HETATM   23  C   UNL     1       3.236  28.235  49.647  1.00  0.00     0.046 A 
HETATM   24  C   UNL     1       4.231  27.263  49.644  1.00  0.00     0.008 A 
HETATM   25  C   UNL     1       2.505  28.506  48.482  1.00  0.00     0.018 A 
HETATM   26  C   UNL     1       4.501  26.562  48.463  1.00  0.00     0.014 A 
HETATM   27  C   UNL     1       3.776  26.835  47.300  1.00  0.00     0.001 A 
HETATM   28  C   UNL     1       2.777  27.805  47.309  1.00  0.00     0.001 A 
BRANCH  20  29
HETATM   29  C   UNL     1       3.456  29.360  53.257  1.00  0.00     0.114 C 
HETATM   30  C   UNL     1       4.032  28.592  54.449  1.00  0.00     0.027 C 
HETATM   31  C   UNL     1       4.019  29.626  55.561  1.00  0.00     0.002 C 
HETATM   32  C   UNL     1       4.492  30.894  54.867  1.00  0.00     0.002 C 
HETATM   33  C   UNL     1       3.969  30.800  53.431  1.00  0.00     0.027 C 
ENDBRANCH  20  29
ENDBRANCH   1  18
TORSDOF 5
ENDMDL
MODEL 8
REMARK VINA RESULT:      -9.0      1.374      4.826
REMARK  5 active torsions:
REMARK  status: ('A' for Active; 'I' for Inactive)
REMARK    1  A    between atoms: C_4  and  C_5 
REMARK    2  A    between atoms: C_5  and  C_6 
REMARK       I    between atoms: C_6  and  N_7 
REMARK    3  A    between atoms: N_7  and  C_8 
REMARK    4  A    between atoms: C_8  and  C_9 
REMARK    5  A    between atoms: N_11  and  C_12 
ROOT
HETATM    1  C   UNL     1       5.450  25.950  56.703  1.00  0.00     0.184 C 
ENDROOT
BRANCH   1   2
HETATM    2  N   UNL     1       6.073  27.257  56.768  1.00  0.00    -0.354 N 
HETATM    3  C   UNL     1       7.184  27.521  57.542  1.00  0.00     0.231 C 
HETATM    4  O   UNL     1       7.713  26.651  58.232  1.00  0.00    -0.272 OA
HETATM    5  H   UNL     1       5.591  28.022  56.311  1.00  0.00     0.162 HD
BRANCH   3   6
HETATM    6  C   UNL     1       7.725  28.976  57.449  1.00  0.00     0.072 C 
HETATM    7  C   UNL     1       8.948  28.946  56.488  1.00  0.00     0.050 C 
HETATM    8  C   UNL     1       9.794  30.214  56.564  1.00  0.00     0.169 C 
HETATM    9  O   UNL     1      10.211  30.472  57.900  1.00  0.00    -0.391 OA
HETATM   10  C   UNL     1       9.103  30.662  58.776  1.00  0.00     0.169 C 
HETATM   11  C   UNL     1       8.275  29.388  58.846  1.00  0.00     0.050 C 
BRANCH   6  12
HETATM   12  C   UNL     1       6.565  29.904  57.017  1.00  0.00    -0.040 A 
HETATM   13  C   UNL     1       5.869  30.648  57.991  1.00  0.00     0.008 A 
HETATM   14  C   UNL     1       4.809  31.490  57.647  1.00  0.00     0.001 A 
HETATM   15  C   UNL     1       4.406  31.596  56.321  1.00  0.00     0.000 A 
HETATM   16  C   UNL     1       5.057  30.852  55.344  1.00  0.00     0.001 A 
HETATM   17  C   UNL     1       6.121  30.011  55.687  1.00  0.00     0.008 A 
ENDBRANCH   6  12
ENDBRANCH   3   6
ENDBRANCH   1   2
BRANCH   1  18
HETATM   18  C   UNL     1       6.035  25.208  55.507  1.00  0.00     0.084 A 
HETATM   19  N   UNL     1       6.725  24.136  55.763  1.00  0.00    -0.171 NA
HETATM   20  N   UNL     1       7.264  23.408  54.731  1.00  0.00    -0.229 N 
HETATM   21  C   UNL     1       7.186  23.794  53.392  1.00  0.00     0.275 A 
HETATM   22  O   UNL     1       7.747  23.205  52.470  1.00  0.00    -0.266 OA
HETATM   23  C   UNL     1       6.368  24.982  53.093  1.00  0.00     0.046 A 
HETATM   24  C   UNL     1       5.784  25.697  54.133  1.00  0.00     0.008 A 
HETATM   25  C   UNL     1       6.183  25.385  51.763  1.00  0.00     0.018 A 
HETATM   26  C   UNL     1       5.003  26.822  53.840  1.00  0.00     0.014 A 
HETATM   27  C   UNL     1       4.815  27.221  52.514  1.00  0.00     0.001 A 
HETATM   28  C   UNL     1       5.405  26.506  51.475  1.00  0.00     0.001 A 
BRANCH  20  29
HETATM   29  C   UNL     1       8.142  22.293  55.085  1.00  0.00     0.114 C 
HETATM   30  C   UNL     1       8.380  22.203  56.594  1.00  0.00     0.027 C 
HETATM   31  C   UNL     1       8.882  20.782  56.777  1.00  0.00     0.002 C 
HETATM   32  C   UNL     1       7.983  19.970  55.857  1.00  0.00     0.002 C 
HETATM   33  C   UNL     1       7.659  20.891  54.677  1.00  0.00     0.027 C 
ENDBRANCH  20  29
ENDBRANCH   1  18
TORSDOF 5
ENDMDL
MODEL 9
REMARK VINA RESULT:      -8.6      3.949      7.680
REMARK  5 active torsions:
REMARK  status: ('A' for Active; 'I' for Inactive)
REMARK    1  A    between atoms: C_4  and  C_5 
REMARK    2  A    between atoms: C_5  and  C_6 
REMARK       I    between atoms: C_6  and  N_7 
REMARK    3  A    between atoms: N_7  and  C_8 
REMARK    4  A    between atoms: C_8  and  C_9 
REMARK    5  A    between atoms: N_11  and  C_12 
ROOT
HETATM    1  C   UNL     1       3.123  28.872  52.649  1.00  0.00     0.184 C 
ENDROOT
BRANCH   1   2
HETATM    2  N   UNL     1       4.290  28.487  53.418  1.00  0.00    -0.354 N 
HETATM    3  C   UNL     1       4.743  27.187  53.494  1.00  0.00     0.231 C 
HETATM    4  O   UNL     1       4.172  26.268  52.909  1.00  0.00    -0.272 OA
HETATM    5  H   UNL     1       4.708  29.197  54.009  1.00  0.00     0.162 HD
BRANCH   3   6
HETATM    6  C   UNL     1       6.032  26.984  54.341  1.00  0.00     0.072 C 
HETATM    7  C   UNL     1       5.601  27.001  55.836  1.00  0.00     0.050 C 
HETATM    8  C   UNL     1       6.780  27.163  56.791  1.00  0.00     0.169 C 
HETATM    9  O   UNL     1       7.541  28.322  56.474  1.00  0.00    -0.391 OA
HETATM   10  C   UNL     1       8.083  28.260  55.158  1.00  0.00     0.169 C 
HETATM   11  C   UNL     1       6.957  28.220  54.137  1.00  0.00     0.050 C 
BRANCH   6  12
HETATM   12  C   UNL     1       6.730  25.687  53.868  1.00  0.00    -0.040 A 
HETATM   13  C   UNL     1       7.414  25.675  52.636  1.00  0.00     0.008 A 
HETATM   14  C   UNL     1       8.050  24.523  52.165  1.00  0.00     0.001 A 
HETATM   15  C   UNL     1       8.003  23.349  52.907  1.00  0.00     0.000 A 
HETATM   16  C   UNL     1       7.313  23.326  54.113  1.00  0.00     0.001 A 
HETATM   17  C   UNL     1       6.678  24.480  54.587  1.00  0.00     0.008 A 
ENDBRANCH   6  12
ENDBRANCH   3   6
ENDBRANCH   1   2
BRANCH   1  18
HETATM   18  C   UNL     1       3.590  29.283  51.257  1.00  0.00     0.084 A 
HETATM   19  N   UNL     1       3.452  28.405  50.309  1.00  0.00    -0.171 NA
HETATM   20  N   UNL     1       3.834  28.717  49.028  1.00  0.00    -0.229 N 
HETATM   21  C   UNL     1       4.450  29.919  48.678  1.00  0.00     0.275 A 
HETATM   22  O   UNL     1       4.885  30.171  47.556  1.00  0.00    -0.266 OA
HETATM   23  C   UNL     1       4.567  30.935  49.739  1.00  0.00     0.046 A 
HETATM   24  C   UNL     1       4.141  30.637  51.029  1.00  0.00     0.008 A 
HETATM   25  C   UNL     1       5.107  32.195  49.442  1.00  0.00     0.018 A 
HETATM   26  C   UNL     1       4.251  31.611  52.030  1.00  0.00     0.014 A 
HETATM   27  C   UNL     1       4.785  32.868  51.734  1.00  0.00     0.001 A 
HETATM   28  C   UNL     1       5.216  33.160  50.442  1.00  0.00     0.001 A 
BRANCH  20  29
HETATM   29  C   UNL     1       3.783  27.645  48.034  1.00  0.00     0.114 C 
HETATM   30  C   UNL     1       3.848  26.258  48.678  1.00  0.00     0.027 C 
HETATM   31  C   UNL     1       3.320  25.348  47.584  1.00  0.00     0.002 C 
HETATM   32  C   UNL     1       2.146  26.130  47.013  1.00  0.00     0.002 C 
HETATM   33  C   UNL     1       2.531  27.606  47.140  1.00  0.00     0.027 C 
ENDBRANCH  20  29
ENDBRANCH   1  18
TORSDOF 5
ENDMDL
MODEL 10
REMARK VINA RESULT:      -8.5      1.930      2.740
REMARK  5 active torsions:
REMARK  status: ('A' for Active; 'I' for Inactive)
REMARK    1  A    between atoms: C_4  and  C_5 
REMARK    2  A    between atoms: C_5  and  C_6 
REMARK       I    between atoms: C_6  and  N_7 
REMARK    3  A    between atoms: N_7  and  C_8 
REMARK    4  A    between atoms: C_8  and  C_9 
REMARK    5  A    between atoms: N_11  and  C_12 
ROOT
HETATM    1  C   UNL     1       7.871  26.440  56.702  1.00  0.00     0.184 C 
ENDROOT
BRANCH   1   2
HETATM    2  N   UNL     1       7.102  27.588  57.140  1.00  0.00    -0.354 N 
HETATM    3  C   UNL     1       7.429  28.884  56.798  1.00  0.00     0.231 C 
HETATM    4  O   UNL     1       8.406  29.141  56.098  1.00  0.00    -0.272 OA
HETATM    5  H   UNL     1       6.366  27.421  57.817  1.00  0.00     0.162 HD
BRANCH   3   6
HETATM    6  C   UNL     1       6.459  29.974  57.337  1.00  0.00     0.072 C 
HETATM    7  C   UNL     1       5.096  29.275  57.611  1.00  0.00     0.050 C 
HETATM    8  C   UNL     1       3.951  30.264  57.809  1.00  0.00     0.169 C 
HETATM    9  O   UNL     1       3.846  31.153  56.703  1.00  0.00    -0.391 OA
HETATM   10  C   UNL     1       5.030  31.925  56.525  1.00  0.00     0.169 C 
HETATM   11  C   UNL     1       6.200  31.008  56.202  1.00  0.00     0.050 C 
BRANCH   6  12
HETATM   12  C   UNL     1       7.114  30.652  58.562  1.00  0.00    -0.040 A 
HETATM   13  C   UNL     1       8.265  30.081  59.142  1.00  0.00     0.008 A 
HETATM   14  C   UNL     1       8.883  30.654  60.256  1.00  0.00     0.001 A 
HETATM   15  C   UNL     1       8.356  31.805  60.830  1.00  0.00     0.000 A 
HETATM   16  C   UNL     1       7.206  32.374  60.295  1.00  0.00     0.001 A 
HETATM   17  C   UNL     1       6.588  31.802  59.178  1.00  0.00     0.008 A 
ENDBRANCH   6  12
ENDBRANCH   3   6
ENDBRANCH   1   2
BRANCH   1  18
HETATM   18  C   UNL     1       7.236  25.907  55.423  1.00  0.00     0.084 A 
HETATM   19  N   UNL     1       6.365  26.673  54.837  1.00  0.00    -0.171 NA
HETATM   20  N   UNL     1       5.769  26.262  53.670  1.00  0.00    -0.229 N 
HETATM   21  C   UNL     1       5.983  25.009  53.094  1.00  0.00     0.275 A 
HETATM   22  O   UNL     1       5.383  24.592  52.106  1.00  0.00    -0.266 OA
HETATM   23  C   UNL     1       7.003  24.156  53.729  1.00  0.00     0.046 A 
HETATM   24  C   UNL     1       7.640  24.588  54.887  1.00  0.00     0.008 A 
HETATM   25  C   UNL     1       7.325  22.915  53.162  1.00  0.00     0.018 A 
HETATM   26  C   UNL     1       8.613  23.773  55.480  1.00  0.00     0.014 A 
HETATM   27  C   UNL     1       8.937  22.537  54.913  1.00  0.00     0.001 A 
HETATM   28  C   UNL     1       8.293  22.106  53.756  1.00  0.00     0.001 A 
BRANCH  20  29
HETATM   29  C   UNL     1       4.699  27.103  53.132  1.00  0.00     0.114 C 
HETATM   30  C   UNL     1       4.259  28.180  54.126  1.00  0.00     0.027 C 
HETATM   31  C   UNL     1       3.534  29.182  53.244  1.00  0.00     0.002 C 
HETATM   32  C   UNL     1       4.417  29.264  52.007  1.00  0.00     0.002 C 
HETATM   33  C   UNL     1       5.022  27.868  51.837  1.00  0.00     0.027 C 
ENDBRANCH  20  29
ENDBRANCH   1  18
TORSDOF 5
ENDMDL
