MODEL 1
REMARK VINA RESULT:      -8.4      0.000      0.000
REMARK  3 active torsions:
REMARK  status: ('A' for Active; 'I' for Inactive)
REMARK    1  A    between atoms: C_9  and  C_10 
REMARK    2  A    between atoms: C_16  and  C_17 
REMARK       I    between atoms: C_17  and  N_18 
REMARK    3  A    between atoms: N_18  and  C_19 
ROOT
HETATM    1  C   UNL     1       5.143  25.662  51.870  1.00  0.00     0.070 C 
HETATM    2  C   UNL     1       5.087  26.693  52.969  1.00  0.00     0.037 C 
HETATM    3  N   UNL     1       4.484  27.901  52.629  1.00  0.00    -0.191 N 
HETATM    4  C   UNL     1       4.128  28.823  53.548  1.00  0.00     0.735 A 
HETATM    5  N   UNL     1       4.508  28.653  54.850  1.00  0.00    -0.092 N 
HETATM    6  N   UNL     1       3.989  29.622  55.617  1.00  0.00     0.012 NA
HETATM    7  N   UNL     1       3.335  30.406  54.765  1.00  0.00     0.033 NA
HETATM    8  N   UNL     1       3.412  29.919  53.473  1.00  0.00     0.030 NA
HETATM    9  C   UNL     1       5.318  27.539  55.336  1.00  0.00     0.198 C 
HETATM   10  C   UNL     1       5.511  26.491  54.242  1.00  0.00     0.062 C 
HETATM   11  H   UNL     1       4.093  27.984  51.692  1.00  0.00     0.184 HD
ENDROOT
BRANCH  10  12
HETATM   12  C   UNL     1       6.079  25.208  54.731  1.00  0.00     0.256 C 
HETATM   13  N   UNL     1       7.144  24.756  53.986  1.00  0.00    -0.322 N 
HETATM   14  H   UNL     1       7.474  25.349  53.235  1.00  0.00     0.169 HD
HETATM   15  O   UNL     1       5.604  24.696  55.736  1.00  0.00    -0.267 OA
BRANCH  13  16
HETATM   16  C   UNL     1       7.821  23.528  54.154  1.00  0.00     0.052 A 
HETATM   17  C   UNL     1       8.614  23.193  55.248  1.00  0.00     0.145 A 
HETATM   18  N   UNL     1       9.232  21.992  55.401  1.00  0.00    -0.271 NA
HETATM   19  C   UNL     1       9.053  21.084  54.422  1.00  0.00     0.116 A 
HETATM   20  C   UNL     1       8.287  21.317  53.293  1.00  0.00     0.021 A 
HETATM   21  C   UNL     1       7.666  22.559  53.160  1.00  0.00     0.032 A 
ENDBRANCH  13  16
ENDBRANCH  10  12
BRANCH   9  22
HETATM   22  C   UNL     1       6.654  28.046  55.874  1.00  0.00    -0.029 A 
HETATM   23  C   UNL     1       6.924  27.964  57.250  1.00  0.00     0.009 A 
HETATM   24  C   UNL     1       8.139  28.416  57.767  1.00  0.00     0.001 A 
HETATM   25  C   UNL     1       9.105  28.949  56.915  1.00  0.00     0.000 A 
HETATM   26  C   UNL     1       8.859  29.025  55.546  1.00  0.00     0.001 A 
HETATM   27  C   UNL     1       7.646  28.572  55.026  1.00  0.00     0.009 A 
ENDBRANCH   9  22
TORSDOF 3
ENDMDL
MODEL 2
REMARK VINA RESULT:      -7.8      2.905      5.375
REMARK  3 active torsions:
REMARK  status: ('A' for Active; 'I' for Inactive)
REMARK    1  A    between atoms: C_9  and  C_10 
REMARK    2  A    between atoms: C_16  and  C_17 
REMARK       I    between atoms: C_17  and  N_18 
REMARK    3  A    between atoms: N_18  and  C_19 
ROOT
HETATM    1  C   UNL     1       4.257  29.150  54.575  1.00  0.00     0.070 C 
HETATM    2  C   UNL     1       4.603  29.287  53.113  1.00  0.00     0.037 C 
HETATM    3  N   UNL     1       4.579  30.585  52.609  1.00  0.00    -0.191 N 
HETATM    4  C   UNL     1       5.102  30.910  51.408  1.00  0.00     0.735 A 
HETATM    5  N   UNL     1       5.531  29.918  50.573  1.00  0.00    -0.092 N 
HETATM    6  N   UNL     1       6.091  30.444  49.474  1.00  0.00     0.012 NA
HETATM    7  N   UNL     1       5.953  31.758  49.627  1.00  0.00     0.033 NA
HETATM    8  N   UNL     1       5.339  32.062  50.829  1.00  0.00     0.030 NA
HETATM    9  C   UNL     1       5.441  28.491  50.869  1.00  0.00     0.198 C 
HETATM   10  C   UNL     1       4.993  28.264  52.311  1.00  0.00     0.062 C 
HETATM   11  H   UNL     1       4.375  31.338  53.262  1.00  0.00     0.184 HD
ENDROOT
BRANCH  10  12
HETATM   12  C   UNL     1       5.144  26.861  52.775  1.00  0.00     0.256 C 
HETATM   13  N   UNL     1       6.435  26.524  53.109  1.00  0.00    -0.322 N 
HETATM   14  H   UNL     1       7.133  27.256  53.070  1.00  0.00     0.169 HD
HETATM   15  O   UNL     1       4.146  26.156  52.860  1.00  0.00    -0.267 OA
BRANCH  13  16
HETATM   16  C   UNL     1       6.894  25.245  53.491  1.00  0.00     0.052 A 
HETATM   17  C   UNL     1       6.771  24.694  54.764  1.00  0.00     0.145 A 
HETATM   18  N   UNL     1       7.196  23.448  55.099  1.00  0.00    -0.271 NA
HETATM   19  C   UNL     1       7.768  22.714  54.124  1.00  0.00     0.116 A 
HETATM   20  C   UNL     1       7.940  23.168  52.828  1.00  0.00     0.021 A 
HETATM   21  C   UNL     1       7.498  24.453  52.511  1.00  0.00     0.032 A 
ENDBRANCH  13  16
ENDBRANCH  10  12
BRANCH   9  22
HETATM   22  C   UNL     1       4.515  27.797  49.873  1.00  0.00    -0.029 A 
HETATM   23  C   UNL     1       3.213  28.287  49.679  1.00  0.00     0.009 A 
HETATM   24  C   UNL     1       2.348  27.673  48.772  1.00  0.00     0.001 A 
HETATM   25  C   UNL     1       2.774  26.566  48.041  1.00  0.00     0.000 A 
HETATM   26  C   UNL     1       4.067  26.075  48.211  1.00  0.00     0.001 A 
HETATM   27  C   UNL     1       4.934  26.688  49.115  1.00  0.00     0.009 A 
ENDBRANCH   9  22
TORSDOF 3
ENDMDL
MODEL 3
REMARK VINA RESULT:      -7.0      3.310      6.284
REMARK  3 active torsions:
REMARK  status: ('A' for Active; 'I' for Inactive)
REMARK    1  A    between atoms: C_9  and  C_10 
REMARK    2  A    between atoms: C_16  and  C_17 
REMARK       I    between atoms: C_17  and  N_18 
REMARK    3  A    between atoms: N_18  and  C_19 
ROOT
HETATM    1  C   UNL     1       6.251  25.639  51.737  1.00  0.00     0.070 C 
HETATM    2  C   UNL     1       5.462  26.644  50.935  1.00  0.00     0.037 C 
HETATM    3  N   UNL     1       5.406  26.407  49.564  1.00  0.00    -0.191 N 
HETATM    4  C   UNL     1       4.546  27.052  48.748  1.00  0.00     0.735 A 
HETATM    5  N   UNL     1       3.808  28.092  49.239  1.00  0.00    -0.092 N 
HETATM    6  N   UNL     1       2.958  28.542  48.304  1.00  0.00     0.012 NA
HETATM    7  N   UNL     1       3.223  27.802  47.231  1.00  0.00     0.033 NA
HETATM    8  N   UNL     1       4.209  26.869  47.494  1.00  0.00     0.030 NA
HETATM    9  C   UNL     1       3.897  28.597  50.606  1.00  0.00     0.198 C 
HETATM   10  C   UNL     1       4.771  27.684  51.465  1.00  0.00     0.062 C 
HETATM   11  H   UNL     1       5.857  25.564  49.214  1.00  0.00     0.184 HD
ENDROOT
BRANCH  10  12
HETATM   12  C   UNL     1       4.688  27.967  52.921  1.00  0.00     0.256 C 
HETATM   13  N   UNL     1       5.859  28.449  53.458  1.00  0.00    -0.322 N 
HETATM   14  H   UNL     1       6.628  28.623  52.823  1.00  0.00     0.169 HD
HETATM   15  O   UNL     1       3.621  27.795  53.496  1.00  0.00    -0.267 OA
BRANCH  13  16
HETATM   16  C   UNL     1       6.106  28.716  54.822  1.00  0.00     0.052 A 
HETATM   17  C   UNL     1       5.607  29.807  55.530  1.00  0.00     0.145 A 
HETATM   18  N   UNL     1       5.835  30.026  56.852  1.00  0.00    -0.271 NA
HETATM   19  C   UNL     1       6.593  29.119  57.500  1.00  0.00     0.116 A 
HETATM   20  C   UNL     1       7.138  28.003  56.890  1.00  0.00     0.021 A 
HETATM   21  C   UNL     1       6.891  27.803  55.531  1.00  0.00     0.032 A 
ENDBRANCH  13  16
ENDBRANCH  10  12
BRANCH   9  22
HETATM   22  C   UNL     1       4.407  30.036  50.612  1.00  0.00    -0.029 A 
HETATM   23  C   UNL     1       5.594  30.354  49.931  1.00  0.00     0.009 A 
HETATM   24  C   UNL     1       6.079  31.662  49.918  1.00  0.00     0.001 A 
HETATM   25  C   UNL     1       5.381  32.673  50.577  1.00  0.00     0.000 A 
HETATM   26  C   UNL     1       4.194  32.377  51.244  1.00  0.00     0.001 A 
HETATM   27  C   UNL     1       3.706  31.071  51.258  1.00  0.00     0.009 A 
ENDBRANCH   9  22
TORSDOF 3
ENDMDL
MODEL 4
REMARK VINA RESULT:      -6.9      4.067      6.881
REMARK  3 active torsions:
REMARK  status: ('A' for Active; 'I' for Inactive)
REMARK    1  A    between atoms: C_9  and  C_10 
REMARK    2  A    between atoms: C_16  and  C_17 
REMARK       I    between atoms: C_17  and  N_18 
REMARK    3  A    between atoms: N_18  and  C_19 
ROOT
HETATM    1  C   UNL     1       3.111  30.803  52.807  1.00  0.00     0.070 C 
HETATM    2  C   UNL     1       3.179  30.602  51.313  1.00  0.00     0.037 C 
HETATM    3  N   UNL     1       2.402  31.475  50.554  1.00  0.00    -0.191 N 
HETATM    4  C   UNL     1       2.540  31.599  49.218  1.00  0.00     0.735 A 
HETATM    5  N   UNL     1       3.355  30.732  48.545  1.00  0.00    -0.092 N 
HETATM    6  N   UNL     1       3.425  31.070  47.249  1.00  0.00     0.012 NA
HETATM    7  N   UNL     1       2.610  32.115  47.133  1.00  0.00     0.033 NA
HETATM    8  N   UNL     1       2.054  32.455  48.353  1.00  0.00     0.030 NA
HETATM    9  C   UNL     1       4.086  29.631  49.167  1.00  0.00     0.198 C 
HETATM   10  C   UNL     1       3.980  29.702  50.689  1.00  0.00     0.062 C 
HETATM   11  H   UNL     1       1.887  32.198  51.052  1.00  0.00     0.184 HD
ENDROOT
BRANCH  10  12
HETATM   12  C   UNL     1       4.915  28.794  51.401  1.00  0.00     0.256 C 
HETATM   13  N   UNL     1       4.321  27.646  51.871  1.00  0.00    -0.322 N 
HETATM   14  H   UNL     1       3.346  27.498  51.643  1.00  0.00     0.169 HD
HETATM   15  O   UNL     1       6.097  29.104  51.475  1.00  0.00    -0.267 OA
BRANCH  13  16
HETATM   16  C   UNL     1       4.935  26.650  52.661  1.00  0.00     0.052 A 
HETATM   17  C   UNL     1       5.187  26.750  54.027  1.00  0.00     0.145 A 
HETATM   18  N   UNL     1       5.754  25.765  54.772  1.00  0.00    -0.271 NA
HETATM   19  C   UNL     1       6.084  24.627  54.129  1.00  0.00     0.116 A 
HETATM   20  C   UNL     1       5.879  24.427  52.775  1.00  0.00     0.021 A 
HETATM   21  C   UNL     1       5.299  25.456  52.034  1.00  0.00     0.032 A 
ENDBRANCH  13  16
ENDBRANCH  10  12
BRANCH   9  22
HETATM   22  C   UNL     1       3.593  28.291  48.628  1.00  0.00    -0.029 A 
HETATM   23  C   UNL     1       2.213  28.032  48.569  1.00  0.00     0.009 A 
HETATM   24  C   UNL     1       1.737  26.816  48.076  1.00  0.00     0.001 A 
HETATM   25  C   UNL     1       2.630  25.845  47.630  1.00  0.00     0.000 A 
HETATM   26  C   UNL     1       4.001  26.091  47.667  1.00  0.00     0.001 A 
HETATM   27  C   UNL     1       4.481  27.306  48.157  1.00  0.00     0.009 A 
ENDBRANCH   9  22
TORSDOF 3
ENDMDL
MODEL 5
REMARK VINA RESULT:      -6.9      3.210      6.054
REMARK  3 active torsions:
REMARK  status: ('A' for Active; 'I' for Inactive)
REMARK    1  A    between atoms: C_9  and  C_10 
REMARK    2  A    between atoms: C_16  and  C_17 
REMARK       I    between atoms: C_17  and  N_18 
REMARK    3  A    between atoms: N_18  and  C_19 
ROOT
HETATM    1  C   UNL     1       3.216  31.216  54.099  1.00  0.00     0.070 C 
HETATM    2  C   UNL     1       3.924  30.913  52.801  1.00  0.00     0.037 C 
HETATM    3  N   UNL     1       4.166  32.011  51.980  1.00  0.00    -0.191 N 
HETATM    4  C   UNL     1       5.000  31.958  50.920  1.00  0.00     0.735 A 
HETATM    5  N   UNL     1       5.511  30.752  50.529  1.00  0.00    -0.092 N 
HETATM    6  N   UNL     1       6.377  30.920  49.519  1.00  0.00     0.012 NA
HETATM    7  N   UNL     1       6.350  32.226  49.270  1.00  0.00     0.033 NA
HETATM    8  N   UNL     1       5.497  32.885  50.137  1.00  0.00     0.030 NA
HETATM    9  C   UNL     1       5.195  29.475  51.163  1.00  0.00     0.198 C 
HETATM   10  C   UNL     1       4.384  29.689  52.439  1.00  0.00     0.062 C 
HETATM   11  H   UNL     1       3.890  32.928  52.327  1.00  0.00     0.184 HD
ENDROOT
BRANCH  10  12
HETATM   12  C   UNL     1       4.262  28.476  53.286  1.00  0.00     0.256 C 
HETATM   13  N   UNL     1       5.383  28.212  54.039  1.00  0.00    -0.322 N 
HETATM   14  H   UNL     1       6.141  28.881  53.998  1.00  0.00     0.169 HD
HETATM   15  O   UNL     1       3.206  27.855  53.281  1.00  0.00    -0.267 OA
BRANCH  13  16
HETATM   16  C   UNL     1       5.591  27.083  54.862  1.00  0.00     0.052 A 
HETATM   17  C   UNL     1       6.222  25.907  54.466  1.00  0.00     0.145 A 
HETATM   18  N   UNL     1       6.436  24.844  55.285  1.00  0.00    -0.271 NA
HETATM   19  C   UNL     1       6.005  24.957  56.556  1.00  0.00     0.116 A 
HETATM   20  C   UNL     1       5.364  26.080  57.050  1.00  0.00     0.021 A 
HETATM   21  C   UNL     1       5.154  27.155  56.186  1.00  0.00     0.032 A 
ENDBRANCH  13  16
ENDBRANCH  10  12
BRANCH   9  22
HETATM   22  C   UNL     1       4.472  28.556  50.181  1.00  0.00    -0.029 A 
HETATM   23  C   UNL     1       5.036  27.314  49.850  1.00  0.00     0.009 A 
HETATM   24  C   UNL     1       4.393  26.453  48.959  1.00  0.00     0.001 A 
HETATM   25  C   UNL     1       3.174  26.819  48.392  1.00  0.00     0.000 A 
HETATM   26  C   UNL     1       2.593  28.042  48.721  1.00  0.00     0.001 A 
HETATM   27  C   UNL     1       3.232  28.903  49.613  1.00  0.00     0.009 A 
ENDBRANCH   9  22
TORSDOF 3
ENDMDL
MODEL 6
REMARK VINA RESULT:      -6.8      2.221      3.990
REMARK  3 active torsions:
REMARK  status: ('A' for Active; 'I' for Inactive)
REMARK    1  A    between atoms: C_9  and  C_10 
REMARK    2  A    between atoms: C_16  and  C_17 
REMARK       I    between atoms: C_17  and  N_18 
REMARK    3  A    between atoms: N_18  and  C_19 
ROOT
HETATM    1  C   UNL     1       4.881  26.416  57.151  1.00  0.00     0.070 C 
HETATM    2  C   UNL     1       4.755  27.636  56.272  1.00  0.00     0.037 C 
HETATM    3  N   UNL     1       3.894  28.625  56.739  1.00  0.00    -0.191 N 
HETATM    4  C   UNL     1       3.860  29.869  56.215  1.00  0.00     0.735 A 
HETATM    5  N   UNL     1       4.575  30.138  55.082  1.00  0.00    -0.092 N 
HETATM    6  N   UNL     1       4.481  31.439  54.770  1.00  0.00     0.012 NA
HETATM    7  N   UNL     1       3.665  31.943  55.692  1.00  0.00     0.033 NA
HETATM    8  N   UNL     1       3.273  30.976  56.599  1.00  0.00     0.030 NA
HETATM    9  C   UNL     1       5.372  29.155  54.353  1.00  0.00     0.198 C 
HETATM   10  C   UNL     1       5.462  27.845  55.133  1.00  0.00     0.062 C 
HETATM   11  H   UNL     1       3.452  28.475  57.644  1.00  0.00     0.184 HD
ENDROOT
BRANCH  10  12
HETATM   12  C   UNL     1       6.475  26.896  54.603  1.00  0.00     0.256 C 
HETATM   13  N   UNL     1       6.003  25.613  54.448  1.00  0.00    -0.322 N 
HETATM   14  H   UNL     1       5.023  25.449  54.643  1.00  0.00     0.169 HD
HETATM   15  O   UNL     1       7.588  27.318  54.318  1.00  0.00    -0.267 OA
BRANCH  13  16
HETATM   16  C   UNL     1       6.757  24.486  54.055  1.00  0.00     0.052 A 
HETATM   17  C   UNL     1       7.193  24.224  52.758  1.00  0.00     0.145 A 
HETATM   18  N   UNL     1       7.943  23.146  52.410  1.00  0.00    -0.271 NA
HETATM   19  C   UNL     1       8.277  22.290  53.396  1.00  0.00     0.116 A 
HETATM   20  C   UNL     1       7.894  22.457  54.715  1.00  0.00     0.021 A 
HETATM   21  C   UNL     1       7.121  23.570  55.045  1.00  0.00     0.032 A 
ENDBRANCH  13  16
ENDBRANCH  10  12
BRANCH   9  22
HETATM   22  C   UNL     1       4.803  28.939  52.953  1.00  0.00    -0.029 A 
HETATM   23  C   UNL     1       5.672  28.902  51.850  1.00  0.00     0.009 A 
HETATM   24  C   UNL     1       5.178  28.702  50.559  1.00  0.00     0.001 A 
HETATM   25  C   UNL     1       3.811  28.530  50.354  1.00  0.00     0.000 A 
HETATM   26  C   UNL     1       2.937  28.550  51.439  1.00  0.00     0.001 A 
HETATM   27  C   UNL     1       3.428  28.747  52.729  1.00  0.00     0.009 A 
ENDBRANCH   9  22
TORSDOF 3
ENDMDL
MODEL 7
REMARK VINA RESULT:      -6.5     15.624     18.181
REMARK  3 active torsions:
REMARK  status: ('A' for Active; 'I' for Inactive)
REMARK    1  A    between atoms: C_9  and  C_10 
REMARK    2  A    between atoms: C_16  and  C_17 
REMARK       I    between atoms: C_17  and  N_18 
REMARK    3  A    between atoms: N_18  and  C_19 
ROOT
HETATM    1  C   UNL     1      12.702  13.162  50.285  1.00  0.00     0.070 C 
HETATM    2  C   UNL     1      12.609  12.366  51.564  1.00  0.00     0.037 C 
HETATM    3  N   UNL     1      11.599  12.754  52.440  1.00  0.00    -0.191 N 
HETATM    4  C   UNL     1      11.219  12.001  53.493  1.00  0.00     0.735 A 
HETATM    5  N   UNL     1      11.946  10.891  53.821  1.00  0.00    -0.092 N 
HETATM    6  N   UNL     1      11.363  10.236  54.835  1.00  0.00     0.012 NA
HETATM    7  N   UNL     1      10.308  10.982  55.151  1.00  0.00     0.033 NA
HETATM    8  N   UNL     1      10.206  12.084  54.321  1.00  0.00     0.030 NA
HETATM    9  C   UNL     1      13.154  10.458  53.124  1.00  0.00     0.198 C 
HETATM   10  C   UNL     1      13.379  11.289  51.862  1.00  0.00     0.062 C 
HETATM   11  H   UNL     1      10.981  13.506  52.141  1.00  0.00     0.184 HD
ENDROOT
BRANCH  10  12
HETATM   12  C   UNL     1      14.417  10.737  50.954  1.00  0.00     0.256 C 
HETATM   13  N   UNL     1      14.015   9.610  50.276  1.00  0.00    -0.322 N 
HETATM   14  H   UNL     1      13.059   9.303  50.404  1.00  0.00     0.169 HD
HETATM   15  O   UNL     1      15.486  11.325  50.853  1.00  0.00    -0.267 OA
BRANCH  13  16
HETATM   16  C   UNL     1      14.814   8.819  49.421  1.00  0.00     0.052 A 
HETATM   17  C   UNL     1      16.200   8.703  49.497  1.00  0.00     0.145 A 
HETATM   18  N   UNL     1      16.944   7.912  48.681  1.00  0.00    -0.271 NA
HETATM   19  C   UNL     1      16.281   7.204  47.746  1.00  0.00     0.116 A 
HETATM   20  C   UNL     1      14.907   7.249  47.585  1.00  0.00     0.021 A 
HETATM   21  C   UNL     1      14.167   8.071  48.434  1.00  0.00     0.032 A 
ENDBRANCH  13  16
ENDBRANCH  10  12
BRANCH   9  22
HETATM   22  C   UNL     1      14.359  10.513  54.059  1.00  0.00    -0.029 A 
HETATM   23  C   UNL     1      15.182   9.383  54.196  1.00  0.00     0.009 A 
HETATM   24  C   UNL     1      16.293   9.409  55.042  1.00  0.00     0.001 A 
HETATM   25  C   UNL     1      16.600  10.565  55.755  1.00  0.00     0.000 A 
HETATM   26  C   UNL     1      15.803  11.700  55.619  1.00  0.00     0.001 A 
HETATM   27  C   UNL     1      14.693  11.678  54.774  1.00  0.00     0.009 A 
ENDBRANCH   9  22
TORSDOF 3
ENDMDL
MODEL 8
REMARK VINA RESULT:      -6.5      4.172      7.522
REMARK  3 active torsions:
REMARK  status: ('A' for Active; 'I' for Inactive)
REMARK    1  A    between atoms: C_9  and  C_10 
REMARK    2  A    between atoms: C_16  and  C_17 
REMARK       I    between atoms: C_17  and  N_18 
REMARK    3  A    between atoms: N_18  and  C_19 
ROOT
HETATM    1  C   UNL     1       5.665  25.948  51.022  1.00  0.00     0.070 C 
HETATM    2  C   UNL     1       4.633  26.749  50.267  1.00  0.00     0.037 C 
HETATM    3  N   UNL     1       4.090  26.123  49.147  1.00  0.00    -0.191 N 
HETATM    4  C   UNL     1       2.990  26.585  48.516  1.00  0.00     0.735 A 
HETATM    5  N   UNL     1       2.470  27.796  48.876  1.00  0.00    -0.092 N 
HETATM    6  N   UNL     1       1.338  28.037  48.198  1.00  0.00     0.012 NA
HETATM    7  N   UNL     1       1.205  26.988  47.390  1.00  0.00     0.033 NA
HETATM    8  N   UNL     1       2.227  26.075  47.580  1.00  0.00     0.030 NA
HETATM    9  C   UNL     1       3.040  28.671  49.897  1.00  0.00     0.198 C 
HETATM   10  C   UNL     1       4.170  27.967  50.644  1.00  0.00     0.062 C 
HETATM   11  H   UNL     1       4.393  25.172  48.948  1.00  0.00     0.184 HD
ENDROOT
BRANCH  10  12
HETATM   12  C   UNL     1       4.614  28.675  51.872  1.00  0.00     0.256 C 
HETATM   13  N   UNL     1       3.763  28.513  52.942  1.00  0.00    -0.322 N 
HETATM   14  H   UNL     1       2.971  27.896  52.819  1.00  0.00     0.169 HD
HETATM   15  O   UNL     1       5.674  29.287  51.851  1.00  0.00    -0.267 OA
BRANCH  13  16
HETATM   16  C   UNL     1       3.876  29.140  54.202  1.00  0.00     0.052 A 
HETATM   17  C   UNL     1       4.327  28.524  55.367  1.00  0.00     0.145 A 
HETATM   18  N   UNL     1       4.455  29.157  56.563  1.00  0.00    -0.271 NA
HETATM   19  C   UNL     1       4.118  30.462  56.602  1.00  0.00     0.116 A 
HETATM   20  C   UNL     1       3.657  31.166  55.504  1.00  0.00     0.021 A 
HETATM   21  C   UNL     1       3.533  30.491  54.289  1.00  0.00     0.032 A 
ENDBRANCH  13  16
ENDBRANCH  10  12
BRANCH   9  22
HETATM   22  C   UNL     1       3.507  29.984  49.273  1.00  0.00    -0.029 A 
HETATM   23  C   UNL     1       2.998  31.201  49.756  1.00  0.00     0.009 A 
HETATM   24  C   UNL     1       3.412  32.415  49.206  1.00  0.00     0.001 A 
HETATM   25  C   UNL     1       4.346  32.431  48.172  1.00  0.00     0.000 A 
HETATM   26  C   UNL     1       4.872  31.234  47.691  1.00  0.00     0.001 A 
HETATM   27  C   UNL     1       4.462  30.019  48.240  1.00  0.00     0.009 A 
ENDBRANCH   9  22
TORSDOF 3
ENDMDL
MODEL 9
REMARK VINA RESULT:      -6.4     15.689     18.512
REMARK  3 active torsions:
REMARK  status: ('A' for Active; 'I' for Inactive)
REMARK    1  A    between atoms: C_9  and  C_10 
REMARK    2  A    between atoms: C_16  and  C_17 
REMARK       I    between atoms: C_17  and  N_18 
REMARK    3  A    between atoms: N_18  and  C_19 
ROOT
HETATM    1  C   UNL     1      13.589  12.001  49.968  1.00  0.00     0.070 C 
HETATM    2  C   UNL     1      13.225  11.625  51.384  1.00  0.00     0.037 C 
HETATM    3  N   UNL     1      12.284  12.447  51.999  1.00  0.00    -0.191 N 
HETATM    4  C   UNL     1      11.667  12.111  53.152  1.00  0.00     0.735 A 
HETATM    5  N   UNL     1      12.082  11.004  53.837  1.00  0.00    -0.092 N 
HETATM    6  N   UNL     1      11.295  10.793  54.902  1.00  0.00     0.012 NA
HETATM    7  N   UNL     1      10.433  11.806  54.884  1.00  0.00     0.033 NA
HETATM    8  N   UNL     1      10.652  12.634  53.798  1.00  0.00     0.030 NA
HETATM    9  C   UNL     1      13.192  10.147  53.429  1.00  0.00     0.198 C 
HETATM   10  C   UNL     1      13.691  10.532  52.038  1.00  0.00     0.062 C 
HETATM   11  H   UNL     1      11.886  13.203  51.445  1.00  0.00     0.184 HD
ENDROOT
BRANCH  10  12
HETATM   12  C   UNL     1      14.621   9.543  51.437  1.00  0.00     0.256 C 
HETATM   13  N   UNL     1      15.947   9.899  51.534  1.00  0.00    -0.322 N 
HETATM   14  H   UNL     1      16.167  10.745  52.045  1.00  0.00     0.169 HD
HETATM   15  O   UNL     1      14.161   8.513  50.959  1.00  0.00    -0.267 OA
BRANCH  13  16
HETATM   16  C   UNL     1      17.042   9.206  50.974  1.00  0.00     0.052 A 
HETATM   17  C   UNL     1      17.583   9.444  49.713  1.00  0.00     0.145 A 
HETATM   18  N   UNL     1      18.658   8.782  49.208  1.00  0.00    -0.271 NA
HETATM   19  C   UNL     1      19.220   7.842  49.993  1.00  0.00     0.116 A 
HETATM   20  C   UNL     1      18.759   7.527  51.259  1.00  0.00     0.021 A 
HETATM   21  C   UNL     1      17.652   8.219  51.752  1.00  0.00     0.032 A 
ENDBRANCH  13  16
ENDBRANCH  10  12
BRANCH   9  22
HETATM   22  C   UNL     1      14.312  10.195  54.465  1.00  0.00    -0.029 A 
HETATM   23  C   UNL     1      14.917  11.424  54.776  1.00  0.00     0.009 A 
HETATM   24  C   UNL     1      15.940  11.495  55.723  1.00  0.00     0.001 A 
HETATM   25  C   UNL     1      16.369  10.342  56.376  1.00  0.00     0.000 A 
HETATM   26  C   UNL     1      15.770   9.117  56.090  1.00  0.00     0.001 A 
HETATM   27  C   UNL     1      14.745   9.042  55.146  1.00  0.00     0.009 A 
ENDBRANCH   9  22
TORSDOF 3
ENDMDL
MODEL 10
REMARK VINA RESULT:      -6.3     16.979     19.539
REMARK  3 active torsions:
REMARK  status: ('A' for Active; 'I' for Inactive)
REMARK    1  A    between atoms: C_9  and  C_10 
REMARK    2  A    between atoms: C_16  and  C_17 
REMARK       I    between atoms: C_17  and  N_18 
REMARK    3  A    between atoms: N_18  and  C_19 
ROOT
HETATM    1  C   UNL     1      17.746   9.014  50.011  1.00  0.00     0.070 C 
HETATM    2  C   UNL     1      16.238   9.020  50.051  1.00  0.00     0.037 C 
HETATM    3  N   UNL     1      15.605   8.515  48.918  1.00  0.00    -0.191 N 
HETATM    4  C   UNL     1      14.290   8.215  48.890  1.00  0.00     0.735 A 
HETATM    5  N   UNL     1      13.501   8.563  49.951  1.00  0.00    -0.092 N 
HETATM    6  N   UNL     1      12.253   8.107  49.772  1.00  0.00     0.012 NA
HETATM    7  N   UNL     1      12.279   7.526  48.576  1.00  0.00     0.033 NA
HETATM    8  N   UNL     1      13.543   7.585  48.016  1.00  0.00     0.030 NA
HETATM    9  C   UNL     1      13.972   9.280  51.133  1.00  0.00     0.198 C 
HETATM   10  C   UNL     1      15.494   9.408  51.117  1.00  0.00     0.062 C 
HETATM   11  H   UNL     1      16.196   8.145  48.175  1.00  0.00     0.184 HD
ENDROOT
BRANCH  10  12
HETATM   12  C   UNL     1      16.073   9.871  52.404  1.00  0.00     0.256 C 
HETATM   13  N   UNL     1      16.106   8.899  53.377  1.00  0.00    -0.322 N 
HETATM   14  H   UNL     1      15.802   7.969  53.119  1.00  0.00     0.169 HD
HETATM   15  O   UNL     1      16.494  11.018  52.484  1.00  0.00    -0.267 OA
BRANCH  13  16
HETATM   16  C   UNL     1      16.512   9.071  54.719  1.00  0.00     0.052 A 
HETATM   17  C   UNL     1      17.229   8.141  55.467  1.00  0.00     0.145 A 
HETATM   18  N   UNL     1      17.634   8.343  56.748  1.00  0.00    -0.271 NA
HETATM   19  C   UNL     1      17.311   9.524  57.312  1.00  0.00     0.116 A 
HETATM   20  C   UNL     1      16.600  10.514  56.657  1.00  0.00     0.021 A 
HETATM   21  C   UNL     1      16.194  10.280  55.343  1.00  0.00     0.032 A 
ENDBRANCH  13  16
ENDBRANCH  10  12
BRANCH   9  22
HETATM   22  C   UNL     1      13.291  10.641  51.238  1.00  0.00    -0.029 A 
HETATM   23  C   UNL     1      12.459  10.918  52.335  1.00  0.00     0.009 A 
HETATM   24  C   UNL     1      11.827  12.157  52.457  1.00  0.00     0.001 A 
HETATM   25  C   UNL     1      12.025  13.139  51.489  1.00  0.00     0.000 A 
HETATM   26  C   UNL     1      12.859  12.887  50.402  1.00  0.00     0.001 A 
HETATM   27  C   UNL     1      13.493  11.650  50.279  1.00  0.00     0.009 A 
ENDBRANCH   9  22
TORSDOF 3
ENDMDL
