MODEL 1
REMARK VINA RESULT:     -11.0      0.000      0.000
REMARK  6 active torsions:
REMARK  status: ('A' for Active; 'I' for Inactive)
REMARK       I    between atoms: N_1  and  C_2 
REMARK    1  A    between atoms: C_2  and  C_4 
REMARK    2  A    between atoms: C_9  and  C_13 
REMARK       I    between atoms: C_13  and  N_15 
REMARK    3  A    between atoms: C_19  and  C_20 
REMARK    4  A    between atoms: C_24  and  C_26 
REMARK       I    between atoms: C_26  and  N_28 
REMARK    5  A    between atoms: N_28  and  C_29 
REMARK    6  A    between atoms: C_34  and  N_38 
ROOT
HETATM    1  C   UNL     1       8.025  28.281  57.016  1.00  0.00    -0.034 A 
HETATM    2  C   UNL     1       9.401  28.554  57.107  1.00  0.00     0.009 A 
HETATM    3  C   UNL     1       9.863  29.735  57.693  1.00  0.00     0.002 A 
HETATM    4  C   UNL     1       8.957  30.669  58.190  1.00  0.00     0.017 A 
HETATM    5  C   UNL     1       7.583  30.416  58.099  1.00  0.00     0.033 A 
HETATM    6  C   UNL     1       7.121  29.221  57.537  1.00  0.00     0.026 A 
ENDROOT
BRANCH   1   7
HETATM    7  C   UNL     1       7.569  26.982  56.368  1.00  0.00     0.120 C 
HETATM    8  N   UNL     1       6.662  27.175  55.243  1.00  0.00    -0.338 N 
HETATM    9  C   UNL     1       7.135  27.626  54.019  1.00  0.00     0.274 C 
HETATM   10  C   UNL     1       5.314  26.725  55.559  1.00  0.00     0.127 C 
HETATM   11  O   UNL     1       8.315  27.949  53.869  1.00  0.00    -0.266 OA
HETATM   12  C   UNL     1       5.324  26.481  57.063  1.00  0.00     0.022 C 
HETATM   13  C   UNL     1       6.773  26.102  57.340  1.00  0.00     0.032 C 
BRANCH   9  14
HETATM   14  C   UNL     1       6.194  27.733  52.892  1.00  0.00     0.142 A 
HETATM   15  N   UNL     1       5.296  28.766  52.670  1.00  0.00    -0.224 NA
HETATM   16  C   UNL     1       4.644  28.450  51.572  1.00  0.00     0.134 A 
HETATM   17  C   UNL     1       3.600  29.114  50.872  1.00  0.00     0.052 A 
HETATM   18  N   UNL     1       5.087  27.241  51.050  1.00  0.00    -0.314 N 
HETATM   19  C   UNL     1       3.105  28.570  49.742  1.00  0.00     0.022 A 
HETATM   20  C   UNL     1       3.622  27.313  49.199  1.00  0.00     0.047 A 
HETATM   21  C   UNL     1       4.590  26.670  49.882  1.00  0.00     0.115 A 
HETATM   22  C   UNL     1       6.058  26.779  51.895  1.00  0.00     0.135 A 
BRANCH  20  23
HETATM   23  C   UNL     1       3.030  26.749  47.951  1.00  0.00     0.250 C 
HETATM   24  N   UNL     1       1.683  26.552  47.959  1.00  0.00    -0.366 N 
HETATM   25  H   UNL     1       1.289  26.085  47.152  1.00  0.00     0.159 HD
HETATM   26  H   UNL     1       1.118  26.616  48.793  1.00  0.00     0.159 HD
HETATM   27  O   UNL     1       3.714  26.428  46.989  1.00  0.00    -0.268 OA
ENDBRANCH  20  23
ENDBRANCH   9  14
ENDBRANCH   1   7
BRANCH   5  28
HETATM   28  C   UNL     1       6.584  31.398  58.598  1.00  0.00     0.257 C 
HETATM   29  O   UNL     1       5.795  31.883  57.799  1.00  0.00    -0.267 OA
HETATM   30  N   UNL     1       6.707  31.672  59.938  1.00  0.00    -0.301 N 
HETATM   31  H   UNL     1       7.474  31.296  60.475  1.00  0.00     0.171 HD
BRANCH  30  32
HETATM   32  C   UNL     1       5.828  32.468  60.614  1.00  0.00     0.174 A 
HETATM   33  N   UNL     1       4.540  32.332  60.801  1.00  0.00    -0.228 NA
HETATM   34  C   UNL     1       4.094  33.343  61.623  1.00  0.00     0.050 A 
HETATM   35  C   UNL     1       2.677  33.399  62.078  1.00  0.00     0.062 C 
HETATM   36  C   UNL     1       5.069  34.216  62.054  1.00  0.00     0.013 A 
HETATM   37  C   UNL     1       2.414  34.565  63.055  1.00  0.00     0.031 C 
HETATM   38  C   UNL     1       3.627  35.031  63.923  1.00  0.00     0.084 C 
HETATM   39  C   UNL     1       4.844  35.337  62.999  1.00  0.00     0.073 C 
HETATM   40  S   UNL     1       6.571  33.816  61.367  1.00  0.00    -0.055 SA
BRANCH  38  41
HETATM   41  N   UNL     1       3.857  34.269  65.165  1.00  0.00    -0.404 N 
HETATM   42  C   UNL     1       5.039  33.418  65.332  1.00  0.00     0.143 C 
HETATM   43  C   UNL     1       6.229  34.102  66.019  1.00  0.00     0.187 C 
HETATM   44  O   UNL     1       5.842  34.655  67.285  1.00  0.00    -0.388 OA
HETATM   45  C   UNL     1       4.780  35.600  67.112  1.00  0.00     0.187 C 
HETATM   46  C   UNL     1       3.554  34.965  66.428  1.00  0.00     0.143 C 
ENDBRANCH  38  41
ENDBRANCH  30  32
ENDBRANCH   5  28
TORSDOF 6
ENDMDL
MODEL 2
REMARK VINA RESULT:     -10.9      3.608      5.049
REMARK  6 active torsions:
REMARK  status: ('A' for Active; 'I' for Inactive)
REMARK       I    between atoms: N_1  and  C_2 
REMARK    1  A    between atoms: C_2  and  C_4 
REMARK    2  A    between atoms: C_9  and  C_13 
REMARK       I    between atoms: C_13  and  N_15 
REMARK    3  A    between atoms: C_19  and  C_20 
REMARK    4  A    between atoms: C_24  and  C_26 
REMARK       I    between atoms: C_26  and  N_28 
REMARK    5  A    between atoms: N_28  and  C_29 
REMARK    6  A    between atoms: C_34  and  N_38 
ROOT
HETATM    1  C   UNL     1       7.293  29.687  57.566  1.00  0.00    -0.034 A 
HETATM    2  C   UNL     1       8.538  29.628  56.913  1.00  0.00     0.009 A 
HETATM    3  C   UNL     1       9.648  30.308  57.419  1.00  0.00     0.002 A 
HETATM    4  C   UNL     1       9.532  31.066  58.582  1.00  0.00     0.017 A 
HETATM    5  C   UNL     1       8.298  31.141  59.239  1.00  0.00     0.033 A 
HETATM    6  C   UNL     1       7.193  30.438  58.748  1.00  0.00     0.026 A 
ENDROOT
BRANCH   1   7
HETATM    7  C   UNL     1       6.112  28.931  56.976  1.00  0.00     0.120 C 
HETATM    8  N   UNL     1       6.498  27.786  56.159  1.00  0.00    -0.338 N 
HETATM    9  C   UNL     1       6.961  26.617  56.747  1.00  0.00     0.274 C 
HETATM   10  C   UNL     1       6.214  28.015  54.750  1.00  0.00     0.127 C 
HETATM   11  O   UNL     1       7.130  26.538  57.965  1.00  0.00    -0.266 OA
HETATM   12  C   UNL     1       5.873  29.496  54.653  1.00  0.00     0.022 C 
HETATM   13  C   UNL     1       5.285  29.804  56.024  1.00  0.00     0.032 C 
BRANCH   9  14
HETATM   14  C   UNL     1       7.266  25.464  55.884  1.00  0.00     0.142 A 
HETATM   15  N   UNL     1       7.156  25.423  54.503  1.00  0.00    -0.224 NA
HETATM   16  C   UNL     1       7.506  24.206  54.147  1.00  0.00     0.134 A 
HETATM   17  C   UNL     1       7.571  23.579  52.873  1.00  0.00     0.052 A 
HETATM   18  N   UNL     1       7.856  23.437  55.249  1.00  0.00    -0.314 N 
HETATM   19  C   UNL     1       7.982  22.299  52.781  1.00  0.00     0.022 A 
HETATM   20  C   UNL     1       8.381  21.529  53.961  1.00  0.00     0.047 A 
HETATM   21  C   UNL     1       8.288  22.116  55.170  1.00  0.00     0.115 A 
HETATM   22  C   UNL     1       7.689  24.229  56.352  1.00  0.00     0.135 A 
BRANCH  20  23
HETATM   23  C   UNL     1       8.817  20.111  53.804  1.00  0.00     0.250 C 
HETATM   24  N   UNL     1       9.102  19.438  54.953  1.00  0.00    -0.366 N 
HETATM   25  H   UNL     1       9.486  18.507  54.849  1.00  0.00     0.159 HD
HETATM   26  H   UNL     1       9.184  19.887  55.852  1.00  0.00     0.159 HD
HETATM   27  O   UNL     1       8.965  19.588  52.708  1.00  0.00    -0.268 OA
ENDBRANCH  20  23
ENDBRANCH   9  14
ENDBRANCH   1   7
BRANCH   5  28
HETATM   28  C   UNL     1       8.129  31.958  60.470  1.00  0.00     0.257 C 
HETATM   29  O   UNL     1       8.773  32.992  60.575  1.00  0.00    -0.267 OA
HETATM   30  N   UNL     1       7.265  31.403  61.382  1.00  0.00    -0.301 N 
HETATM   31  H   UNL     1       6.878  30.484  61.235  1.00  0.00     0.171 HD
BRANCH  30  32
HETATM   32  C   UNL     1       6.894  32.039  62.531  1.00  0.00     0.174 A 
HETATM   33  N   UNL     1       7.617  32.703  63.398  1.00  0.00    -0.228 NA
HETATM   34  C   UNL     1       6.789  33.243  64.357  1.00  0.00     0.050 A 
HETATM   35  C   UNL     1       7.324  34.122  65.432  1.00  0.00     0.062 C 
HETATM   36  C   UNL     1       5.447  32.984  64.180  1.00  0.00     0.013 A 
HETATM   37  C   UNL     1       6.215  34.681  66.349  1.00  0.00     0.031 C 
HETATM   38  C   UNL     1       4.804  34.856  65.703  1.00  0.00     0.084 C 
HETATM   39  C   UNL     1       4.362  33.516  65.040  1.00  0.00     0.073 C 
HETATM   40  S   UNL     1       5.207  31.986  62.826  1.00  0.00    -0.055 SA
BRANCH  38  41
HETATM   41  N   UNL     1       4.588  36.115  64.964  1.00  0.00    -0.404 N 
HETATM   42  C   UNL     1       5.705  36.843  64.354  1.00  0.00     0.143 C 
HETATM   43  C   UNL     1       5.964  36.503  62.880  1.00  0.00     0.187 C 
HETATM   44  O   UNL     1       4.776  36.683  62.096  1.00  0.00    -0.388 OA
HETATM   45  C   UNL     1       3.718  35.860  62.599  1.00  0.00     0.187 C 
HETATM   46  C   UNL     1       3.412  36.163  64.079  1.00  0.00     0.143 C 
ENDBRANCH  38  41
ENDBRANCH  30  32
ENDBRANCH   5  28
TORSDOF 6
ENDMDL
MODEL 3
REMARK VINA RESULT:     -10.8      1.887      2.490
REMARK  6 active torsions:
REMARK  status: ('A' for Active; 'I' for Inactive)
REMARK       I    between atoms: N_1  and  C_2 
REMARK    1  A    between atoms: C_2  and  C_4 
REMARK    2  A    between atoms: C_9  and  C_13 
REMARK       I    between atoms: C_13  and  N_15 
REMARK    3  A    between atoms: C_19  and  C_20 
REMARK    4  A    between atoms: C_24  and  C_26 
REMARK       I    between atoms: C_26  and  N_28 
REMARK    5  A    between atoms: N_28  and  C_29 
REMARK    6  A    between atoms: C_34  and  N_38 
ROOT
HETATM    1  C   UNL     1       8.231  28.638  56.883  1.00  0.00    -0.034 A 
HETATM    2  C   UNL     1       9.393  28.842  56.118  1.00  0.00     0.009 A 
HETATM    3  C   UNL     1      10.288  29.867  56.428  1.00  0.00     0.002 A 
HETATM    4  C   UNL     1      10.034  30.715  57.505  1.00  0.00     0.017 A 
HETATM    5  C   UNL     1       8.877  30.530  58.272  1.00  0.00     0.033 A 
HETATM    6  C   UNL     1       7.995  29.486  57.977  1.00  0.00     0.026 A 
ENDROOT
BRANCH   1   7
HETATM    7  C   UNL     1       7.285  27.509  56.505  1.00  0.00     0.120 C 
HETATM    8  N   UNL     1       6.560  27.742  55.261  1.00  0.00    -0.338 N 
HETATM    9  C   UNL     1       7.198  27.626  54.035  1.00  0.00     0.274 C 
HETATM   10  C   UNL     1       5.142  27.969  55.503  1.00  0.00     0.127 C 
HETATM   11  O   UNL     1       8.407  27.398  53.962  1.00  0.00    -0.266 OA
HETATM   12  C   UNL     1       5.024  28.149  57.011  1.00  0.00     0.022 C 
HETATM   13  C   UNL     1       6.177  27.311  57.548  1.00  0.00     0.032 C 
BRANCH   9  14
HETATM   14  C   UNL     1       6.406  27.797  52.806  1.00  0.00     0.142 A 
HETATM   15  N   UNL     1       6.113  29.000  52.182  1.00  0.00    -0.224 NA
HETATM   16  C   UNL     1       5.372  28.696  51.139  1.00  0.00     0.134 A 
HETATM   17  C   UNL     1       4.765  29.512  50.144  1.00  0.00     0.052 A 
HETATM   18  N   UNL     1       5.170  27.326  51.043  1.00  0.00    -0.314 N 
HETATM   19  C   UNL     1       4.052  28.936  49.156  1.00  0.00     0.022 A 
HETATM   20  C   UNL     1       3.891  27.485  49.064  1.00  0.00     0.047 A 
HETATM   21  C   UNL     1       4.441  26.717  50.026  1.00  0.00     0.115 A 
HETATM   22  C   UNL     1       5.812  26.757  52.108  1.00  0.00     0.135 A 
BRANCH  20  23
HETATM   23  C   UNL     1       3.080  26.901  47.956  1.00  0.00     0.250 C 
HETATM   24  N   UNL     1       1.790  26.584  48.255  1.00  0.00    -0.366 N 
HETATM   25  H   UNL     1       1.264  26.103  47.536  1.00  0.00     0.159 HD
HETATM   26  H   UNL     1       1.425  26.578  49.196  1.00  0.00     0.159 HD
HETATM   27  O   UNL     1       3.553  26.664  46.852  1.00  0.00    -0.268 OA
ENDBRANCH  20  23
ENDBRANCH   9  14
ENDBRANCH   1   7
BRANCH   5  28
HETATM   28  C   UNL     1       8.560  31.427  59.415  1.00  0.00     0.257 C 
HETATM   29  O   UNL     1       8.907  32.598  59.350  1.00  0.00    -0.267 OA
HETATM   30  N   UNL     1       7.924  30.789  60.452  1.00  0.00    -0.301 N 
HETATM   31  H   UNL     1       7.792  29.789  60.441  1.00  0.00     0.171 HD
BRANCH  30  32
HETATM   32  C   UNL     1       7.457  31.450  61.551  1.00  0.00     0.174 A 
HETATM   33  N   UNL     1       8.102  31.917  62.590  1.00  0.00    -0.228 NA
HETATM   34  C   UNL     1       7.217  32.586  63.406  1.00  0.00     0.050 A 
HETATM   35  C   UNL     1       7.681  33.297  64.629  1.00  0.00     0.062 C 
HETATM   36  C   UNL     1       5.917  32.623  62.950  1.00  0.00     0.013 A 
HETATM   37  C   UNL     1       6.539  34.046  65.350  1.00  0.00     0.031 C 
HETATM   38  C   UNL     1       5.357  34.536  64.454  1.00  0.00     0.084 C 
HETATM   39  C   UNL     1       4.805  33.342  63.618  1.00  0.00     0.073 C 
HETATM   40  S   UNL     1       5.770  31.743  61.503  1.00  0.00    -0.055 SA
BRANCH  38  41
HETATM   41  N   UNL     1       5.556  35.836  63.785  1.00  0.00    -0.404 N 
HETATM   42  C   UNL     1       5.926  35.917  62.369  1.00  0.00     0.143 C 
HETATM   43  C   UNL     1       4.741  36.068  61.404  1.00  0.00     0.187 C 
HETATM   44  O   UNL     1       3.927  37.194  61.763  1.00  0.00    -0.388 OA
HETATM   45  C   UNL     1       3.441  37.050  63.102  1.00  0.00     0.187 C 
HETATM   46  C   UNL     1       4.591  36.899  64.116  1.00  0.00     0.143 C 
ENDBRANCH  38  41
ENDBRANCH  30  32
ENDBRANCH   5  28
TORSDOF 6
ENDMDL
MODEL 4
REMARK VINA RESULT:     -10.6      3.763     13.688
REMARK  6 active torsions:
REMARK  status: ('A' for Active; 'I' for Inactive)
REMARK       I    between atoms: N_1  and  C_2 
REMARK    1  A    between atoms: C_2  and  C_4 
REMARK    2  A    between atoms: C_9  and  C_13 
REMARK       I    between atoms: C_13  and  N_15 
REMARK    3  A    between atoms: C_19  and  C_20 
REMARK    4  A    between atoms: C_24  and  C_26 
REMARK       I    between atoms: C_26  and  N_28 
REMARK    5  A    between atoms: N_28  and  C_29 
REMARK    6  A    between atoms: C_34  and  N_38 
ROOT
HETATM    1  C   UNL     1       6.239  32.071  59.543  1.00  0.00    -0.034 A 
HETATM    2  C   UNL     1       7.408  31.896  60.307  1.00  0.00     0.009 A 
HETATM    3  C   UNL     1       8.367  30.947  59.947  1.00  0.00     0.002 A 
HETATM    4  C   UNL     1       8.171  30.148  58.822  1.00  0.00     0.017 A 
HETATM    5  C   UNL     1       7.009  30.305  58.056  1.00  0.00     0.033 A 
HETATM    6  C   UNL     1       6.062  31.274  58.401  1.00  0.00     0.026 A 
ENDROOT
BRANCH   1   7
HETATM    7  C   UNL     1       5.223  33.116  59.976  1.00  0.00     0.120 C 
HETATM    8  N   UNL     1       5.051  33.205  61.422  1.00  0.00    -0.338 N 
HETATM    9  C   UNL     1       6.017  33.805  62.216  1.00  0.00     0.274 C 
HETATM   10  C   UNL     1       3.745  32.713  61.836  1.00  0.00     0.127 C 
HETATM   11  O   UNL     1       7.077  34.213  61.737  1.00  0.00    -0.266 OA
HETATM   12  C   UNL     1       3.170  32.034  60.599  1.00  0.00     0.022 C 
HETATM   13  C   UNL     1       3.815  32.803  59.454  1.00  0.00     0.032 C 
BRANCH   9  14
HETATM   14  C   UNL     1       5.763  33.937  63.661  1.00  0.00     0.142 A 
HETATM   15  N   UNL     1       4.524  34.091  64.263  1.00  0.00    -0.224 NA
HETATM   16  C   UNL     1       4.758  34.189  65.554  1.00  0.00     0.134 A 
HETATM   17  C   UNL     1       3.883  34.376  66.659  1.00  0.00     0.052 A 
HETATM   18  N   UNL     1       6.116  34.095  65.831  1.00  0.00    -0.314 N 
HETATM   19  C   UNL     1       4.390  34.432  67.907  1.00  0.00     0.022 A 
HETATM   20  C   UNL     1       5.823  34.291  68.166  1.00  0.00     0.047 A 
HETATM   21  C   UNL     1       6.653  34.145  67.114  1.00  0.00     0.115 A 
HETATM   22  C   UNL     1       6.754  33.951  64.630  1.00  0.00     0.135 A 
BRANCH  20  23
HETATM   23  C   UNL     1       6.332  34.372  69.566  1.00  0.00     0.250 C 
HETATM   24  N   UNL     1       7.685  34.408  69.715  1.00  0.00    -0.366 N 
HETATM   25  H   UNL     1       8.038  34.370  70.663  1.00  0.00     0.159 HD
HETATM   26  H   UNL     1       8.330  34.225  68.960  1.00  0.00     0.159 HD
HETATM   27  O   UNL     1       5.586  34.354  70.536  1.00  0.00    -0.268 OA
ENDBRANCH  20  23
ENDBRANCH   9  14
ENDBRANCH   1   7
BRANCH   5  28
HETATM   28  C   UNL     1       6.755  29.457  56.861  1.00  0.00     0.257 C 
HETATM   29  O   UNL     1       6.174  29.954  55.907  1.00  0.00    -0.267 OA
HETATM   30  N   UNL     1       7.190  28.162  57.006  1.00  0.00    -0.301 N 
HETATM   31  H   UNL     1       7.554  27.834  57.887  1.00  0.00     0.171 HD
BRANCH  30  32
HETATM   32  C   UNL     1       7.143  27.249  55.993  1.00  0.00     0.174 A 
HETATM   33  N   UNL     1       7.689  27.281  54.803  1.00  0.00    -0.228 NA
HETATM   34  C   UNL     1       7.436  26.091  54.158  1.00  0.00     0.050 A 
HETATM   35  C   UNL     1       8.005  25.806  52.812  1.00  0.00     0.062 C 
HETATM   36  C   UNL     1       6.712  25.175  54.890  1.00  0.00     0.013 A 
HETATM   37  C   UNL     1       7.662  24.386  52.312  1.00  0.00     0.031 C 
HETATM   38  C   UNL     1       7.438  23.299  53.409  1.00  0.00     0.084 C 
HETATM   39  C   UNL     1       6.378  23.802  54.436  1.00  0.00     0.073 C 
HETATM   40  S   UNL     1       6.272  25.830  56.395  1.00  0.00    -0.055 SA
BRANCH  38  41
HETATM   41  N   UNL     1       8.656  22.639  53.917  1.00  0.00    -0.404 N 
HETATM   42  C   UNL     1       9.098  22.814  55.304  1.00  0.00     0.143 C 
HETATM   43  C   UNL     1       8.605  21.732  56.275  1.00  0.00     0.187 C 
HETATM   44  O   UNL     1       8.962  20.423  55.809  1.00  0.00    -0.388 OA
HETATM   45  C   UNL     1       8.409  20.189  54.509  1.00  0.00     0.187 C 
HETATM   46  C   UNL     1       8.876  21.247  53.490  1.00  0.00     0.143 C 
ENDBRANCH  38  41
ENDBRANCH  30  32
ENDBRANCH   5  28
TORSDOF 6
ENDMDL
MODEL 5
REMARK VINA RESULT:     -10.3      4.087      9.882
REMARK  6 active torsions:
REMARK  status: ('A' for Active; 'I' for Inactive)
REMARK       I    between atoms: N_1  and  C_2 
REMARK    1  A    between atoms: C_2  and  C_4 
REMARK    2  A    between atoms: C_9  and  C_13 
REMARK       I    between atoms: C_13  and  N_15 
REMARK    3  A    between atoms: C_19  and  C_20 
REMARK    4  A    between atoms: C_24  and  C_26 
REMARK       I    between atoms: C_26  and  N_28 
REMARK    5  A    between atoms: N_28  and  C_29 
REMARK    6  A    between atoms: C_34  and  N_38 
ROOT
HETATM    1  C   UNL     1       5.790  34.887  63.480  1.00  0.00    -0.034 A 
HETATM    2  C   UNL     1       6.246  34.805  64.808  1.00  0.00     0.009 A 
HETATM    3  C   UNL     1       7.193  33.851  65.186  1.00  0.00     0.002 A 
HETATM    4  C   UNL     1       7.693  32.953  64.244  1.00  0.00     0.017 A 
HETATM    5  C   UNL     1       7.243  33.017  62.920  1.00  0.00     0.033 A 
HETATM    6  C   UNL     1       6.316  33.991  62.536  1.00  0.00     0.026 A 
ENDROOT
BRANCH   1   7
HETATM    7  C   UNL     1       4.757  35.943  63.117  1.00  0.00     0.120 C 
HETATM    8  N   UNL     1       4.315  35.878  61.729  1.00  0.00    -0.338 N 
HETATM    9  C   UNL     1       3.451  34.878  61.304  1.00  0.00     0.274 C 
HETATM   10  C   UNL     1       4.791  37.021  60.962  1.00  0.00     0.127 C 
HETATM   11  O   UNL     1       3.093  33.977  62.065  1.00  0.00    -0.266 OA
HETATM   12  C   UNL     1       5.811  37.703  61.865  1.00  0.00     0.022 C 
HETATM   13  C   UNL     1       5.311  37.366  63.264  1.00  0.00     0.032 C 
BRANCH   9  14
HETATM   14  C   UNL     1       2.975  34.899  59.911  1.00  0.00     0.142 A 
HETATM   15  N   UNL     1       1.948  35.684  59.410  1.00  0.00    -0.224 NA
HETATM   16  C   UNL     1       1.844  35.373  58.136  1.00  0.00     0.134 A 
HETATM   17  C   UNL     1       0.962  35.838  57.121  1.00  0.00     0.052 A 
HETATM   18  N   UNL     1       2.777  34.412  57.771  1.00  0.00    -0.314 N 
HETATM   19  C   UNL     1       1.076  35.355  55.868  1.00  0.00     0.022 A 
HETATM   20  C   UNL     1       2.097  34.370  55.510  1.00  0.00     0.047 A 
HETATM   21  C   UNL     1       2.911  33.909  56.480  1.00  0.00     0.115 A 
HETATM   22  C   UNL     1       3.483  34.100  58.900  1.00  0.00     0.135 A 
BRANCH  20  23
HETATM   23  C   UNL     1       2.172  33.860  54.110  1.00  0.00     0.250 C 
HETATM   24  N   UNL     1       1.573  32.661  53.871  1.00  0.00    -0.366 N 
HETATM   25  H   UNL     1       1.700  32.267  52.948  1.00  0.00     0.159 HD
HETATM   26  H   UNL     1       1.237  32.054  54.605  1.00  0.00     0.159 HD
HETATM   27  O   UNL     1       2.782  34.452  53.229  1.00  0.00    -0.268 OA
ENDBRANCH  20  23
ENDBRANCH   9  14
ENDBRANCH   1   7
BRANCH   5  28
HETATM   28  C   UNL     1       7.738  32.063  61.892  1.00  0.00     0.257 C 
HETATM   29  O   UNL     1       8.420  31.116  62.257  1.00  0.00    -0.267 OA
HETATM   30  N   UNL     1       7.379  32.404  60.611  1.00  0.00    -0.301 N 
HETATM   31  H   UNL     1       6.910  33.275  60.420  1.00  0.00     0.171 HD
BRANCH  30  32
HETATM   32  C   UNL     1       7.646  31.611  59.533  1.00  0.00     0.174 A 
HETATM   33  N   UNL     1       8.743  30.978  59.203  1.00  0.00    -0.228 NA
HETATM   34  C   UNL     1       8.511  30.231  58.070  1.00  0.00     0.050 A 
HETATM   35  C   UNL     1       9.559  29.337  57.505  1.00  0.00     0.062 C 
HETATM   36  C   UNL     1       7.226  30.305  57.577  1.00  0.00     0.013 A 
HETATM   37  C   UNL     1       9.060  28.534  56.285  1.00  0.00     0.031 C 
HETATM   38  C   UNL     1       7.531  28.219  56.239  1.00  0.00     0.084 C 
HETATM   39  C   UNL     1       6.720  29.538  56.413  1.00  0.00     0.073 C 
HETATM   40  S   UNL     1       6.296  31.386  58.502  1.00  0.00    -0.055 SA
BRANCH  38  41
HETATM   41  N   UNL     1       7.101  27.021  56.986  1.00  0.00    -0.404 N 
HETATM   42  C   UNL     1       5.755  26.463  56.825  1.00  0.00     0.143 C 
HETATM   43  C   UNL     1       5.645  25.344  55.780  1.00  0.00     0.187 C 
HETATM   44  O   UNL     1       6.582  24.293  56.053  1.00  0.00    -0.388 OA
HETATM   45  C   UNL     1       7.918  24.807  56.068  1.00  0.00     0.187 C 
HETATM   46  C   UNL     1       8.087  25.933  57.105  1.00  0.00     0.143 C 
ENDBRANCH  38  41
ENDBRANCH  30  32
ENDBRANCH   5  28
TORSDOF 6
ENDMDL
MODEL 6
REMARK VINA RESULT:     -10.2      5.539     11.187
REMARK  6 active torsions:
REMARK  status: ('A' for Active; 'I' for Inactive)
REMARK       I    between atoms: N_1  and  C_2 
REMARK    1  A    between atoms: C_2  and  C_4 
REMARK    2  A    between atoms: C_9  and  C_13 
REMARK       I    between atoms: C_13  and  N_15 
REMARK    3  A    between atoms: C_19  and  C_20 
REMARK    4  A    between atoms: C_24  and  C_26 
REMARK       I    between atoms: C_26  and  N_28 
REMARK    5  A    between atoms: N_28  and  C_29 
REMARK    6  A    between atoms: C_34  and  N_38 
ROOT
HETATM    1  C   UNL     1       7.529  26.092  55.995  1.00  0.00    -0.034 A 
HETATM    2  C   UNL     1       7.981  24.844  56.461  1.00  0.00     0.009 A 
HETATM    3  C   UNL     1       8.106  23.755  55.596  1.00  0.00     0.002 A 
HETATM    4  C   UNL     1       7.773  23.891  54.250  1.00  0.00     0.017 A 
HETATM    5  C   UNL     1       7.315  25.124  53.772  1.00  0.00     0.033 A 
HETATM    6  C   UNL     1       7.215  26.222  54.632  1.00  0.00     0.026 A 
ENDROOT
BRANCH   1   7
HETATM    7  C   UNL     1       7.408  27.248  56.975  1.00  0.00     0.120 C 
HETATM    8  N   UNL     1       6.617  28.365  56.471  1.00  0.00    -0.338 N 
HETATM    9  C   UNL     1       5.234  28.277  56.393  1.00  0.00     0.274 C 
HETATM   10  C   UNL     1       7.446  29.532  56.209  1.00  0.00     0.127 C 
HETATM   11  O   UNL     1       4.642  27.234  56.675  1.00  0.00    -0.266 OA
HETATM   12  C   UNL     1       8.880  29.027  56.308  1.00  0.00     0.022 C 
HETATM   13  C   UNL     1       8.770  27.875  57.299  1.00  0.00     0.032 C 
BRANCH   9  14
HETATM   14  C   UNL     1       4.475  29.458  55.948  1.00  0.00     0.142 A 
HETATM   15  N   UNL     1       4.121  29.758  54.641  1.00  0.00    -0.224 NA
HETATM   16  C   UNL     1       3.474  30.902  54.695  1.00  0.00     0.134 A 
HETATM   17  C   UNL     1       2.892  31.705  53.676  1.00  0.00     0.052 A 
HETATM   18  N   UNL     1       3.378  31.369  56.000  1.00  0.00    -0.314 N 
HETATM   19  C   UNL     1       2.264  32.850  54.007  1.00  0.00     0.022 A 
HETATM   20  C   UNL     1       2.149  33.293  55.398  1.00  0.00     0.047 A 
HETATM   21  C   UNL     1       2.728  32.546  56.358  1.00  0.00     0.115 A 
HETATM   22  C   UNL     1       4.026  30.462  56.791  1.00  0.00     0.135 A 
BRANCH  20  23
HETATM   23  C   UNL     1       1.454  34.576  55.708  1.00  0.00     0.250 C 
HETATM   24  N   UNL     1       2.038  35.710  55.232  1.00  0.00    -0.366 N 
HETATM   25  H   UNL     1       1.623  36.588  55.517  1.00  0.00     0.159 HD
HETATM   26  H   UNL     1       2.966  35.729  54.835  1.00  0.00     0.159 HD
HETATM   27  O   UNL     1       0.444  34.624  56.398  1.00  0.00    -0.268 OA
ENDBRANCH  20  23
ENDBRANCH   9  14
ENDBRANCH   1   7
BRANCH   5  28
HETATM   28  C   UNL     1       6.929  25.303  52.346  1.00  0.00     0.257 C 
HETATM   29  O   UNL     1       7.577  24.718  51.490  1.00  0.00    -0.267 OA
HETATM   30  N   UNL     1       5.874  26.164  52.168  1.00  0.00    -0.301 N 
HETATM   31  H   UNL     1       5.491  26.680  52.945  1.00  0.00     0.171 HD
BRANCH  30  32
HETATM   32  C   UNL     1       5.301  26.389  50.950  1.00  0.00     0.174 A 
HETATM   33  N   UNL     1       4.580  25.595  50.199  1.00  0.00    -0.228 NA
HETATM   34  C   UNL     1       4.146  26.291  49.093  1.00  0.00     0.050 A 
HETATM   35  C   UNL     1       3.233  25.666  48.096  1.00  0.00     0.062 C 
HETATM   36  C   UNL     1       4.540  27.610  49.044  1.00  0.00     0.013 A 
HETATM   37  C   UNL     1       2.809  26.647  46.983  1.00  0.00     0.031 C 
HETATM   38  C   UNL     1       2.772  28.160  47.368  1.00  0.00     0.084 C 
HETATM   39  C   UNL     1       4.139  28.575  47.990  1.00  0.00     0.073 C 
HETATM   40  S   UNL     1       5.535  27.984  50.370  1.00  0.00    -0.055 SA
BRANCH  38  41
HETATM   41  N   UNL     1       1.530  28.627  48.014  1.00  0.00    -0.404 N 
HETATM   42  C   UNL     1       1.413  28.709  49.473  1.00  0.00     0.143 C 
HETATM   43  C   UNL     1       1.750  30.084  50.066  1.00  0.00     0.187 C 
HETATM   44  O   UNL     1       0.963  31.115  49.453  1.00  0.00    -0.388 OA
HETATM   45  C   UNL     1       1.184  31.135  48.038  1.00  0.00     0.187 C 
HETATM   46  C   UNL     1       0.857  29.778  47.388  1.00  0.00     0.143 C 
ENDBRANCH  38  41
ENDBRANCH  30  32
ENDBRANCH   5  28
TORSDOF 6
ENDMDL
MODEL 7
REMARK VINA RESULT:     -10.2      2.123      3.267
REMARK  6 active torsions:
REMARK  status: ('A' for Active; 'I' for Inactive)
REMARK       I    between atoms: N_1  and  C_2 
REMARK    1  A    between atoms: C_2  and  C_4 
REMARK    2  A    between atoms: C_9  and  C_13 
REMARK       I    between atoms: C_13  and  N_15 
REMARK    3  A    between atoms: C_19  and  C_20 
REMARK    4  A    between atoms: C_24  and  C_26 
REMARK       I    between atoms: C_26  and  N_28 
REMARK    5  A    between atoms: N_28  and  C_29 
REMARK    6  A    between atoms: C_34  and  N_38 
ROOT
HETATM    1  C   UNL     1       6.233  27.385  54.494  1.00  0.00    -0.034 A 
HETATM    2  C   UNL     1       5.779  26.259  55.203  1.00  0.00     0.009 A 
HETATM    3  C   UNL     1       5.140  26.396  56.437  1.00  0.00     0.002 A 
HETATM    4  C   UNL     1       4.951  27.661  56.989  1.00  0.00     0.017 A 
HETATM    5  C   UNL     1       5.403  28.791  56.299  1.00  0.00     0.033 A 
HETATM    6  C   UNL     1       6.019  28.656  55.051  1.00  0.00     0.026 A 
ENDROOT
BRANCH   1   7
HETATM    7  C   UNL     1       6.925  27.186  53.154  1.00  0.00     0.120 C 
HETATM    8  N   UNL     1       6.007  26.903  52.056  1.00  0.00    -0.338 N 
HETATM    9  C   UNL     1       5.223  27.909  51.509  1.00  0.00     0.274 C 
HETATM   10  C   UNL     1       6.140  25.531  51.588  1.00  0.00     0.127 C 
HETATM   11  O   UNL     1       5.223  29.048  51.980  1.00  0.00    -0.266 OA
HETATM   12  C   UNL     1       7.009  24.842  52.632  1.00  0.00     0.022 C 
HETATM   13  C   UNL     1       7.870  25.979  53.167  1.00  0.00     0.032 C 
BRANCH   9  14
HETATM   14  C   UNL     1       4.368  27.590  50.353  1.00  0.00     0.142 A 
HETATM   15  N   UNL     1       4.514  26.505  49.502  1.00  0.00    -0.224 NA
HETATM   16  C   UNL     1       3.558  26.617  48.606  1.00  0.00     0.134 A 
HETATM   17  C   UNL     1       3.221  25.814  47.482  1.00  0.00     0.052 A 
HETATM   18  N   UNL     1       2.773  27.739  48.840  1.00  0.00    -0.314 N 
HETATM   19  C   UNL     1       2.164  26.150  46.716  1.00  0.00     0.022 A 
HETATM   20  C   UNL     1       1.334  27.319  47.014  1.00  0.00     0.047 A 
HETATM   21  C   UNL     1       1.675  28.095  48.062  1.00  0.00     0.115 A 
HETATM   22  C   UNL     1       3.296  28.364  49.938  1.00  0.00     0.135 A 
BRANCH  20  23
HETATM   23  C   UNL     1       0.183  27.652  46.127  1.00  0.00     0.250 C 
HETATM   24  N   UNL     1      -0.448  28.833  46.375  1.00  0.00    -0.366 N 
HETATM   25  H   UNL     1      -1.285  29.022  45.838  1.00  0.00     0.159 HD
HETATM   26  H   UNL     1      -0.277  29.389  47.200  1.00  0.00     0.159 HD
HETATM   27  O   UNL     1      -0.216  26.890  45.257  1.00  0.00    -0.268 OA
ENDBRANCH  20  23
ENDBRANCH   9  14
ENDBRANCH   1   7
BRANCH   5  28
HETATM   28  C   UNL     1       5.240  30.157  56.866  1.00  0.00     0.257 C 
HETATM   29  O   UNL     1       5.416  31.118  56.130  1.00  0.00    -0.267 OA
HETATM   30  N   UNL     1       4.936  30.161  58.205  1.00  0.00    -0.301 N 
HETATM   31  H   UNL     1       4.929  29.304  58.736  1.00  0.00     0.171 HD
BRANCH  30  32
HETATM   32  C   UNL     1       4.647  31.303  58.894  1.00  0.00     0.174 A 
HETATM   33  N   UNL     1       3.496  31.889  59.110  1.00  0.00    -0.228 NA
HETATM   34  C   UNL     1       3.689  32.975  59.934  1.00  0.00     0.050 A 
HETATM   35  C   UNL     1       2.542  33.789  60.420  1.00  0.00     0.062 C 
HETATM   36  C   UNL     1       4.992  33.174  60.338  1.00  0.00     0.013 A 
HETATM   37  C   UNL     1       2.977  34.905  61.395  1.00  0.00     0.031 C 
HETATM   38  C   UNL     1       4.266  34.631  62.232  1.00  0.00     0.084 C 
HETATM   39  C   UNL     1       5.434  34.232  61.279  1.00  0.00     0.073 C 
HETATM   40  S   UNL     1       6.019  32.026  59.621  1.00  0.00    -0.055 SA
BRANCH  38  41
HETATM   41  N   UNL     1       4.072  33.859  63.475  1.00  0.00    -0.404 N 
HETATM   42  C   UNL     1       5.170  33.101  64.082  1.00  0.00     0.143 C 
HETATM   43  C   UNL     1       5.952  33.860  65.164  1.00  0.00     0.187 C 
HETATM   44  O   UNL     1       5.071  34.350  66.185  1.00  0.00    -0.388 OA
HETATM   45  C   UNL     1       4.079  35.211  65.616  1.00  0.00     0.187 C 
HETATM   46  C   UNL     1       3.259  34.498  64.524  1.00  0.00     0.143 C 
ENDBRANCH  38  41
ENDBRANCH  30  32
ENDBRANCH   5  28
TORSDOF 6
ENDMDL
MODEL 8
REMARK VINA RESULT:     -10.0      3.448      4.954
REMARK  6 active torsions:
REMARK  status: ('A' for Active; 'I' for Inactive)
REMARK       I    between atoms: N_1  and  C_2 
REMARK    1  A    between atoms: C_2  and  C_4 
REMARK    2  A    between atoms: C_9  and  C_13 
REMARK       I    between atoms: C_13  and  N_15 
REMARK    3  A    between atoms: C_19  and  C_20 
REMARK    4  A    between atoms: C_24  and  C_26 
REMARK       I    between atoms: C_26  and  N_28 
REMARK    5  A    between atoms: N_28  and  C_29 
REMARK    6  A    between atoms: C_34  and  N_38 
ROOT
HETATM    1  C   UNL     1       5.782  30.016  56.608  1.00  0.00    -0.034 A 
HETATM    2  C   UNL     1       4.703  29.367  55.982  1.00  0.00     0.009 A 
HETATM    3  C   UNL     1       3.384  29.719  56.273  1.00  0.00     0.002 A 
HETATM    4  C   UNL     1       3.118  30.722  57.204  1.00  0.00     0.017 A 
HETATM    5  C   UNL     1       4.181  31.373  57.841  1.00  0.00     0.033 A 
HETATM    6  C   UNL     1       5.503  31.038  57.529  1.00  0.00     0.026 A 
ENDROOT
BRANCH   1   7
HETATM    7  C   UNL     1       7.202  29.596  56.258  1.00  0.00     0.120 C 
HETATM    8  N   UNL     1       7.403  28.152  56.258  1.00  0.00    -0.338 N 
HETATM    9  C   UNL     1       6.910  27.366  55.226  1.00  0.00     0.274 C 
HETATM   10  C   UNL     1       8.250  27.730  57.364  1.00  0.00     0.127 C 
HETATM   11  O   UNL     1       6.226  27.852  54.323  1.00  0.00    -0.266 OA
HETATM   12  C   UNL     1       8.368  28.956  58.260  1.00  0.00     0.022 C 
HETATM   13  C   UNL     1       8.223  30.113  57.279  1.00  0.00     0.032 C 
BRANCH   9  14
HETATM   14  C   UNL     1       7.203  25.923  55.232  1.00  0.00     0.142 A 
HETATM   15  N   UNL     1       7.258  25.105  56.350  1.00  0.00    -0.224 NA
HETATM   16  C   UNL     1       7.568  23.906  55.906  1.00  0.00     0.134 A 
HETATM   17  C   UNL     1       7.779  22.674  56.585  1.00  0.00     0.052 A 
HETATM   18  N   UNL     1       7.713  23.899  54.524  1.00  0.00    -0.314 N 
HETATM   19  C   UNL     1       8.081  21.568  55.878  1.00  0.00     0.022 A 
HETATM   20  C   UNL     1       8.188  21.588  54.418  1.00  0.00     0.047 A 
HETATM   21  C   UNL     1       8.019  22.764  53.780  1.00  0.00     0.115 A 
HETATM   22  C   UNL     1       7.497  25.181  54.099  1.00  0.00     0.135 A 
BRANCH  20  23
HETATM   23  C   UNL     1       8.538  20.337  53.686  1.00  0.00     0.250 C 
HETATM   24  N   UNL     1       8.235  20.310  52.359  1.00  0.00    -0.366 N 
HETATM   25  H   UNL     1       8.384  19.432  51.877  1.00  0.00     0.159 HD
HETATM   26  H   UNL     1       7.662  21.008  51.907  1.00  0.00     0.159 HD
HETATM   27  O   UNL     1       9.020  19.362  54.247  1.00  0.00    -0.268 OA
ENDBRANCH  20  23
ENDBRANCH   9  14
ENDBRANCH   1   7
BRANCH   5  28
HETATM   28  C   UNL     1       3.938  32.432  58.856  1.00  0.00     0.257 C 
HETATM   29  O   UNL     1       3.155  33.331  58.583  1.00  0.00    -0.267 OA
HETATM   30  N   UNL     1       4.682  32.276  60.000  1.00  0.00    -0.301 N 
HETATM   31  H   UNL     1       5.384  31.556  60.066  1.00  0.00     0.171 HD
BRANCH  30  32
HETATM   32  C   UNL     1       4.535  33.081  61.092  1.00  0.00     0.174 A 
HETATM   33  N   UNL     1       3.493  33.279  61.860  1.00  0.00    -0.228 NA
HETATM   34  C   UNL     1       3.847  34.116  62.895  1.00  0.00     0.050 A 
HETATM   35  C   UNL     1       2.883  34.455  63.977  1.00  0.00     0.062 C 
HETATM   36  C   UNL     1       5.164  34.521  62.892  1.00  0.00     0.013 A 
HETATM   37  C   UNL     1       3.511  35.341  65.075  1.00  0.00     0.031 C 
HETATM   38  C   UNL     1       5.049  35.186  65.296  1.00  0.00     0.084 C 
HETATM   39  C   UNL     1       5.794  35.363  63.938  1.00  0.00     0.073 C 
HETATM   40  S   UNL     1       5.973  33.903  61.530  1.00  0.00    -0.055 SA
BRANCH  38  41
HETATM   41  N   UNL     1       5.461  34.085  66.190  1.00  0.00    -0.404 N 
HETATM   42  C   UNL     1       6.866  33.882  66.554  1.00  0.00     0.143 C 
HETATM   43  C   UNL     1       7.293  34.555  67.865  1.00  0.00     0.187 C 
HETATM   44  O   UNL     1       6.444  34.153  68.949  1.00  0.00    -0.388 OA
HETATM   45  C   UNL     1       5.080  34.482  68.662  1.00  0.00     0.187 C 
HETATM   46  C   UNL     1       4.596  33.827  67.354  1.00  0.00     0.143 C 
ENDBRANCH  38  41
ENDBRANCH  30  32
ENDBRANCH   5  28
TORSDOF 6
ENDMDL
MODEL 9
REMARK VINA RESULT:     -10.0      2.986      5.888
REMARK  6 active torsions:
REMARK  status: ('A' for Active; 'I' for Inactive)
REMARK       I    between atoms: N_1  and  C_2 
REMARK    1  A    between atoms: C_2  and  C_4 
REMARK    2  A    between atoms: C_9  and  C_13 
REMARK       I    between atoms: C_13  and  N_15 
REMARK    3  A    between atoms: C_19  and  C_20 
REMARK    4  A    between atoms: C_24  and  C_26 
REMARK       I    between atoms: C_26  and  N_28 
REMARK    5  A    between atoms: N_28  and  C_29 
REMARK    6  A    between atoms: C_34  and  N_38 
ROOT
HETATM    1  C   UNL     1       3.941  30.664  53.416  1.00  0.00    -0.034 A 
HETATM    2  C   UNL     1       3.862  31.594  52.365  1.00  0.00     0.009 A 
HETATM    3  C   UNL     1       4.181  32.938  52.567  1.00  0.00     0.002 A 
HETATM    4  C   UNL     1       4.576  33.379  53.829  1.00  0.00     0.017 A 
HETATM    5  C   UNL     1       4.652  32.467  54.888  1.00  0.00     0.033 A 
HETATM    6  C   UNL     1       4.359  31.116  54.678  1.00  0.00     0.026 A 
ENDROOT
BRANCH   1   7
HETATM    7  C   UNL     1       3.582  29.211  53.147  1.00  0.00     0.120 C 
HETATM    8  N   UNL     1       4.559  28.259  53.665  1.00  0.00    -0.338 N 
HETATM    9  C   UNL     1       4.640  27.994  55.024  1.00  0.00     0.274 C 
HETATM   10  C   UNL     1       5.282  27.597  52.589  1.00  0.00     0.127 C 
HETATM   11  O   UNL     1       3.945  28.606  55.838  1.00  0.00    -0.266 OA
HETATM   12  C   UNL     1       4.916  28.375  51.332  1.00  0.00     0.022 C 
HETATM   13  C   UNL     1       3.522  28.900  51.646  1.00  0.00     0.032 C 
BRANCH   9  14
HETATM   14  C   UNL     1       5.591  26.971  55.490  1.00  0.00     0.142 A 
HETATM   15  N   UNL     1       6.635  27.169  56.381  1.00  0.00    -0.224 NA
HETATM   16  C   UNL     1       7.236  26.005  56.499  1.00  0.00     0.134 A 
HETATM   17  C   UNL     1       8.371  25.603  57.255  1.00  0.00     0.052 A 
HETATM   18  N   UNL     1       6.618  25.034  55.721  1.00  0.00    -0.314 N 
HETATM   19  C   UNL     1       8.782  24.320  57.207  1.00  0.00     0.022 A 
HETATM   20  C   UNL     1       8.084  23.314  56.406  1.00  0.00     0.047 A 
HETATM   21  C   UNL     1       7.028  23.705  55.666  1.00  0.00     0.115 A 
HETATM   22  C   UNL     1       5.586  25.650  55.069  1.00  0.00     0.135 A 
BRANCH  20  23
HETATM   23  C   UNL     1       8.589  21.911  56.379  1.00  0.00     0.250 C 
HETATM   24  N   UNL     1       9.216  21.517  55.237  1.00  0.00    -0.366 N 
HETATM   25  H   UNL     1       9.478  20.541  55.177  1.00  0.00     0.159 HD
HETATM   26  H   UNL     1       9.209  22.060  54.386  1.00  0.00     0.159 HD
HETATM   27  O   UNL     1       8.407  21.131  57.305  1.00  0.00    -0.268 OA
ENDBRANCH  20  23
ENDBRANCH   9  14
ENDBRANCH   1   7
BRANCH   5  28
HETATM   28  C   UNL     1       5.048  32.904  56.253  1.00  0.00     0.257 C 
HETATM   29  O   UNL     1       5.115  34.103  56.485  1.00  0.00    -0.267 OA
HETATM   30  N   UNL     1       5.335  31.862  57.100  1.00  0.00    -0.301 N 
HETATM   31  H   UNL     1       5.357  30.912  56.762  1.00  0.00     0.171 HD
BRANCH  30  32
HETATM   32  C   UNL     1       5.622  32.041  58.423  1.00  0.00     0.174 A 
HETATM   33  N   UNL     1       6.774  32.216  59.019  1.00  0.00    -0.228 NA
HETATM   34  C   UNL     1       6.558  32.440  60.361  1.00  0.00     0.050 A 
HETATM   35  C   UNL     1       7.684  32.755  61.282  1.00  0.00     0.062 C 
HETATM   36  C   UNL     1       5.235  32.445  60.745  1.00  0.00     0.013 A 
HETATM   37  C   UNL     1       7.209  33.049  62.721  1.00  0.00     0.031 C 
HETATM   38  C   UNL     1       5.772  33.641  62.870  1.00  0.00     0.084 C 
HETATM   39  C   UNL     1       4.752  32.734  62.118  1.00  0.00     0.073 C 
HETATM   40  S   UNL     1       4.230  32.093  59.420  1.00  0.00    -0.055 SA
BRANCH  38  41
HETATM   41  N   UNL     1       5.662  35.105  62.719  1.00  0.00    -0.404 N 
HETATM   42  C   UNL     1       4.731  35.706  61.759  1.00  0.00     0.143 C 
HETATM   43  C   UNL     1       3.360  36.077  62.342  1.00  0.00     0.187 C 
HETATM   44  O   UNL     1       3.504  36.931  63.486  1.00  0.00    -0.388 OA
HETATM   45  C   UNL     1       4.295  36.289  64.491  1.00  0.00     0.187 C 
HETATM   46  C   UNL     1       5.687  35.897  63.961  1.00  0.00     0.143 C 
ENDBRANCH  38  41
ENDBRANCH  30  32
ENDBRANCH   5  28
TORSDOF 6
ENDMDL
MODEL 10
REMARK VINA RESULT:      -9.9      8.472     12.120
REMARK  6 active torsions:
REMARK  status: ('A' for Active; 'I' for Inactive)
REMARK       I    between atoms: N_1  and  C_2 
REMARK    1  A    between atoms: C_2  and  C_4 
REMARK    2  A    between atoms: C_9  and  C_13 
REMARK       I    between atoms: C_13  and  N_15 
REMARK    3  A    between atoms: C_19  and  C_20 
REMARK    4  A    between atoms: C_24  and  C_26 
REMARK       I    between atoms: C_26  and  N_28 
REMARK    5  A    between atoms: N_28  and  C_29 
REMARK    6  A    between atoms: C_34  and  N_38 
ROOT
HETATM    1  C   UNL     1       2.384  28.980  48.075  1.00  0.00    -0.034 A 
HETATM    2  C   UNL     1       1.973  27.894  47.281  1.00  0.00     0.009 A 
HETATM    3  C   UNL     1       2.432  26.601  47.539  1.00  0.00     0.002 A 
HETATM    4  C   UNL     1       3.317  26.370  48.590  1.00  0.00     0.017 A 
HETATM    5  C   UNL     1       3.741  27.442  49.384  1.00  0.00     0.033 A 
HETATM    6  C   UNL     1       3.261  28.733  49.143  1.00  0.00     0.026 A 
ENDROOT
BRANCH   1   7
HETATM    7  C   UNL     1       1.859  30.371  47.754  1.00  0.00     0.120 C 
HETATM    8  N   UNL     1       2.905  31.381  47.638  1.00  0.00    -0.338 N 
HETATM    9  C   UNL     1       3.727  31.427  46.522  1.00  0.00     0.274 C 
HETATM   10  C   UNL     1       2.856  32.331  48.741  1.00  0.00     0.127 C 
HETATM   11  O   UNL     1       3.648  30.576  45.634  1.00  0.00    -0.266 OA
HETATM   12  C   UNL     1       1.885  31.720  49.743  1.00  0.00     0.022 C 
HETATM   13  C   UNL     1       0.943  30.911  48.860  1.00  0.00     0.032 C 
BRANCH   9  14
HETATM   14  C   UNL     1       4.718  32.511  46.417  1.00  0.00     0.142 A 
HETATM   15  N   UNL     1       5.801  32.714  47.259  1.00  0.00    -0.224 NA
HETATM   16  C   UNL     1       6.404  33.796  46.818  1.00  0.00     0.134 A 
HETATM   17  C   UNL     1       7.553  34.492  47.287  1.00  0.00     0.052 A 
HETATM   18  N   UNL     1       5.762  34.316  45.702  1.00  0.00    -0.314 N 
HETATM   19  C   UNL     1       7.978  35.591  46.633  1.00  0.00     0.022 A 
HETATM   20  C   UNL     1       7.298  36.090  45.436  1.00  0.00     0.047 A 
HETATM   21  C   UNL     1       6.192  35.446  45.013  1.00  0.00     0.115 A 
HETATM   22  C   UNL     1       4.684  33.510  45.457  1.00  0.00     0.135 A 
BRANCH  20  23
HETATM   23  C   UNL     1       7.804  37.318  44.758  1.00  0.00     0.250 C 
HETATM   24  N   UNL     1       9.037  37.228  44.188  1.00  0.00    -0.366 N 
HETATM   25  H   UNL     1       9.424  38.083  43.808  1.00  0.00     0.159 HD
HETATM   26  H   UNL     1       9.662  36.450  44.341  1.00  0.00     0.159 HD
HETATM   27  O   UNL     1       7.178  38.370  44.754  1.00  0.00    -0.268 OA
ENDBRANCH  20  23
ENDBRANCH   9  14
ENDBRANCH   1   7
BRANCH   5  28
HETATM   28  C   UNL     1       4.702  27.239  50.501  1.00  0.00     0.257 C 
HETATM   29  O   UNL     1       5.477  28.146  50.775  1.00  0.00    -0.267 OA
HETATM   30  N   UNL     1       4.617  25.997  51.079  1.00  0.00    -0.301 N 
HETATM   31  H   UNL     1       4.015  25.286  50.692  1.00  0.00     0.171 HD
BRANCH  30  32
HETATM   32  C   UNL     1       5.338  25.643  52.182  1.00  0.00     0.174 A 
HETATM   33  N   UNL     1       4.989  25.612  53.443  1.00  0.00    -0.228 NA
HETATM   34  C   UNL     1       6.031  25.103  54.188  1.00  0.00     0.050 A 
HETATM   35  C   UNL     1       5.893  24.873  55.652  1.00  0.00     0.062 C 
HETATM   36  C   UNL     1       7.144  24.743  53.460  1.00  0.00     0.013 A 
HETATM   37  C   UNL     1       7.149  24.223  56.271  1.00  0.00     0.031 C 
HETATM   38  C   UNL     1       8.001  23.320  55.325  1.00  0.00     0.084 C 
HETATM   39  C   UNL     1       8.359  24.110  54.030  1.00  0.00     0.073 C 
HETATM   40  S   UNL     1       6.924  25.109  51.815  1.00  0.00    -0.055 SA
BRANCH  38  41
HETATM   41  N   UNL     1       7.551  21.920  55.198  1.00  0.00    -0.404 N 
HETATM   42  C   UNL     1       7.540  21.236  53.901  1.00  0.00     0.143 C 
HETATM   43  C   UNL     1       8.805  20.424  53.593  1.00  0.00     0.187 C 
HETATM   44  O   UNL     1       9.078  19.483  54.640  1.00  0.00    -0.388 OA
HETATM   45  C   UNL     1       9.236  20.161  55.891  1.00  0.00     0.187 C 
HETATM   46  C   UNL     1       7.990  20.991  56.253  1.00  0.00     0.143 C 
ENDBRANCH  38  41
ENDBRANCH  30  32
ENDBRANCH   5  28
TORSDOF 6
ENDMDL
