MODEL 1
REMARK VINA RESULT:      -9.8      0.000      0.000
REMARK  6 active torsions:
REMARK  status: ('A' for Active; 'I' for Inactive)
REMARK    1  A    between atoms: C_2  and  C_3 
REMARK       I    between atoms: C_3  and  N_4 
REMARK    2  A    between atoms: N_4  and  C_5 
REMARK    3  A    between atoms: C_8  and  N_9 
REMARK       I    between atoms: N_9  and  C_10 
REMARK    4  A    between atoms: C_10  and  C_11 
REMARK    5  A    between atoms: C_16  and  C_17 
REMARK    6  A    between atoms: C_23  and  C_24 
ROOT
HETATM    1  C   UNL     1       7.742  29.730  58.152  1.00  0.00     0.148 C 
HETATM    2  N   UNL     1       8.210  29.524  59.408  1.00  0.00    -0.165 NA
HETATM    3  N   UNL     1       7.932  30.683  60.027  1.00  0.00    -0.240 N 
HETATM    4  C   UNL     1       7.148  31.530  59.300  1.00  0.00     0.123 C 
HETATM    5  N   UNL     1       6.627  32.639  59.860  1.00  0.00    -0.364 N 
HETATM    6  C   UNL     1       6.586  32.853  61.314  1.00  0.00     0.143 C 
HETATM    7  C   UNL     1       7.116  31.625  62.096  1.00  0.00     0.068 C 
HETATM    8  C   UNL     1       8.299  30.942  61.403  1.00  0.00     0.221 C 
HETATM    9  C   UNL     1       7.088  30.990  58.043  1.00  0.00     0.089 C 
HETATM   10  H   UNL     1       6.061  33.289  59.316  1.00  0.00     0.162 HD
ENDROOT
BRANCH   1  11
HETATM   11  C   UNL     1       7.880  28.709  57.098  1.00  0.00     0.276 C 
HETATM   12  N   UNL     1       7.377  27.491  57.510  1.00  0.00    -0.322 N 
HETATM   13  H   UNL     1       6.961  27.523  58.437  1.00  0.00     0.169 HD
HETATM   14  O   UNL     1       8.346  28.978  55.997  1.00  0.00    -0.266 OA
BRANCH  12  15
HETATM   15  C   UNL     1       7.350  26.275  56.813  1.00  0.00     0.035 A 
HETATM   16  C   UNL     1       6.393  25.951  55.856  1.00  0.00     0.032 A 
HETATM   17  C   UNL     1       6.464  24.734  55.162  1.00  0.00     0.032 A 
HETATM   18  C   UNL     1       7.479  23.818  55.434  1.00  0.00     0.034 A 
HETATM   19  C   UNL     1       8.420  24.132  56.420  1.00  0.00     0.032 A 
HETATM   20  C   UNL     1       8.367  25.358  57.091  1.00  0.00     0.032 A 
BRANCH  18  21
HETATM   21  N   UNL     1       7.630  22.580  54.776  1.00  0.00    -0.327 N 
HETATM   22  C   UNL     1       7.879  22.369  53.433  1.00  0.00     0.221 C 
HETATM   23  O   UNL     1       7.989  23.230  52.566  1.00  0.00    -0.273 OA
HETATM   24  H   UNL     1       7.605  21.764  55.371  1.00  0.00     0.169 HD
BRANCH  22  25
HETATM   25  C   UNL     1       7.981  20.896  53.065  1.00  0.00     0.098 C 
HETATM   26  C   UNL     1       8.712  20.059  54.099  1.00  0.00     0.014 C 
ENDBRANCH  22  25
ENDBRANCH  18  21
ENDBRANCH  12  15
ENDBRANCH   1  11
BRANCH   8  27
HETATM   27  C   UNL     1       9.569  31.761  61.460  1.00  0.00     0.409 C 
HETATM   28  F   UNL     1      10.634  31.025  61.848  1.00  0.00    -0.169 F 
HETATM   29  F   UNL     1       9.883  32.360  60.294  1.00  0.00    -0.169 F 
HETATM   30  F   UNL     1       9.430  32.753  62.379  1.00  0.00    -0.169 F 
ENDBRANCH   8  27
BRANCH   6  31
HETATM   31  C   UNL     1       5.206  33.168  61.808  1.00  0.00     0.075 A 
HETATM   32  O   UNL     1       5.109  33.782  63.022  1.00  0.00    -0.325 OA
HETATM   33  C   UNL     1       3.784  33.938  63.281  1.00  0.00     0.142 A 
HETATM   34  C   UNL     1       3.026  33.427  62.253  1.00  0.00     0.027 A 
HETATM   35  C   UNL     1       3.944  32.929  61.299  1.00  0.00     0.037 A 
ENDBRANCH   6  31
TORSDOF 6
ENDMDL
MODEL 2
REMARK VINA RESULT:      -9.7      4.281     10.833
REMARK  6 active torsions:
REMARK  status: ('A' for Active; 'I' for Inactive)
REMARK    1  A    between atoms: C_2  and  C_3 
REMARK       I    between atoms: C_3  and  N_4 
REMARK    2  A    between atoms: N_4  and  C_5 
REMARK    3  A    between atoms: C_8  and  N_9 
REMARK       I    between atoms: N_9  and  C_10 
REMARK    4  A    between atoms: C_10  and  C_11 
REMARK    5  A    between atoms: C_16  and  C_17 
REMARK    6  A    between atoms: C_23  and  C_24 
ROOT
HETATM    1  C   UNL     1       6.392  28.580  55.199  1.00  0.00     0.148 C 
HETATM    2  N   UNL     1       5.281  28.060  54.624  1.00  0.00    -0.165 NA
HETATM    3  N   UNL     1       5.775  27.092  53.834  1.00  0.00    -0.240 N 
HETATM    4  C   UNL     1       7.103  26.843  54.022  1.00  0.00     0.123 C 
HETATM    5  N   UNL     1       7.693  25.777  53.448  1.00  0.00    -0.364 N 
HETATM    6  C   UNL     1       6.930  24.661  52.868  1.00  0.00     0.143 C 
HETATM    7  C   UNL     1       5.406  24.825  53.088  1.00  0.00     0.068 C 
HETATM    8  C   UNL     1       4.940  26.280  52.975  1.00  0.00     0.221 C 
HETATM    9  C   UNL     1       7.558  27.854  54.826  1.00  0.00     0.089 C 
HETATM   10  H   UNL     1       8.689  25.599  53.563  1.00  0.00     0.162 HD
ENDROOT
BRANCH   1  11
HETATM   11  C   UNL     1       6.319  29.723  56.129  1.00  0.00     0.276 C 
HETATM   12  N   UNL     1       7.087  29.502  57.255  1.00  0.00    -0.322 N 
HETATM   13  H   UNL     1       7.599  28.625  57.225  1.00  0.00     0.169 HD
HETATM   14  O   UNL     1       5.681  30.734  55.859  1.00  0.00    -0.266 OA
BRANCH  12  15
HETATM   15  C   UNL     1       7.255  30.330  58.374  1.00  0.00     0.035 A 
HETATM   16  C   UNL     1       6.441  31.422  58.661  1.00  0.00     0.032 A 
HETATM   17  C   UNL     1       6.641  32.171  59.830  1.00  0.00     0.032 A 
HETATM   18  C   UNL     1       7.671  31.851  60.712  1.00  0.00     0.034 A 
HETATM   19  C   UNL     1       8.508  30.774  60.405  1.00  0.00     0.032 A 
HETATM   20  C   UNL     1       8.291  30.008  59.255  1.00  0.00     0.032 A 
BRANCH  18  21
HETATM   21  N   UNL     1       7.933  32.544  61.912  1.00  0.00    -0.327 N 
HETATM   22  C   UNL     1       7.185  32.519  63.075  1.00  0.00     0.221 C 
HETATM   23  O   UNL     1       6.140  31.904  63.259  1.00  0.00    -0.273 OA
HETATM   24  H   UNL     1       8.794  33.072  61.933  1.00  0.00     0.169 HD
BRANCH  22  25
HETATM   25  C   UNL     1       7.763  33.393  64.179  1.00  0.00     0.098 C 
HETATM   26  C   UNL     1       6.789  33.668  65.311  1.00  0.00     0.014 C 
ENDBRANCH  22  25
ENDBRANCH  18  21
ENDBRANCH  12  15
ENDBRANCH   1  11
BRANCH   8  27
HETATM   27  C   UNL     1       4.980  26.805  51.558  1.00  0.00     0.409 C 
HETATM   28  F   UNL     1       6.124  27.474  51.294  1.00  0.00    -0.169 F 
HETATM   29  F   UNL     1       4.835  25.848  50.619  1.00  0.00    -0.169 F 
HETATM   30  F   UNL     1       3.964  27.688  51.371  1.00  0.00    -0.169 F 
ENDBRANCH   8  27
BRANCH   6  31
HETATM   31  C   UNL     1       7.348  23.332  53.422  1.00  0.00     0.075 A 
HETATM   32  O   UNL     1       7.210  23.153  54.767  1.00  0.00    -0.325 OA
HETATM   33  C   UNL     1       7.677  21.908  55.049  1.00  0.00     0.142 A 
HETATM   34  C   UNL     1       8.119  21.286  53.905  1.00  0.00     0.027 A 
HETATM   35  C   UNL     1       7.907  22.205  52.851  1.00  0.00     0.037 A 
ENDBRANCH   6  31
TORSDOF 6
ENDMDL
MODEL 3
REMARK VINA RESULT:      -9.5      3.574     10.787
REMARK  6 active torsions:
REMARK  status: ('A' for Active; 'I' for Inactive)
REMARK    1  A    between atoms: C_2  and  C_3 
REMARK       I    between atoms: C_3  and  N_4 
REMARK    2  A    between atoms: N_4  and  C_5 
REMARK    3  A    between atoms: C_8  and  N_9 
REMARK       I    between atoms: N_9  and  C_10 
REMARK    4  A    between atoms: C_10  and  C_11 
REMARK    5  A    between atoms: C_16  and  C_17 
REMARK    6  A    between atoms: C_23  and  C_24 
ROOT
HETATM    1  C   UNL     1       7.631  30.821  58.749  1.00  0.00     0.148 C 
HETATM    2  N   UNL     1       6.390  30.377  58.436  1.00  0.00    -0.165 NA
HETATM    3  N   UNL     1       6.624  29.500  57.446  1.00  0.00    -0.240 N 
HETATM    4  C   UNL     1       7.944  29.221  57.248  1.00  0.00     0.123 C 
HETATM    5  N   UNL     1       8.322  28.222  56.428  1.00  0.00    -0.364 N 
HETATM    6  C   UNL     1       7.394  27.184  55.956  1.00  0.00     0.143 C 
HETATM    7  C   UNL     1       5.988  27.334  56.587  1.00  0.00     0.068 C 
HETATM    8  C   UNL     1       5.563  28.796  56.757  1.00  0.00     0.221 C 
HETATM    9  C   UNL     1       8.631  30.132  58.005  1.00  0.00     0.089 C 
HETATM   10  H   UNL     1       9.307  28.024  56.257  1.00  0.00     0.162 HD
ENDROOT
BRANCH   1  11
HETATM   11  C   UNL     1       7.847  31.852  59.780  1.00  0.00     0.276 C 
HETATM   12  N   UNL     1       6.987  31.682  60.847  1.00  0.00    -0.322 N 
HETATM   13  H   UNL     1       6.397  30.858  60.759  1.00  0.00     0.169 HD
HETATM   14  O   UNL     1       8.726  32.699  59.672  1.00  0.00    -0.266 OA
BRANCH  12  15
HETATM   15  C   UNL     1       6.861  32.466  62.003  1.00  0.00     0.035 A 
HETATM   16  C   UNL     1       5.910  33.470  62.160  1.00  0.00     0.032 A 
HETATM   17  C   UNL     1       5.814  34.176  63.368  1.00  0.00     0.032 A 
HETATM   18  C   UNL     1       6.682  33.902  64.424  1.00  0.00     0.034 A 
HETATM   19  C   UNL     1       7.658  32.915  64.251  1.00  0.00     0.032 A 
HETATM   20  C   UNL     1       7.736  32.190  63.058  1.00  0.00     0.032 A 
BRANCH  18  21
HETATM   21  N   UNL     1       6.645  34.554  65.673  1.00  0.00    -0.327 N 
HETATM   22  C   UNL     1       5.693  34.414  66.665  1.00  0.00     0.221 C 
HETATM   23  O   UNL     1       4.691  33.707  66.622  1.00  0.00    -0.273 OA
HETATM   24  H   UNL     1       7.435  35.149  65.878  1.00  0.00     0.169 HD
BRANCH  22  25
HETATM   25  C   UNL     1       5.966  35.278  67.888  1.00  0.00     0.098 C 
HETATM   26  C   UNL     1       7.064  34.734  68.785  1.00  0.00     0.014 C 
ENDBRANCH  22  25
ENDBRANCH  18  21
ENDBRANCH  12  15
ENDBRANCH   1  11
BRANCH   8  27
HETATM   27  C   UNL     1       5.250  29.476  55.444  1.00  0.00     0.409 C 
HETATM   28  F   UNL     1       5.869  28.882  54.401  1.00  0.00    -0.169 F 
HETATM   29  F   UNL     1       3.933  29.537  55.162  1.00  0.00    -0.169 F 
HETATM   30  F   UNL     1       5.697  30.759  55.479  1.00  0.00    -0.169 F 
ENDBRANCH   8  27
BRANCH   6  31
HETATM   31  C   UNL     1       7.893  25.798  56.235  1.00  0.00     0.075 A 
HETATM   32  O   UNL     1       7.839  24.903  55.207  1.00  0.00    -0.325 OA
HETATM   33  C   UNL     1       8.302  23.720  55.690  1.00  0.00     0.142 A 
HETATM   34  C   UNL     1       8.649  23.840  57.015  1.00  0.00     0.027 A 
HETATM   35  C   UNL     1       8.385  25.184  57.370  1.00  0.00     0.037 A 
ENDBRANCH   6  31
TORSDOF 6
ENDMDL
MODEL 4
REMARK VINA RESULT:      -9.1      7.885     11.569
REMARK  6 active torsions:
REMARK  status: ('A' for Active; 'I' for Inactive)
REMARK    1  A    between atoms: C_2  and  C_3 
REMARK       I    between atoms: C_3  and  N_4 
REMARK    2  A    between atoms: N_4  and  C_5 
REMARK    3  A    between atoms: C_8  and  N_9 
REMARK       I    between atoms: N_9  and  C_10 
REMARK    4  A    between atoms: C_10  and  C_11 
REMARK    5  A    between atoms: C_16  and  C_17 
REMARK    6  A    between atoms: C_23  and  C_24 
ROOT
HETATM    1  C   UNL     1       5.259  26.688  51.025  1.00  0.00     0.148 C 
HETATM    2  N   UNL     1       6.346  27.122  51.708  1.00  0.00    -0.165 NA
HETATM    3  N   UNL     1       6.443  26.238  52.714  1.00  0.00    -0.240 N 
HETATM    4  C   UNL     1       5.606  25.168  52.599  1.00  0.00     0.123 C 
HETATM    5  N   UNL     1       5.724  24.108  53.422  1.00  0.00    -0.364 N 
HETATM    6  C   UNL     1       6.912  23.877  54.258  1.00  0.00     0.143 C 
HETATM    7  C   UNL     1       8.016  24.931  53.998  1.00  0.00     0.068 C 
HETATM    8  C   UNL     1       7.456  26.333  53.744  1.00  0.00     0.221 C 
HETATM    9  C   UNL     1       4.754  25.474  51.572  1.00  0.00     0.089 C 
HETATM   10  H   UNL     1       5.086  23.316  53.358  1.00  0.00     0.162 HD
ENDROOT
BRANCH   1  11
HETATM   11  C   UNL     1       4.752  27.405  49.841  1.00  0.00     0.276 C 
HETATM   12  N   UNL     1       3.386  27.249  49.707  1.00  0.00    -0.322 N 
HETATM   13  H   UNL     1       2.968  26.715  50.464  1.00  0.00     0.169 HD
HETATM   14  O   UNL     1       5.489  28.079  49.130  1.00  0.00    -0.266 OA
BRANCH  12  15
HETATM   15  C   UNL     1       2.544  27.748  48.704  1.00  0.00     0.035 A 
HETATM   16  C   UNL     1       2.179  29.086  48.590  1.00  0.00     0.032 A 
HETATM   17  C   UNL     1       1.374  29.517  47.526  1.00  0.00     0.032 A 
HETATM   18  C   UNL     1       0.905  28.610  46.576  1.00  0.00     0.034 A 
HETATM   19  C   UNL     1       1.246  27.261  46.711  1.00  0.00     0.032 A 
HETATM   20  C   UNL     1       2.073  26.835  47.755  1.00  0.00     0.032 A 
BRANCH  18  21
HETATM   21  N   UNL     1       0.103  28.961  45.471  1.00  0.00    -0.327 N 
HETATM   22  C   UNL     1      -1.269  28.828  45.354  1.00  0.00     0.221 C 
HETATM   23  O   UNL     1      -2.031  28.355  46.190  1.00  0.00    -0.273 OA
HETATM   24  H   UNL     1       0.587  29.408  44.705  1.00  0.00     0.169 HD
BRANCH  22  25
HETATM   25  C   UNL     1      -1.806  29.308  44.013  1.00  0.00     0.098 C 
HETATM   26  C   UNL     1      -1.850  30.820  43.881  1.00  0.00     0.014 C 
ENDBRANCH  22  25
ENDBRANCH  18  21
ENDBRANCH  12  15
ENDBRANCH   1  11
BRANCH   8  27
HETATM   27  C   UNL     1       6.878  26.972  54.987  1.00  0.00     0.409 C 
HETATM   28  F   UNL     1       7.079  28.308  55.015  1.00  0.00    -0.169 F 
HETATM   29  F   UNL     1       5.559  26.748  55.151  1.00  0.00    -0.169 F 
HETATM   30  F   UNL     1       7.496  26.466  56.087  1.00  0.00    -0.169 F 
ENDBRANCH   8  27
BRANCH   6  31
HETATM   31  C   UNL     1       7.500  22.513  54.052  1.00  0.00     0.075 A 
HETATM   32  O   UNL     1       7.656  21.734  55.161  1.00  0.00    -0.325 OA
HETATM   33  C   UNL     1       8.230  20.573  54.749  1.00  0.00     0.142 A 
HETATM   34  C   UNL     1       8.452  20.597  53.392  1.00  0.00     0.027 A 
HETATM   35  C   UNL     1       7.980  21.851  52.939  1.00  0.00     0.037 A 
ENDBRANCH   6  31
TORSDOF 6
ENDMDL
MODEL 5
REMARK VINA RESULT:      -8.8      3.525      5.481
REMARK  6 active torsions:
REMARK  status: ('A' for Active; 'I' for Inactive)
REMARK    1  A    between atoms: C_2  and  C_3 
REMARK       I    between atoms: C_3  and  N_4 
REMARK    2  A    between atoms: N_4  and  C_5 
REMARK    3  A    between atoms: C_8  and  N_9 
REMARK       I    between atoms: N_9  and  C_10 
REMARK    4  A    between atoms: C_10  and  C_11 
REMARK    5  A    between atoms: C_16  and  C_17 
REMARK    6  A    between atoms: C_23  and  C_24 
ROOT
HETATM    1  C   UNL     1       6.613  32.724  61.215  1.00  0.00     0.148 C 
HETATM    2  N   UNL     1       6.339  34.048  61.293  1.00  0.00    -0.165 NA
HETATM    3  N   UNL     1       5.613  34.141  62.419  1.00  0.00    -0.240 N 
HETATM    4  C   UNL     1       5.577  32.994  63.155  1.00  0.00     0.123 C 
HETATM    5  N   UNL     1       5.056  32.988  64.397  1.00  0.00    -0.364 N 
HETATM    6  C   UNL     1       4.794  34.219  65.158  1.00  0.00     0.143 C 
HETATM    7  C   UNL     1       5.276  35.481  64.400  1.00  0.00     0.068 C 
HETATM    8  C   UNL     1       5.052  35.391  62.887  1.00  0.00     0.221 C 
HETATM    9  C   UNL     1       6.130  32.027  62.359  1.00  0.00     0.089 C 
HETATM   10  H   UNL     1       5.004  32.129  64.944  1.00  0.00     0.162 HD
ENDROOT
BRANCH   1  11
HETATM   11  C   UNL     1       7.370  32.155  60.085  1.00  0.00     0.276 C 
HETATM   12  N   UNL     1       6.653  31.158  59.453  1.00  0.00    -0.322 N 
HETATM   13  H   UNL     1       5.723  31.027  59.840  1.00  0.00     0.169 HD
HETATM   14  O   UNL     1       8.472  32.586  59.765  1.00  0.00    -0.266 OA
BRANCH  12  15
HETATM   15  C   UNL     1       7.036  30.363  58.364  1.00  0.00     0.035 A 
HETATM   16  C   UNL     1       8.115  29.484  58.386  1.00  0.00     0.032 A 
HETATM   17  C   UNL     1       8.403  28.682  57.272  1.00  0.00     0.032 A 
HETATM   18  C   UNL     1       7.630  28.767  56.115  1.00  0.00     0.034 A 
HETATM   19  C   UNL     1       6.567  29.675  56.084  1.00  0.00     0.032 A 
HETATM   20  C   UNL     1       6.260  30.453  57.204  1.00  0.00     0.032 A 
BRANCH  18  21
HETATM   21  N   UNL     1       7.844  27.990  54.958  1.00  0.00    -0.327 N 
HETATM   22  C   UNL     1       7.227  26.800  54.621  1.00  0.00     0.221 C 
HETATM   23  O   UNL     1       6.395  26.194  55.288  1.00  0.00    -0.273 OA
HETATM   24  H   UNL     1       8.482  28.383  54.280  1.00  0.00     0.169 HD
BRANCH  22  25
HETATM   25  C   UNL     1       7.703  26.231  53.292  1.00  0.00     0.098 C 
HETATM   26  C   UNL     1       7.828  24.718  53.287  1.00  0.00     0.014 C 
ENDBRANCH  22  25
ENDBRANCH  18  21
ENDBRANCH  12  15
ENDBRANCH   1  11
BRANCH   8  27
HETATM   27  C   UNL     1       3.593  35.486  62.500  1.00  0.00     0.409 C 
HETATM   28  F   UNL     1       3.428  35.963  61.247  1.00  0.00    -0.169 F 
HETATM   29  F   UNL     1       2.929  34.316  62.588  1.00  0.00    -0.169 F 
HETATM   30  F   UNL     1       2.959  36.355  63.331  1.00  0.00    -0.169 F 
ENDBRANCH   8  27
BRANCH   6  31
HETATM   31  C   UNL     1       5.440  34.204  66.511  1.00  0.00     0.075 A 
HETATM   32  O   UNL     1       4.608  34.168  67.592  1.00  0.00    -0.325 OA
HETATM   33  C   UNL     1       5.396  34.197  68.698  1.00  0.00     0.142 A 
HETATM   34  C   UNL     1       6.724  34.256  68.344  1.00  0.00     0.027 A 
HETATM   35  C   UNL     1       6.755  34.261  66.930  1.00  0.00     0.037 A 
ENDBRANCH   6  31
TORSDOF 6
ENDMDL
MODEL 6
REMARK VINA RESULT:      -8.7      6.305     11.311
REMARK  6 active torsions:
REMARK  status: ('A' for Active; 'I' for Inactive)
REMARK    1  A    between atoms: C_2  and  C_3 
REMARK       I    between atoms: C_3  and  N_4 
REMARK    2  A    between atoms: N_4  and  C_5 
REMARK    3  A    between atoms: C_8  and  N_9 
REMARK       I    between atoms: N_9  and  C_10 
REMARK    4  A    between atoms: C_10  and  C_11 
REMARK    5  A    between atoms: C_16  and  C_17 
REMARK    6  A    between atoms: C_23  and  C_24 
ROOT
HETATM    1  C   UNL     1       5.069  28.743  53.159  1.00  0.00     0.148 C 
HETATM    2  N   UNL     1       4.434  29.666  52.396  1.00  0.00    -0.165 NA
HETATM    3  N   UNL     1       4.652  29.226  51.146  1.00  0.00    -0.240 N 
HETATM    4  C   UNL     1       5.217  27.986  51.082  1.00  0.00     0.123 C 
HETATM    5  N   UNL     1       5.316  27.334  49.908  1.00  0.00    -0.364 N 
HETATM    6  C   UNL     1       4.568  27.736  48.707  1.00  0.00     0.143 C 
HETATM    7  C   UNL     1       3.604  28.914  48.993  1.00  0.00     0.068 C 
HETATM    8  C   UNL     1       4.186  29.936  49.974  1.00  0.00     0.221 C 
HETATM    9  C   UNL     1       5.592  27.685  52.363  1.00  0.00     0.089 C 
HETATM   10  H   UNL     1       5.758  26.418  49.848  1.00  0.00     0.162 HD
ENDROOT
BRANCH   1  11
HETATM   11  C   UNL     1       5.124  28.859  54.628  1.00  0.00     0.276 C 
HETATM   12  N   UNL     1       6.131  29.715  55.026  1.00  0.00    -0.322 N 
HETATM   13  H   UNL     1       6.620  30.148  54.247  1.00  0.00     0.169 HD
HETATM   14  O   UNL     1       4.320  28.282  55.351  1.00  0.00    -0.266 OA
BRANCH  12  15
HETATM   15  C   UNL     1       6.519  30.063  56.327  1.00  0.00     0.035 A 
HETATM   16  C   UNL     1       5.807  30.938  57.142  1.00  0.00     0.032 A 
HETATM   17  C   UNL     1       6.231  31.195  58.454  1.00  0.00     0.032 A 
HETATM   18  C   UNL     1       7.386  30.598  58.958  1.00  0.00     0.034 A 
HETATM   19  C   UNL     1       8.118  29.745  58.126  1.00  0.00     0.032 A 
HETATM   20  C   UNL     1       7.679  29.465  56.828  1.00  0.00     0.032 A 
BRANCH  18  21
HETATM   21  N   UNL     1       7.875  30.793  60.266  1.00  0.00    -0.327 N 
HETATM   22  C   UNL     1       8.776  31.751  60.691  1.00  0.00     0.221 C 
HETATM   23  O   UNL     1       9.331  32.593  59.993  1.00  0.00    -0.273 OA
HETATM   24  H   UNL     1       7.475  30.193  60.975  1.00  0.00     0.169 HD
BRANCH  22  25
HETATM   25  C   UNL     1       9.084  31.668  62.179  1.00  0.00     0.098 C 
HETATM   26  C   UNL     1       8.033  32.324  63.056  1.00  0.00     0.014 C 
ENDBRANCH  22  25
ENDBRANCH  18  21
ENDBRANCH  12  15
ENDBRANCH   1  11
BRANCH   8  27
HETATM   27  C   UNL     1       5.309  30.755  49.377  1.00  0.00     0.409 C 
HETATM   28  F   UNL     1       6.524  30.238  49.662  1.00  0.00    -0.169 F 
HETATM   29  F   UNL     1       5.225  30.900  48.039  1.00  0.00    -0.169 F 
HETATM   30  F   UNL     1       5.288  32.007  49.904  1.00  0.00    -0.169 F 
ENDBRANCH   8  27
BRANCH   6  31
HETATM   31  C   UNL     1       3.774  26.606  48.122  1.00  0.00     0.075 A 
HETATM   32  O   UNL     1       3.752  25.437  48.825  1.00  0.00    -0.325 OA
HETATM   33  C   UNL     1       3.013  24.556  48.102  1.00  0.00     0.142 A 
HETATM   34  C   UNL     1       2.563  25.139  46.940  1.00  0.00     0.027 A 
HETATM   35  C   UNL     1       3.054  26.466  46.952  1.00  0.00     0.037 A 
ENDBRANCH   6  31
TORSDOF 6
ENDMDL
MODEL 7
REMARK VINA RESULT:      -8.7      4.175      5.053
REMARK  6 active torsions:
REMARK  status: ('A' for Active; 'I' for Inactive)
REMARK    1  A    between atoms: C_2  and  C_3 
REMARK       I    between atoms: C_3  and  N_4 
REMARK    2  A    between atoms: N_4  and  C_5 
REMARK    3  A    between atoms: C_8  and  N_9 
REMARK       I    between atoms: N_9  and  C_10 
REMARK    4  A    between atoms: C_10  and  C_11 
REMARK    5  A    between atoms: C_16  and  C_17 
REMARK    6  A    between atoms: C_23  and  C_24 
ROOT
HETATM    1  C   UNL     1       6.556  29.401  56.469  1.00  0.00     0.148 C 
HETATM    2  N   UNL     1       7.729  28.938  56.967  1.00  0.00    -0.165 NA
HETATM    3  N   UNL     1       8.154  29.957  57.732  1.00  0.00    -0.240 N 
HETATM    4  C   UNL     1       7.235  30.950  57.900  1.00  0.00     0.123 C 
HETATM    5  N   UNL     1       7.442  31.938  58.793  1.00  0.00    -0.364 N 
HETATM    6  C   UNL     1       8.467  31.859  59.844  1.00  0.00     0.143 C 
HETATM    7  C   UNL     1       9.187  30.488  59.849  1.00  0.00     0.068 C 
HETATM    8  C   UNL     1       9.415  29.928  58.442  1.00  0.00     0.221 C 
HETATM    9  C   UNL     1       6.226  30.673  57.017  1.00  0.00     0.089 C 
HETATM   10  H   UNL     1       6.771  32.696  58.906  1.00  0.00     0.162 HD
ENDROOT
BRANCH   1  11
HETATM   11  C   UNL     1       5.751  28.607  55.523  1.00  0.00     0.276 C 
HETATM   12  N   UNL     1       6.276  28.662  54.247  1.00  0.00    -0.322 N 
HETATM   13  H   UNL     1       7.142  29.192  54.194  1.00  0.00     0.169 HD
HETATM   14  O   UNL     1       4.775  27.961  55.890  1.00  0.00    -0.266 OA
BRANCH  12  15
HETATM   15  C   UNL     1       5.788  28.069  53.075  1.00  0.00     0.035 A 
HETATM   16  C   UNL     1       6.222  26.840  52.587  1.00  0.00     0.032 A 
HETATM   17  C   UNL     1       5.646  26.288  51.433  1.00  0.00     0.032 A 
HETATM   18  C   UNL     1       4.646  26.969  50.742  1.00  0.00     0.034 A 
HETATM   19  C   UNL     1       4.235  28.219  51.215  1.00  0.00     0.032 A 
HETATM   20  C   UNL     1       4.787  28.757  52.382  1.00  0.00     0.032 A 
BRANCH  18  21
HETATM   21  N   UNL     1       4.007  26.481  49.584  1.00  0.00    -0.327 N 
HETATM   22  C   UNL     1       4.299  26.794  48.269  1.00  0.00     0.221 C 
HETATM   23  O   UNL     1       5.158  27.577  47.878  1.00  0.00    -0.273 OA
HETATM   24  H   UNL     1       3.293  25.784  49.740  1.00  0.00     0.169 HD
BRANCH  22  25
HETATM   25  C   UNL     1       3.402  26.081  47.268  1.00  0.00     0.098 C 
HETATM   26  C   UNL     1       1.976  26.603  47.249  1.00  0.00     0.014 C 
ENDBRANCH  22  25
ENDBRANCH  18  21
ENDBRANCH  12  15
ENDBRANCH   1  11
BRANCH   8  27
HETATM   27  C   UNL     1      10.469  30.689  57.668  1.00  0.00     0.409 C 
HETATM   28  F   UNL     1      10.536  31.987  58.037  1.00  0.00    -0.169 F 
HETATM   29  F   UNL     1      11.706  30.164  57.775  1.00  0.00    -0.169 F 
HETATM   30  F   UNL     1      10.156  30.679  56.345  1.00  0.00    -0.169 F 
ENDBRANCH   8  27
BRANCH   6  31
HETATM   31  C   UNL     1       7.903  32.103  61.212  1.00  0.00     0.075 A 
HETATM   32  O   UNL     1       6.599  32.495  61.282  1.00  0.00    -0.325 OA
HETATM   33  C   UNL     1       6.315  32.690  62.597  1.00  0.00     0.142 A 
HETATM   34  C   UNL     1       7.420  32.434  63.374  1.00  0.00     0.027 A 
HETATM   35  C   UNL     1       8.449  32.053  62.480  1.00  0.00     0.037 A 
ENDBRANCH   6  31
TORSDOF 6
ENDMDL
MODEL 8
REMARK VINA RESULT:      -8.6      3.599     10.983
REMARK  6 active torsions:
REMARK  status: ('A' for Active; 'I' for Inactive)
REMARK    1  A    between atoms: C_2  and  C_3 
REMARK       I    between atoms: C_3  and  N_4 
REMARK    2  A    between atoms: N_4  and  C_5 
REMARK    3  A    between atoms: C_8  and  N_9 
REMARK       I    between atoms: N_9  and  C_10 
REMARK    4  A    between atoms: C_10  and  C_11 
REMARK    5  A    between atoms: C_16  and  C_17 
REMARK    6  A    between atoms: C_23  and  C_24 
ROOT
HETATM    1  C   UNL     1       7.188  30.100  57.853  1.00  0.00     0.148 C 
HETATM    2  N   UNL     1       5.943  29.608  57.640  1.00  0.00    -0.165 NA
HETATM    3  N   UNL     1       6.153  28.634  56.741  1.00  0.00    -0.240 N 
HETATM    4  C   UNL     1       7.469  28.353  56.519  1.00  0.00     0.123 C 
HETATM    5  N   UNL     1       7.832  27.276  55.796  1.00  0.00    -0.364 N 
HETATM    6  C   UNL     1       6.904  26.182  55.475  1.00  0.00     0.143 C 
HETATM    7  C   UNL     1       5.521  26.380  56.144  1.00  0.00     0.068 C 
HETATM    8  C   UNL     1       5.078  27.846  56.175  1.00  0.00     0.221 C 
HETATM    9  C   UNL     1       8.169  29.348  57.147  1.00  0.00     0.089 C 
HETATM   10  H   UNL     1       8.813  27.074  55.606  1.00  0.00     0.162 HD
ENDROOT
BRANCH   1  11
HETATM   11  C   UNL     1       7.426  31.238  58.759  1.00  0.00     0.276 C 
HETATM   12  N   UNL     1       6.347  31.447  59.596  1.00  0.00    -0.322 N 
HETATM   13  H   UNL     1       5.609  30.759  59.477  1.00  0.00     0.169 HD
HETATM   14  O   UNL     1       8.486  31.854  58.757  1.00  0.00    -0.266 OA
BRANCH  12  15
HETATM   15  C   UNL     1       6.177  32.440  60.570  1.00  0.00     0.035 A 
HETATM   16  C   UNL     1       7.011  32.597  61.674  1.00  0.00     0.032 A 
HETATM   17  C   UNL     1       6.806  33.649  62.578  1.00  0.00     0.032 A 
HETATM   18  C   UNL     1       5.751  34.543  62.402  1.00  0.00     0.034 A 
HETATM   19  C   UNL     1       4.894  34.364  61.310  1.00  0.00     0.032 A 
HETATM   20  C   UNL     1       5.116  33.333  60.392  1.00  0.00     0.032 A 
BRANCH  18  21
HETATM   21  N   UNL     1       5.482  35.633  63.255  1.00  0.00    -0.327 N 
HETATM   22  C   UNL     1       5.732  36.971  63.011  1.00  0.00     0.221 C 
HETATM   23  O   UNL     1       6.259  37.445  62.010  1.00  0.00    -0.273 OA
HETATM   24  H   UNL     1       5.004  35.406  64.116  1.00  0.00     0.169 HD
BRANCH  22  25
HETATM   25  C   UNL     1       5.314  37.878  64.159  1.00  0.00     0.098 C 
HETATM   26  C   UNL     1       6.105  39.173  64.231  1.00  0.00     0.014 C 
ENDBRANCH  22  25
ENDBRANCH  18  21
ENDBRANCH  12  15
ENDBRANCH   1  11
BRANCH   8  27
HETATM   27  C   UNL     1       4.702  28.378  54.810  1.00  0.00     0.409 C 
HETATM   28  F   UNL     1       3.676  29.255  54.869  1.00  0.00    -0.169 F 
HETATM   29  F   UNL     1       5.720  28.975  54.160  1.00  0.00    -0.169 F 
HETATM   30  F   UNL     1       4.287  27.351  54.021  1.00  0.00    -0.169 F 
ENDBRANCH   8  27
BRANCH   6  31
HETATM   31  C   UNL     1       7.438  24.841  55.880  1.00  0.00     0.075 A 
HETATM   32  O   UNL     1       6.987  23.759  55.181  1.00  0.00    -0.325 OA
HETATM   33  C   UNL     1       7.567  22.662  55.734  1.00  0.00     0.142 A 
HETATM   34  C   UNL     1       8.381  23.021  56.783  1.00  0.00     0.027 A 
HETATM   35  C   UNL     1       8.299  24.430  56.879  1.00  0.00     0.037 A 
ENDBRANCH   6  31
TORSDOF 6
ENDMDL
MODEL 9
REMARK VINA RESULT:      -8.5      8.594     11.163
REMARK  6 active torsions:
REMARK  status: ('A' for Active; 'I' for Inactive)
REMARK    1  A    between atoms: C_2  and  C_3 
REMARK       I    between atoms: C_3  and  N_4 
REMARK    2  A    between atoms: N_4  and  C_5 
REMARK    3  A    between atoms: C_8  and  N_9 
REMARK       I    between atoms: N_9  and  C_10 
REMARK    4  A    between atoms: C_10  and  C_11 
REMARK    5  A    between atoms: C_16  and  C_17 
REMARK    6  A    between atoms: C_23  and  C_24 
ROOT
HETATM    1  C   UNL     1       4.883  28.354  50.356  1.00  0.00     0.148 C 
HETATM    2  N   UNL     1       4.342  29.594  50.436  1.00  0.00    -0.165 NA
HETATM    3  N   UNL     1       3.845  29.786  49.203  1.00  0.00    -0.240 N 
HETATM    4  C   UNL     1       3.867  28.674  48.413  1.00  0.00     0.123 C 
HETATM    5  N   UNL     1       3.230  28.659  47.227  1.00  0.00    -0.364 N 
HETATM    6  C   UNL     1       2.230  29.668  46.846  1.00  0.00     0.143 C 
HETATM    7  C   UNL     1       1.946  30.664  47.997  1.00  0.00     0.068 C 
HETATM    8  C   UNL     1       3.199  31.018  48.803  1.00  0.00     0.221 C 
HETATM    9  C   UNL     1       4.623  27.755  49.090  1.00  0.00     0.089 C 
HETATM   10  H   UNL     1       3.263  27.840  46.620  1.00  0.00     0.162 HD
ENDROOT
BRANCH   1  11
HETATM   11  C   UNL     1       5.592  27.744  51.496  1.00  0.00     0.276 C 
HETATM   12  N   UNL     1       5.658  26.370  51.368  1.00  0.00    -0.322 N 
HETATM   13  H   UNL     1       5.255  26.029  50.500  1.00  0.00     0.169 HD
HETATM   14  O   UNL     1       6.081  28.424  52.390  1.00  0.00    -0.266 OA
BRANCH  12  15
HETATM   15  C   UNL     1       6.220  25.437  52.250  1.00  0.00     0.035 A 
HETATM   16  C   UNL     1       5.642  25.067  53.462  1.00  0.00     0.032 A 
HETATM   17  C   UNL     1       6.239  24.086  54.266  1.00  0.00     0.032 A 
HETATM   18  C   UNL     1       7.433  23.479  53.879  1.00  0.00     0.034 A 
HETATM   19  C   UNL     1       8.029  23.876  52.677  1.00  0.00     0.032 A 
HETATM   20  C   UNL     1       7.419  24.833  51.861  1.00  0.00     0.032 A 
BRANCH  18  21
HETATM   21  N   UNL     1       8.092  22.478  54.621  1.00  0.00    -0.327 N 
HETATM   22  C   UNL     1       8.160  21.127  54.332  1.00  0.00     0.221 C 
HETATM   23  O   UNL     1       7.632  20.556  53.383  1.00  0.00    -0.273 OA
HETATM   24  H   UNL     1       8.616  22.801  55.422  1.00  0.00     0.169 HD
BRANCH  22  25
HETATM   25  C   UNL     1       8.957  20.333  55.356  1.00  0.00     0.098 C 
HETATM   26  C   UNL     1       8.667  20.728  56.794  1.00  0.00     0.014 C 
ENDBRANCH  22  25
ENDBRANCH  18  21
ENDBRANCH  12  15
ENDBRANCH   1  11
BRANCH   8  27
HETATM   27  C   UNL     1       4.167  31.891  48.037  1.00  0.00     0.409 C 
HETATM   28  F   UNL     1       4.861  32.718  48.849  1.00  0.00    -0.169 F 
HETATM   29  F   UNL     1       5.054  31.198  47.296  1.00  0.00    -0.169 F 
HETATM   30  F   UNL     1       3.478  32.685  47.175  1.00  0.00    -0.169 F 
ENDBRANCH   8  27
BRANCH   6  31
HETATM   31  C   UNL     1       0.931  29.054  46.419  1.00  0.00     0.075 A 
HETATM   32  O   UNL     1       0.083  29.842  45.696  1.00  0.00    -0.325 OA
HETATM   33  C   UNL     1      -1.031  29.102  45.452  1.00  0.00     0.142 A 
HETATM   34  C   UNL     1      -0.914  27.851  46.011  1.00  0.00     0.027 A 
HETATM   35  C   UNL     1       0.354  27.818  46.637  1.00  0.00     0.037 A 
ENDBRANCH   6  31
TORSDOF 6
ENDMDL
MODEL 10
REMARK VINA RESULT:      -8.5      9.044     11.084
REMARK  6 active torsions:
REMARK  status: ('A' for Active; 'I' for Inactive)
REMARK    1  A    between atoms: C_2  and  C_3 
REMARK       I    between atoms: C_3  and  N_4 
REMARK    2  A    between atoms: N_4  and  C_5 
REMARK    3  A    between atoms: C_8  and  N_9 
REMARK       I    between atoms: N_9  and  C_10 
REMARK    4  A    between atoms: C_10  and  C_11 
REMARK    5  A    between atoms: C_16  and  C_17 
REMARK    6  A    between atoms: C_23  and  C_24 
ROOT
HETATM    1  C   UNL     1       4.695  27.921  49.626  1.00  0.00     0.148 C 
HETATM    2  N   UNL     1       3.982  28.035  48.479  1.00  0.00    -0.165 NA
HETATM    3  N   UNL     1       3.953  29.361  48.272  1.00  0.00    -0.240 N 
HETATM    4  C   UNL     1       4.764  30.074  49.106  1.00  0.00     0.123 C 
HETATM    5  N   UNL     1       4.989  31.385  48.894  1.00  0.00    -0.364 N 
HETATM    6  C   UNL     1       4.665  32.054  47.625  1.00  0.00     0.143 C 
HETATM    7  C   UNL     1       4.137  31.058  46.564  1.00  0.00     0.068 C 
HETATM    8  C   UNL     1       3.247  29.965  47.162  1.00  0.00     0.221 C 
HETATM    9  C   UNL     1       5.183  29.186  50.060  1.00  0.00     0.089 C 
HETATM   10  H   UNL     1       5.574  31.929  49.527  1.00  0.00     0.162 HD
ENDROOT
BRANCH   1  11
HETATM   11  C   UNL     1       4.941  26.612  50.258  1.00  0.00     0.276 C 
HETATM   12  N   UNL     1       5.775  26.732  51.352  1.00  0.00    -0.322 N 
HETATM   13  H   UNL     1       6.031  27.694  51.557  1.00  0.00     0.169 HD
HETATM   14  O   UNL     1       4.406  25.588  49.849  1.00  0.00    -0.266 OA
BRANCH  12  15
HETATM   15  C   UNL     1       6.263  25.723  52.194  1.00  0.00     0.035 A 
HETATM   16  C   UNL     1       5.596  25.266  53.327  1.00  0.00     0.032 A 
HETATM   17  C   UNL     1       6.125  24.215  54.090  1.00  0.00     0.032 A 
HETATM   18  C   UNL     1       7.338  23.624  53.741  1.00  0.00     0.034 A 
HETATM   19  C   UNL     1       8.022  24.106  52.621  1.00  0.00     0.032 A 
HETATM   20  C   UNL     1       7.481  25.134  51.843  1.00  0.00     0.032 A 
BRANCH  18  21
HETATM   21  N   UNL     1       7.933  22.556  54.444  1.00  0.00    -0.327 N 
HETATM   22  C   UNL     1       8.008  21.232  54.053  1.00  0.00     0.221 C 
HETATM   23  O   UNL     1       7.544  20.746  53.027  1.00  0.00    -0.273 OA
HETATM   24  H   UNL     1       8.401  22.807  55.304  1.00  0.00     0.169 HD
BRANCH  22  25
HETATM   25  C   UNL     1       8.722  20.347  55.064  1.00  0.00     0.098 C 
HETATM   26  C   UNL     1       8.558  20.809  56.502  1.00  0.00     0.014 C 
ENDBRANCH  22  25
ENDBRANCH  18  21
ENDBRANCH  12  15
ENDBRANCH   1  11
BRANCH   8  27
HETATM   27  C   UNL     1       1.901  30.482  47.617  1.00  0.00     0.409 C 
HETATM   28  F   UNL     1       1.862  30.702  48.949  1.00  0.00    -0.169 F 
HETATM   29  F   UNL     1       1.518  31.618  46.999  1.00  0.00    -0.169 F 
HETATM   30  F   UNL     1       0.944  29.555  47.351  1.00  0.00    -0.169 F 
ENDBRANCH   8  27
BRANCH   6  31
HETATM   31  C   UNL     1       5.840  32.784  47.047  1.00  0.00     0.075 A 
HETATM   32  O   UNL     1       6.680  33.401  47.928  1.00  0.00    -0.325 OA
HETATM   33  C   UNL     1       7.639  34.020  47.192  1.00  0.00     0.142 A 
HETATM   34  C   UNL     1       7.425  33.816  45.848  1.00  0.00     0.027 A 
HETATM   35  C   UNL     1       6.263  33.016  45.752  1.00  0.00     0.037 A 
ENDBRANCH   6  31
TORSDOF 6
ENDMDL
