MODEL 1
REMARK VINA RESULT:      -8.8      0.000      0.000
REMARK  4 active torsions:
REMARK  status: ('A' for Active; 'I' for Inactive)
REMARK    1  A    between atoms: C_3  and  N_4 
REMARK       I    between atoms: N_4  and  C_5 
REMARK    2  A    between atoms: C_5  and  C_6 
REMARK    3  A    between atoms: C_7  and  C_8 
REMARK    4  A    between atoms: C_16  and  C_17 
ROOT
HETATM    1  C   UNL     1       7.432  24.884  52.237  1.00  0.00     0.003 A 
HETATM    2  C   UNL     1       7.345  25.840  53.251  1.00  0.00     0.029 A 
HETATM    3  C   UNL     1       7.624  25.490  54.570  1.00  0.00     0.035 A 
HETATM    4  C   UNL     1       7.981  24.164  54.863  1.00  0.00     0.042 A 
HETATM    5  C   UNL     1       8.066  23.187  53.855  1.00  0.00    -0.021 A 
HETATM    6  C   UNL     1       7.793  23.570  52.536  1.00  0.00     0.012 A 
ENDROOT
BRANCH   3   7
HETATM    7  N   UNL     1       7.605  26.404  55.645  1.00  0.00    -0.327 N 
HETATM    8  C   UNL     1       6.499  26.901  56.301  1.00  0.00     0.227 C 
HETATM    9  O   UNL     1       5.335  26.554  56.160  1.00  0.00    -0.273 OA
HETATM   10  H   UNL     1       8.506  26.753  55.945  1.00  0.00     0.169 HD
BRANCH   8  11
HETATM   11  C   UNL     1       6.830  28.005  57.251  1.00  0.00     0.089 A 
HETATM   12  C   UNL     1       7.265  29.335  56.646  1.00  0.00     0.057 A 
HETATM   13  C   UNL     1       5.963  29.214  57.403  1.00  0.00     0.027 A 
BRANCH  12  14
HETATM   14  C   UNL     1       8.451  30.017  57.294  1.00  0.00     0.057 A 
HETATM   15  O   UNL     1       8.371  30.904  58.326  1.00  0.00    -0.327 OA
HETATM   16  C   UNL     1       9.643  31.263  58.636  1.00  0.00     0.142 A 
HETATM   17  C   UNL     1      10.540  30.618  57.818  1.00  0.00     0.027 A 
HETATM   18  C   UNL     1       9.769  29.814  56.946  1.00  0.00     0.035 A 
ENDBRANCH  12  14
ENDBRANCH   8  11
ENDBRANCH   3   7
BRANCH   5  19
HETATM   19  C   UNL     1       8.440  21.819  54.190  1.00  0.00     0.010 A 
HETATM   20  C   UNL     1       8.481  20.646  53.396  1.00  0.00     0.152 A 
HETATM   21  N   UNL     1       8.895  19.570  54.070  1.00  0.00    -0.187 NA
HETATM   22  N   UNL     1       9.123  20.044  55.303  1.00  0.00    -0.289 N 
HETATM   23  H   UNL     1       9.454  19.400  56.014  1.00  0.00     0.188 HD
HETATM   24  C   UNL     1       8.869  21.380  55.427  1.00  0.00     0.123 A 
ENDBRANCH   5  19
TORSDOF 4
ENDMDL
MODEL 2
REMARK VINA RESULT:      -8.4      2.909      8.463
REMARK  4 active torsions:
REMARK  status: ('A' for Active; 'I' for Inactive)
REMARK    1  A    between atoms: C_3  and  N_4 
REMARK       I    between atoms: N_4  and  C_5 
REMARK    2  A    between atoms: C_5  and  C_6 
REMARK    3  A    between atoms: C_7  and  C_8 
REMARK    4  A    between atoms: C_16  and  C_17 
ROOT
HETATM    1  C   UNL     1       4.890  29.313  57.089  1.00  0.00     0.003 A 
HETATM    2  C   UNL     1       5.260  27.988  56.855  1.00  0.00     0.029 A 
HETATM    3  C   UNL     1       6.551  27.557  57.153  1.00  0.00     0.035 A 
HETATM    4  C   UNL     1       7.473  28.476  57.678  1.00  0.00     0.042 A 
HETATM    5  C   UNL     1       7.119  29.817  57.913  1.00  0.00    -0.021 A 
HETATM    6  C   UNL     1       5.811  30.220  57.617  1.00  0.00     0.012 A 
ENDROOT
BRANCH   3   7
HETATM    7  N   UNL     1       6.990  26.226  56.991  1.00  0.00    -0.327 N 
HETATM    8  C   UNL     1       7.168  25.541  55.807  1.00  0.00     0.227 C 
HETATM    9  O   UNL     1       7.097  25.992  54.673  1.00  0.00    -0.273 OA
HETATM   10  H   UNL     1       7.166  25.711  57.843  1.00  0.00     0.169 HD
BRANCH   8  11
HETATM   11  C   UNL     1       7.443  24.088  56.008  1.00  0.00     0.089 A 
HETATM   12  C   UNL     1       8.729  23.534  55.403  1.00  0.00     0.057 A 
HETATM   13  C   UNL     1       8.539  23.599  56.900  1.00  0.00     0.027 A 
BRANCH  12  14
HETATM   14  C   UNL     1       8.622  22.204  54.688  1.00  0.00     0.057 A 
HETATM   15  O   UNL     1       8.945  20.998  55.234  1.00  0.00    -0.327 OA
HETATM   16  C   UNL     1       8.685  20.056  54.291  1.00  0.00     0.142 A 
HETATM   17  C   UNL     1       8.197  20.640  53.147  1.00  0.00     0.027 A 
HETATM   18  C   UNL     1       8.159  22.032  53.401  1.00  0.00     0.035 A 
ENDBRANCH  12  14
ENDBRANCH   8  11
ENDBRANCH   3   7
BRANCH   5  19
HETATM   19  C   UNL     1       8.098  30.749  58.460  1.00  0.00     0.010 A 
HETATM   20  C   UNL     1       7.942  31.856  59.330  1.00  0.00     0.152 A 
HETATM   21  N   UNL     1       9.096  32.464  59.617  1.00  0.00    -0.187 NA
HETATM   22  N   UNL     1      10.001  31.752  58.933  1.00  0.00    -0.289 N 
HETATM   23  H   UNL     1      10.977  32.026  58.994  1.00  0.00     0.188 HD
HETATM   24  C   UNL     1       9.458  30.716  58.228  1.00  0.00     0.123 A 
ENDBRANCH   5  19
TORSDOF 4
ENDMDL
MODEL 3
REMARK VINA RESULT:      -8.2     10.166     13.970
REMARK  4 active torsions:
REMARK  status: ('A' for Active; 'I' for Inactive)
REMARK    1  A    between atoms: C_3  and  N_4 
REMARK       I    between atoms: N_4  and  C_5 
REMARK    2  A    between atoms: C_5  and  C_6 
REMARK    3  A    between atoms: C_7  and  C_8 
REMARK    4  A    between atoms: C_16  and  C_17 
ROOT
HETATM    1  C   UNL     1       5.731  34.675  62.973  1.00  0.00     0.003 A 
HETATM    2  C   UNL     1       5.843  34.946  64.338  1.00  0.00     0.029 A 
HETATM    3  C   UNL     1       6.735  34.223  65.126  1.00  0.00     0.035 A 
HETATM    4  C   UNL     1       7.507  33.213  64.531  1.00  0.00     0.042 A 
HETATM    5  C   UNL     1       7.402  32.921  63.159  1.00  0.00    -0.021 A 
HETATM    6  C   UNL     1       6.507  33.672  62.388  1.00  0.00     0.012 A 
ENDROOT
BRANCH   3   7
HETATM    7  N   UNL     1       6.943  34.467  66.501  1.00  0.00    -0.327 N 
HETATM    8  C   UNL     1       6.006  34.410  67.511  1.00  0.00     0.227 C 
HETATM    9  O   UNL     1       4.850  34.021  67.429  1.00  0.00    -0.273 OA
HETATM   10  H   UNL     1       7.880  34.740  66.765  1.00  0.00     0.169 HD
BRANCH   8  11
HETATM   11  C   UNL     1       6.520  34.926  68.815  1.00  0.00     0.089 A 
HETATM   12  C   UNL     1       6.895  33.892  69.872  1.00  0.00     0.057 A 
HETATM   13  C   UNL     1       7.948  34.764  69.229  1.00  0.00     0.027 A 
BRANCH  12  14
HETATM   14  C   UNL     1       6.442  34.179  71.288  1.00  0.00     0.057 A 
HETATM   15  O   UNL     1       5.147  34.372  71.667  1.00  0.00    -0.327 OA
HETATM   16  C   UNL     1       5.155  34.571  73.010  1.00  0.00     0.142 A 
HETATM   17  C   UNL     1       6.438  34.507  73.500  1.00  0.00     0.027 A 
HETATM   18  C   UNL     1       7.273  34.257  72.384  1.00  0.00     0.035 A 
ENDBRANCH  12  14
ENDBRANCH   8  11
ENDBRANCH   3   7
BRANCH   5  19
HETATM   19  C   UNL     1       8.218  31.867  62.569  1.00  0.00     0.010 A 
HETATM   20  C   UNL     1       9.150  31.901  61.502  1.00  0.00     0.152 A 
HETATM   21  N   UNL     1       9.712  30.714  61.260  1.00  0.00    -0.187 NA
HETATM   22  N   UNL     1       9.145  29.909  62.169  1.00  0.00    -0.289 N 
HETATM   23  H   UNL     1       9.418  28.932  62.185  1.00  0.00     0.188 HD
HETATM   24  C   UNL     1       8.248  30.548  62.976  1.00  0.00     0.123 A 
ENDBRANCH   5  19
TORSDOF 4
ENDMDL
MODEL 4
REMARK VINA RESULT:      -8.2      3.231      8.633
REMARK  4 active torsions:
REMARK  status: ('A' for Active; 'I' for Inactive)
REMARK    1  A    between atoms: C_3  and  N_4 
REMARK       I    between atoms: N_4  and  C_5 
REMARK    2  A    between atoms: C_5  and  C_6 
REMARK    3  A    between atoms: C_7  and  C_8 
REMARK    4  A    between atoms: C_16  and  C_17 
ROOT
HETATM    1  C   UNL     1      10.670  30.587  57.380  1.00  0.00     0.003 A 
HETATM    2  C   UNL     1      10.079  29.525  56.694  1.00  0.00     0.029 A 
HETATM    3  C   UNL     1       8.902  28.950  57.169  1.00  0.00     0.035 A 
HETATM    4  C   UNL     1       8.330  29.446  58.350  1.00  0.00     0.042 A 
HETATM    5  C   UNL     1       8.915  30.511  59.059  1.00  0.00    -0.021 A 
HETATM    6  C   UNL     1      10.090  31.078  58.552  1.00  0.00     0.012 A 
ENDROOT
BRANCH   3   7
HETATM    7  N   UNL     1       8.218  27.907  56.510  1.00  0.00    -0.327 N 
HETATM    8  C   UNL     1       7.909  26.660  57.013  1.00  0.00     0.227 C 
HETATM    9  O   UNL     1       8.060  26.266  58.160  1.00  0.00    -0.273 OA
HETATM   10  H   UNL     1       7.950  28.089  55.552  1.00  0.00     0.169 HD
BRANCH   8  11
HETATM   11  C   UNL     1       7.363  25.732  55.979  1.00  0.00     0.089 A 
HETATM   12  C   UNL     1       7.490  24.236  56.251  1.00  0.00     0.057 A 
HETATM   13  C   UNL     1       6.137  24.908  56.213  1.00  0.00     0.027 A 
BRANCH  12  14
HETATM   14  C   UNL     1       7.934  23.373  55.091  1.00  0.00     0.057 A 
HETATM   15  O   UNL     1       9.102  22.671  55.044  1.00  0.00    -0.327 OA
HETATM   16  C   UNL     1       9.117  22.008  53.860  1.00  0.00     0.142 A 
HETATM   17  C   UNL     1       7.973  22.271  53.145  1.00  0.00     0.027 A 
HETATM   18  C   UNL     1       7.207  23.158  53.939  1.00  0.00     0.035 A 
ENDBRANCH  12  14
ENDBRANCH   8  11
ENDBRANCH   3   7
BRANCH   5  19
HETATM   19  C   UNL     1       8.297  31.006  60.283  1.00  0.00     0.010 A 
HETATM   20  C   UNL     1       8.633  30.798  61.643  1.00  0.00     0.152 A 
HETATM   21  N   UNL     1       7.821  31.440  62.488  1.00  0.00    -0.187 NA
HETATM   22  N   UNL     1       6.958  32.065  61.675  1.00  0.00    -0.289 N 
HETATM   23  H   UNL     1       6.227  32.632  62.093  1.00  0.00     0.188 HD
HETATM   24  C   UNL     1       7.199  31.840  60.350  1.00  0.00     0.123 A 
ENDBRANCH   5  19
TORSDOF 4
ENDMDL
MODEL 5
REMARK VINA RESULT:      -8.2      4.435      7.177
REMARK  4 active torsions:
REMARK  status: ('A' for Active; 'I' for Inactive)
REMARK    1  A    between atoms: C_3  and  N_4 
REMARK       I    between atoms: N_4  and  C_5 
REMARK    2  A    between atoms: C_5  and  C_6 
REMARK    3  A    between atoms: C_7  and  C_8 
REMARK    4  A    between atoms: C_16  and  C_17 
ROOT
HETATM    1  C   UNL     1       7.628  25.595  55.019  1.00  0.00     0.003 A 
HETATM    2  C   UNL     1       7.137  26.173  53.847  1.00  0.00     0.029 A 
HETATM    3  C   UNL     1       6.977  25.402  52.698  1.00  0.00     0.035 A 
HETATM    4  C   UNL     1       7.327  24.043  52.735  1.00  0.00     0.042 A 
HETATM    5  C   UNL     1       7.829  23.446  53.904  1.00  0.00    -0.021 A 
HETATM    6  C   UNL     1       7.968  24.241  55.048  1.00  0.00     0.012 A 
ENDROOT
BRANCH   3   7
HETATM    7  N   UNL     1       6.444  25.898  51.489  1.00  0.00    -0.327 N 
HETATM    8  C   UNL     1       5.277  26.614  51.320  1.00  0.00     0.227 C 
HETATM    9  O   UNL     1       4.548  27.060  52.195  1.00  0.00    -0.273 OA
HETATM   10  H   UNL     1       6.965  25.676  50.652  1.00  0.00     0.169 HD
BRANCH   8  11
HETATM   11  C   UNL     1       4.908  26.801  49.886  1.00  0.00     0.089 A 
HETATM   12  C   UNL     1       3.898  27.897  49.565  1.00  0.00     0.057 A 
HETATM   13  C   UNL     1       5.333  28.002  49.103  1.00  0.00     0.027 A 
BRANCH  12  14
HETATM   14  C   UNL     1       2.811  27.546  48.572  1.00  0.00     0.057 A 
HETATM   15  O   UNL     1       3.013  26.883  47.398  1.00  0.00    -0.327 OA
HETATM   16  C   UNL     1       1.797  26.738  46.812  1.00  0.00     0.142 A 
HETATM   17  C   UNL     1       0.815  27.297  47.595  1.00  0.00     0.027 A 
HETATM   18  C   UNL     1       1.471  27.824  48.734  1.00  0.00     0.035 A 
ENDBRANCH  12  14
ENDBRANCH   8  11
ENDBRANCH   3   7
BRANCH   5  19
HETATM   19  C   UNL     1       8.183  22.031  53.912  1.00  0.00     0.010 A 
HETATM   20  C   UNL     1       8.195  21.071  52.870  1.00  0.00     0.152 A 
HETATM   21  N   UNL     1       8.597  19.863  53.275  1.00  0.00    -0.187 NA
HETATM   22  N   UNL     1       8.846  20.040  54.580  1.00  0.00    -0.289 N 
HETATM   23  H   UNL     1       9.173  19.245  55.121  1.00  0.00     0.188 HD
HETATM   24  C   UNL     1       8.617  21.316  55.009  1.00  0.00     0.123 A 
ENDBRANCH   5  19
TORSDOF 4
ENDMDL
MODEL 6
REMARK VINA RESULT:      -7.8      5.132      8.427
REMARK  4 active torsions:
REMARK  status: ('A' for Active; 'I' for Inactive)
REMARK    1  A    between atoms: C_3  and  N_4 
REMARK       I    between atoms: N_4  and  C_5 
REMARK    2  A    between atoms: C_5  and  C_6 
REMARK    3  A    between atoms: C_7  and  C_8 
REMARK    4  A    between atoms: C_16  and  C_17 
ROOT
HETATM    1  C   UNL     1       4.183  29.363  51.047  1.00  0.00     0.003 A 
HETATM    2  C   UNL     1       5.025  28.482  51.727  1.00  0.00     0.029 A 
HETATM    3  C   UNL     1       5.167  27.167  51.288  1.00  0.00     0.035 A 
HETATM    4  C   UNL     1       4.443  26.742  50.164  1.00  0.00     0.042 A 
HETATM    5  C   UNL     1       3.585  27.614  49.470  1.00  0.00    -0.021 A 
HETATM    6  C   UNL     1       3.471  28.933  49.926  1.00  0.00     0.012 A 
ENDROOT
BRANCH   3   7
HETATM    7  N   UNL     1       6.032  26.229  51.890  1.00  0.00    -0.327 N 
HETATM    8  C   UNL     1       5.700  25.247  52.800  1.00  0.00     0.227 C 
HETATM    9  O   UNL     1       4.578  24.924  53.164  1.00  0.00    -0.273 OA
HETATM   10  H   UNL     1       7.010  26.308  51.645  1.00  0.00     0.169 HD
BRANCH   8  11
HETATM   11  C   UNL     1       6.892  24.567  53.387  1.00  0.00     0.089 A 
HETATM   12  C   UNL     1       7.330  23.254  52.745  1.00  0.00     0.057 A 
HETATM   13  C   UNL     1       8.200  24.487  52.667  1.00  0.00     0.027 A 
BRANCH  12  14
HETATM   14  C   UNL     1       7.699  22.130  53.689  1.00  0.00     0.057 A 
HETATM   15  O   UNL     1       7.527  22.160  55.041  1.00  0.00    -0.327 OA
HETATM   16  C   UNL     1       7.951  20.962  55.519  1.00  0.00     0.142 A 
HETATM   17  C   UNL     1       8.392  20.162  54.492  1.00  0.00     0.027 A 
HETATM   18  C   UNL     1       8.233  20.918  53.306  1.00  0.00     0.035 A 
ENDBRANCH  12  14
ENDBRANCH   8  11
ENDBRANCH   3   7
BRANCH   5  19
HETATM   19  C   UNL     1       2.847  27.143  48.305  1.00  0.00     0.010 A 
HETATM   20  C   UNL     1       1.550  27.467  47.833  1.00  0.00     0.152 A 
HETATM   21  N   UNL     1       1.228  26.828  46.705  1.00  0.00    -0.187 NA
HETATM   22  N   UNL     1       2.315  26.088  46.445  1.00  0.00    -0.289 N 
HETATM   23  H   UNL     1       2.311  25.501  45.618  1.00  0.00     0.188 HD
HETATM   24  C   UNL     1       3.310  26.242  47.368  1.00  0.00     0.123 A 
ENDBRANCH   5  19
TORSDOF 4
ENDMDL
MODEL 7
REMARK VINA RESULT:      -7.8      1.386      1.794
REMARK  4 active torsions:
REMARK  status: ('A' for Active; 'I' for Inactive)
REMARK    1  A    between atoms: C_3  and  N_4 
REMARK       I    between atoms: N_4  and  C_5 
REMARK    2  A    between atoms: C_5  and  C_6 
REMARK    3  A    between atoms: C_7  and  C_8 
REMARK    4  A    between atoms: C_16  and  C_17 
ROOT
HETATM    1  C   UNL     1       7.285  24.609  52.141  1.00  0.00     0.003 A 
HETATM    2  C   UNL     1       7.424  25.767  52.909  1.00  0.00     0.029 A 
HETATM    3  C   UNL     1       7.780  25.678  54.253  1.00  0.00     0.035 A 
HETATM    4  C   UNL     1       7.983  24.411  54.823  1.00  0.00     0.042 A 
HETATM    5  C   UNL     1       7.840  23.235  54.066  1.00  0.00    -0.021 A 
HETATM    6  C   UNL     1       7.494  23.354  52.714  1.00  0.00     0.012 A 
ENDROOT
BRANCH   3   7
HETATM    7  N   UNL     1       7.987  26.799  55.085  1.00  0.00    -0.327 N 
HETATM    8  C   UNL     1       7.063  27.760  55.440  1.00  0.00     0.227 C 
HETATM    9  O   UNL     1       5.864  27.758  55.202  1.00  0.00    -0.273 OA
HETATM   10  H   UNL     1       8.927  26.923  55.435  1.00  0.00     0.169 HD
BRANCH   8  11
HETATM   11  C   UNL     1       7.671  28.916  56.163  1.00  0.00     0.089 A 
HETATM   12  C   UNL     1       7.625  28.883  57.687  1.00  0.00     0.057 A 
HETATM   13  C   UNL     1       8.939  28.790  56.946  1.00  0.00     0.027 A 
BRANCH  12  14
HETATM   14  C   UNL     1       7.242  30.173  58.380  1.00  0.00     0.057 A 
HETATM   15  O   UNL     1       6.089  30.865  58.157  1.00  0.00    -0.327 OA
HETATM   16  C   UNL     1       6.107  31.940  58.986  1.00  0.00     0.142 A 
HETATM   17  C   UNL     1       7.255  31.947  59.741  1.00  0.00     0.027 A 
HETATM   18  C   UNL     1       7.993  30.805  59.348  1.00  0.00     0.035 A 
ENDBRANCH  12  14
ENDBRANCH   8  11
ENDBRANCH   3   7
BRANCH   5  19
HETATM   19  C   UNL     1       8.059  21.933  54.685  1.00  0.00     0.010 A 
HETATM   20  C   UNL     1       8.180  20.642  54.115  1.00  0.00     0.152 A 
HETATM   21  N   UNL     1       8.390  19.685  55.023  1.00  0.00    -0.187 NA
HETATM   22  N   UNL     1       8.405  20.356  56.183  1.00  0.00    -0.289 N 
HETATM   23  H   UNL     1       8.553  19.833  57.040  1.00  0.00     0.188 HD
HETATM   24  C   UNL     1       8.214  21.700  56.036  1.00  0.00     0.123 A 
ENDBRANCH   5  19
TORSDOF 4
ENDMDL
MODEL 8
REMARK VINA RESULT:      -7.8      4.066      7.606
REMARK  4 active torsions:
REMARK  status: ('A' for Active; 'I' for Inactive)
REMARK    1  A    between atoms: C_3  and  N_4 
REMARK       I    between atoms: N_4  and  C_5 
REMARK    2  A    between atoms: C_5  and  C_6 
REMARK    3  A    between atoms: C_7  and  C_8 
REMARK    4  A    between atoms: C_16  and  C_17 
ROOT
HETATM    1  C   UNL     1       4.547  29.011  52.848  1.00  0.00     0.003 A 
HETATM    2  C   UNL     1       4.948  27.946  53.657  1.00  0.00     0.029 A 
HETATM    3  C   UNL     1       5.379  26.752  53.082  1.00  0.00     0.035 A 
HETATM    4  C   UNL     1       5.390  26.634  51.683  1.00  0.00     0.042 A 
HETATM    5  C   UNL     1       4.982  27.694  50.854  1.00  0.00    -0.021 A 
HETATM    6  C   UNL     1       4.567  28.887  51.458  1.00  0.00     0.012 A 
ENDROOT
BRANCH   3   7
HETATM    7  N   UNL     1       5.844  25.647  53.826  1.00  0.00    -0.327 N 
HETATM    8  C   UNL     1       6.530  25.673  55.022  1.00  0.00     0.227 C 
HETATM    9  O   UNL     1       6.757  26.647  55.725  1.00  0.00    -0.273 OA
HETATM   10  H   UNL     1       5.679  24.737  53.417  1.00  0.00     0.169 HD
BRANCH   8  11
HETATM   11  C   UNL     1       7.050  24.333  55.427  1.00  0.00     0.089 A 
HETATM   12  C   UNL     1       8.304  23.832  54.717  1.00  0.00     0.057 A 
HETATM   13  C   UNL     1       8.326  24.170  56.189  1.00  0.00     0.027 A 
BRANCH  12  14
HETATM   14  C   UNL     1       8.298  22.383  54.277  1.00  0.00     0.057 A 
HETATM   15  O   UNL     1       8.635  21.328  55.071  1.00  0.00    -0.327 OA
HETATM   16  C   UNL     1       8.476  20.206  54.322  1.00  0.00     0.142 A 
HETATM   17  C   UNL     1       8.039  20.526  53.059  1.00  0.00     0.027 A 
HETATM   18  C   UNL     1       7.927  21.937  53.027  1.00  0.00     0.035 A 
ENDBRANCH  12  14
ENDBRANCH   8  11
ENDBRANCH   3   7
BRANCH   5  19
HETATM   19  C   UNL     1       5.006  27.542  49.404  1.00  0.00     0.010 A 
HETATM   20  C   UNL     1       4.594  26.469  48.575  1.00  0.00     0.152 A 
HETATM   21  N   UNL     1       4.767  26.715  47.274  1.00  0.00    -0.187 NA
HETATM   22  N   UNL     1       5.292  27.948  47.258  1.00  0.00    -0.289 N 
HETATM   23  H   UNL     1       5.515  28.365  46.360  1.00  0.00     0.188 HD
HETATM   24  C   UNL     1       5.453  28.486  48.502  1.00  0.00     0.123 A 
ENDBRANCH   5  19
TORSDOF 4
ENDMDL
MODEL 9
REMARK VINA RESULT:      -7.7      3.227      5.414
REMARK  4 active torsions:
REMARK  status: ('A' for Active; 'I' for Inactive)
REMARK    1  A    between atoms: C_3  and  N_4 
REMARK       I    between atoms: N_4  and  C_5 
REMARK    2  A    between atoms: C_5  and  C_6 
REMARK    3  A    between atoms: C_7  and  C_8 
REMARK    4  A    between atoms: C_16  and  C_17 
ROOT
HETATM    1  C   UNL     1       8.373  24.942  57.250  1.00  0.00     0.003 A 
HETATM    2  C   UNL     1       7.647  25.807  56.429  1.00  0.00     0.029 A 
HETATM    3  C   UNL     1       7.185  25.373  55.188  1.00  0.00     0.035 A 
HETATM    4  C   UNL     1       7.471  24.063  54.774  1.00  0.00     0.042 A 
HETATM    5  C   UNL     1       8.208  23.181  55.584  1.00  0.00    -0.021 A 
HETATM    6  C   UNL     1       8.648  23.639  56.832  1.00  0.00     0.012 A 
ENDROOT
BRANCH   3   7
HETATM    7  N   UNL     1       6.405  26.168  54.321  1.00  0.00    -0.327 N 
HETATM    8  C   UNL     1       6.785  27.330  53.682  1.00  0.00     0.227 C 
HETATM    9  O   UNL     1       7.902  27.826  53.649  1.00  0.00    -0.273 OA
HETATM   10  H   UNL     1       5.453  25.861  54.176  1.00  0.00     0.169 HD
BRANCH   8  11
HETATM   11  C   UNL     1       5.649  28.022  53.004  1.00  0.00     0.089 A 
HETATM   12  C   UNL     1       4.901  27.241  51.929  1.00  0.00     0.057 A 
HETATM   13  C   UNL     1       4.225  27.622  53.225  1.00  0.00     0.027 A 
BRANCH  12  14
HETATM   14  C   UNL     1       4.567  27.991  50.657  1.00  0.00     0.057 A 
HETATM   15  O   UNL     1       3.449  28.747  50.469  1.00  0.00    -0.327 OA
HETATM   16  C   UNL     1       3.532  29.272  49.220  1.00  0.00     0.142 A 
HETATM   17  C   UNL     1       4.691  28.865  48.603  1.00  0.00     0.027 A 
HETATM   18  C   UNL     1       5.361  28.033  49.531  1.00  0.00     0.035 A 
ENDBRANCH  12  14
ENDBRANCH   8  11
ENDBRANCH   3   7
BRANCH   5  19
HETATM   19  C   UNL     1       8.488  21.826  55.127  1.00  0.00     0.010 A 
HETATM   20  C   UNL     1       8.363  21.232  53.847  1.00  0.00     0.152 A 
HETATM   21  N   UNL     1       8.736  19.950  53.825  1.00  0.00    -0.187 NA
HETATM   22  N   UNL     1       9.104  19.711  55.091  1.00  0.00    -0.289 N 
HETATM   23  H   UNL     1       9.435  18.781  55.330  1.00  0.00     0.188 HD
HETATM   24  C   UNL     1       8.977  20.798  55.908  1.00  0.00     0.123 A 
ENDBRANCH   5  19
TORSDOF 4
ENDMDL
MODEL 10
REMARK VINA RESULT:      -7.7      5.753     10.794
REMARK  4 active torsions:
REMARK  status: ('A' for Active; 'I' for Inactive)
REMARK    1  A    between atoms: C_3  and  N_4 
REMARK       I    between atoms: N_4  and  C_5 
REMARK    2  A    between atoms: C_5  and  C_6 
REMARK    3  A    between atoms: C_7  and  C_8 
REMARK    4  A    between atoms: C_16  and  C_17 
ROOT
HETATM    1  C   UNL     1       4.882  33.816  60.521  1.00  0.00     0.003 A 
HETATM    2  C   UNL     1       5.660  32.858  59.869  1.00  0.00     0.029 A 
HETATM    3  C   UNL     1       6.575  32.091  60.586  1.00  0.00     0.035 A 
HETATM    4  C   UNL     1       6.711  32.306  61.967  1.00  0.00     0.042 A 
HETATM    5  C   UNL     1       5.941  33.272  62.639  1.00  0.00    -0.021 A 
HETATM    6  C   UNL     1       5.019  34.019  61.895  1.00  0.00     0.012 A 
ENDROOT
BRANCH   3   7
HETATM    7  N   UNL     1       7.364  31.071  60.013  1.00  0.00    -0.327 N 
HETATM    8  C   UNL     1       8.514  31.223  59.267  1.00  0.00     0.227 C 
HETATM    9  O   UNL     1       9.135  32.256  59.064  1.00  0.00    -0.273 OA
HETATM   10  H   UNL     1       7.029  30.126  60.143  1.00  0.00     0.169 HD
BRANCH   8  11
HETATM   11  C   UNL     1       8.978  29.948  58.642  1.00  0.00     0.089 A 
HETATM   12  C   UNL     1       8.241  29.479  57.393  1.00  0.00     0.057 A 
HETATM   13  C   UNL     1       9.685  29.917  57.325  1.00  0.00     0.027 A 
BRANCH  12  14
HETATM   14  C   UNL     1       7.896  28.006  57.323  1.00  0.00     0.057 A 
HETATM   15  O   UNL     1       8.800  26.990  57.416  1.00  0.00    -0.327 OA
HETATM   16  C   UNL     1       8.098  25.830  57.337  1.00  0.00     0.142 A 
HETATM   17  C   UNL     1       6.755  26.087  57.198  1.00  0.00     0.027 A 
HETATM   18  C   UNL     1       6.623  27.497  57.185  1.00  0.00     0.035 A 
ENDBRANCH  12  14
ENDBRANCH   8  11
ENDBRANCH   3   7
BRANCH   5  19
HETATM   19  C   UNL     1       6.103  33.472  64.073  1.00  0.00     0.010 A 
HETATM   20  C   UNL     1       7.266  33.665  64.859  1.00  0.00     0.152 A 
HETATM   21  N   UNL     1       7.000  33.827  66.158  1.00  0.00    -0.187 NA
HETATM   22  N   UNL     1       5.664  33.738  66.216  1.00  0.00    -0.289 N 
HETATM   23  H   UNL     1       5.213  33.832  67.120  1.00  0.00     0.188 HD
HETATM   24  C   UNL     1       5.080  33.529  64.999  1.00  0.00     0.123 A 
ENDBRANCH   5  19
TORSDOF 4
ENDMDL
