MODEL 1
REMARK VINA RESULT:      -9.3      0.000      0.000
REMARK  1 active torsions:
REMARK  status: ('A' for Active; 'I' for Inactive)
REMARK    1  A    between atoms: C_8  and  C_9 
ROOT
HETATM    1  C   UNL     1       6.851  24.402  52.515  1.00  0.00     0.049 C 
HETATM    2  C   UNL     1       7.456  23.425  53.486  1.00  0.00    -0.050 A 
HETATM    3  C   UNL     1       7.822  23.788  54.798  1.00  0.00    -0.002 A 
HETATM    4  C   UNL     1       8.364  22.817  55.664  1.00  0.00     0.051 A 
HETATM    5  N   UNL     1       8.688  23.192  56.976  1.00  0.00    -0.322 N 
HETATM    6  C   UNL     1       8.527  24.449  57.482  1.00  0.00     0.256 A 
HETATM    7  O   UNL     1       8.786  24.693  58.658  1.00  0.00    -0.267 OA
HETATM    8  C   UNL     1       8.033  25.511  56.557  1.00  0.00     0.053 A 
HETATM    9  C   UNL     1       7.680  25.161  55.306  1.00  0.00     0.031 A 
HETATM   10  C   UNL     1       8.570  21.494  55.236  1.00  0.00    -0.034 A 
HETATM   11  C   UNL     1       9.169  20.446  56.131  1.00  0.00     0.050 C 
HETATM   12  C   UNL     1       8.200  21.149  53.932  1.00  0.00     0.009 A 
HETATM   13  C   UNL     1       7.647  22.099  53.072  1.00  0.00     0.008 A 
HETATM   14  H   UNL     1       9.052  22.511  57.626  1.00  0.00     0.169 HD
ENDROOT
BRANCH   8  15
HETATM   15  C   UNL     1       7.971  26.886  57.180  1.00  0.00     0.224 C 
HETATM   16  N   UNL     1       8.678  27.837  56.375  1.00  0.00    -0.331 N 
HETATM   17  C   UNL     1       8.130  28.445  55.280  1.00  0.00     0.255 C 
HETATM   18  H   UNL     1       9.687  27.756  56.354  1.00  0.00     0.165 HD
HETATM   19  O   UNL     1       8.824  28.960  54.412  1.00  0.00    -0.268 OA
HETATM   20  C   UNL     1       6.657  28.466  55.218  1.00  0.00     0.058 A 
HETATM   21  C   UNL     1       5.948  27.917  56.295  1.00  0.00     0.045 A 
HETATM   22  C   UNL     1       5.999  29.043  54.128  1.00  0.00     0.019 A 
HETATM   23  N   UNL     1       6.614  27.371  57.398  1.00  0.00    -0.364 N 
HETATM   24  C   UNL     1       4.554  28.031  56.292  1.00  0.00     0.030 A 
HETATM   25  H   UNL     1       6.049  26.756  57.971  1.00  0.00     0.162 HD
HETATM   26  C   UNL     1       3.888  28.605  55.204  1.00  0.00     0.002 A 
HETATM   27  C   UNL     1       4.608  29.101  54.118  1.00  0.00     0.001 A 
ENDBRANCH   8  15
TORSDOF 1
ENDMDL
MODEL 2
REMARK VINA RESULT:      -9.3      8.139     10.720
REMARK  1 active torsions:
REMARK  status: ('A' for Active; 'I' for Inactive)
REMARK    1  A    between atoms: C_8  and  C_9 
ROOT
HETATM    1  C   UNL     1       7.844  32.813  63.746  1.00  0.00     0.049 C 
HETATM    2  C   UNL     1       8.028  32.272  62.354  1.00  0.00    -0.050 A 
HETATM    3  C   UNL     1       6.971  32.196  61.424  1.00  0.00    -0.002 A 
HETATM    4  C   UNL     1       7.217  31.697  60.130  1.00  0.00     0.051 A 
HETATM    5  N   UNL     1       6.158  31.663  59.210  1.00  0.00    -0.322 N 
HETATM    6  C   UNL     1       4.884  32.071  59.483  1.00  0.00     0.256 A 
HETATM    7  O   UNL     1       4.018  32.059  58.611  1.00  0.00    -0.267 OA
HETATM    8  C   UNL     1       4.584  32.523  60.873  1.00  0.00     0.053 A 
HETATM    9  C   UNL     1       5.596  32.599  61.757  1.00  0.00     0.031 A 
HETATM   10  C   UNL     1       8.495  31.252  59.752  1.00  0.00    -0.034 A 
HETATM   11  C   UNL     1       8.779  30.694  58.385  1.00  0.00     0.050 C 
HETATM   12  C   UNL     1       9.534  31.336  60.684  1.00  0.00     0.009 A 
HETATM   13  C   UNL     1       9.305  31.843  61.964  1.00  0.00     0.008 A 
HETATM   14  H   UNL     1       6.312  31.338  58.267  1.00  0.00     0.169 HD
ENDROOT
BRANCH   8  15
HETATM   15  C   UNL     1       3.132  32.869  61.104  1.00  0.00     0.224 C 
HETATM   16  N   UNL     1       2.852  32.961  62.506  1.00  0.00    -0.331 N 
HETATM   17  C   UNL     1       3.108  34.078  63.249  1.00  0.00     0.255 C 
HETATM   18  H   UNL     1       2.857  32.093  63.029  1.00  0.00     0.165 HD
HETATM   19  O   UNL     1       3.205  34.035  64.470  1.00  0.00    -0.268 OA
HETATM   20  C   UNL     1       3.234  35.341  62.500  1.00  0.00     0.058 A 
HETATM   21  C   UNL     1       3.031  35.304  61.113  1.00  0.00     0.045 A 
HETATM   22  C   UNL     1       3.518  36.538  63.164  1.00  0.00     0.019 A 
HETATM   23  N   UNL     1       2.714  34.108  60.459  1.00  0.00    -0.364 N 
HETATM   24  C   UNL     1       3.042  36.515  60.413  1.00  0.00     0.030 A 
HETATM   25  H   UNL     1       2.870  34.119  59.459  1.00  0.00     0.162 HD
HETATM   26  C   UNL     1       3.328  37.716  61.070  1.00  0.00     0.002 A 
HETATM   27  C   UNL     1       3.576  37.727  62.442  1.00  0.00     0.001 A 
ENDBRANCH   8  15
TORSDOF 1
ENDMDL
MODEL 3
REMARK VINA RESULT:      -9.3      3.902      7.457
REMARK  1 active torsions:
REMARK  status: ('A' for Active; 'I' for Inactive)
REMARK    1  A    between atoms: C_8  and  C_9 
ROOT
HETATM    1  C   UNL     1      10.182  30.314  57.749  1.00  0.00     0.049 C 
HETATM    2  C   UNL     1       9.200  31.003  58.658  1.00  0.00    -0.050 A 
HETATM    3  C   UNL     1       7.806  30.940  58.455  1.00  0.00    -0.002 A 
HETATM    4  C   UNL     1       6.941  31.592  59.357  1.00  0.00     0.051 A 
HETATM    5  N   UNL     1       5.557  31.486  59.155  1.00  0.00    -0.322 N 
HETATM    6  C   UNL     1       4.975  30.800  58.129  1.00  0.00     0.256 A 
HETATM    7  O   UNL     1       3.753  30.709  58.045  1.00  0.00    -0.267 OA
HETATM    8  C   UNL     1       5.875  30.174  57.116  1.00  0.00     0.053 A 
HETATM    9  C   UNL     1       7.205  30.232  57.315  1.00  0.00     0.031 A 
HETATM   10  C   UNL     1       7.443  32.324  60.446  1.00  0.00    -0.034 A 
HETATM   11  C   UNL     1       6.544  33.049  61.408  1.00  0.00     0.050 C 
HETATM   12  C   UNL     1       8.828  32.376  60.635  1.00  0.00     0.009 A 
HETATM   13  C   UNL     1       9.693  31.721  59.757  1.00  0.00     0.008 A 
HETATM   14  H   UNL     1       4.913  31.919  59.802  1.00  0.00     0.169 HD
ENDROOT
BRANCH   8  15
HETATM   15  C   UNL     1       5.143  29.514  55.971  1.00  0.00     0.224 C 
HETATM   16  N   UNL     1       6.021  29.319  54.856  1.00  0.00    -0.331 N 
HETATM   17  C   UNL     1       6.879  28.261  54.755  1.00  0.00     0.255 C 
HETATM   18  H   UNL     1       6.311  30.150  54.355  1.00  0.00     0.165 HD
HETATM   19  O   UNL     1       7.851  28.285  54.009  1.00  0.00    -0.268 OA
HETATM   20  C   UNL     1       6.552  27.079  55.574  1.00  0.00     0.058 A 
HETATM   21  C   UNL     1       5.377  27.116  56.338  1.00  0.00     0.045 A 
HETATM   22  C   UNL     1       7.379  25.952  55.559  1.00  0.00     0.019 A 
HETATM   23  N   UNL     1       4.537  28.235  56.322  1.00  0.00    -0.364 N 
HETATM   24  C   UNL     1       5.006  25.959  57.031  1.00  0.00     0.030 A 
HETATM   25  H   UNL     1       3.891  28.290  57.100  1.00  0.00     0.162 HD
HETATM   26  C   UNL     1       5.829  24.828  57.024  1.00  0.00     0.002 A 
HETATM   27  C   UNL     1       7.019  24.827  56.297  1.00  0.00     0.001 A 
ENDBRANCH   8  15
TORSDOF 1
ENDMDL
MODEL 4
REMARK VINA RESULT:      -9.1      9.094     11.655
REMARK  1 active torsions:
REMARK  status: ('A' for Active; 'I' for Inactive)
REMARK    1  A    between atoms: C_8  and  C_9 
ROOT
HETATM    1  C   UNL     1       7.972  32.984  63.977  1.00  0.00     0.049 C 
HETATM    2  C   UNL     1       7.856  32.384  62.601  1.00  0.00    -0.050 A 
HETATM    3  C   UNL     1       6.874  32.792  61.676  1.00  0.00    -0.002 A 
HETATM    4  C   UNL     1       6.835  32.202  60.397  1.00  0.00     0.051 A 
HETATM    5  N   UNL     1       5.871  32.648  59.481  1.00  0.00    -0.322 N 
HETATM    6  C   UNL     1       4.946  33.617  59.742  1.00  0.00     0.256 A 
HETATM    7  O   UNL     1       4.163  33.992  58.872  1.00  0.00    -0.267 OA
HETATM    8  C   UNL     1       4.916  34.194  61.118  1.00  0.00     0.053 A 
HETATM    9  C   UNL     1       5.859  33.806  61.998  1.00  0.00     0.031 A 
HETATM   10  C   UNL     1       7.744  31.195  60.031  1.00  0.00    -0.034 A 
HETATM   11  C   UNL     1       7.709  30.533  58.682  1.00  0.00     0.050 C 
HETATM   12  C   UNL     1       8.714  30.802  60.959  1.00  0.00     0.009 A 
HETATM   13  C   UNL     1       8.772  31.391  62.224  1.00  0.00     0.008 A 
HETATM   14  H   UNL     1       5.838  32.263  58.547  1.00  0.00     0.169 HD
ENDROOT
BRANCH   8  15
HETATM   15  C   UNL     1       3.804  35.192  61.340  1.00  0.00     0.224 C 
HETATM   16  N   UNL     1       2.669  34.557  61.941  1.00  0.00    -0.331 N 
HETATM   17  C   UNL     1       2.563  34.327  63.283  1.00  0.00     0.255 C 
HETATM   18  H   UNL     1       2.145  33.915  61.358  1.00  0.00     0.165 HD
HETATM   19  O   UNL     1       1.791  33.491  63.737  1.00  0.00    -0.268 OA
HETATM   20  C   UNL     1       3.412  35.160  64.154  1.00  0.00     0.058 A 
HETATM   21  C   UNL     1       4.207  36.143  63.548  1.00  0.00     0.045 A 
HETATM   22  C   UNL     1       3.395  34.988  65.541  1.00  0.00     0.019 A 
HETATM   23  N   UNL     1       4.194  36.332  62.161  1.00  0.00    -0.364 N 
HETATM   24  C   UNL     1       4.932  37.007  64.376  1.00  0.00     0.030 A 
HETATM   25  H   UNL     1       4.989  36.843  61.797  1.00  0.00     0.162 HD
HETATM   26  C   UNL     1       4.922  36.839  65.764  1.00  0.00     0.002 A 
HETATM   27  C   UNL     1       4.163  35.825  66.347  1.00  0.00     0.001 A 
ENDBRANCH   8  15
TORSDOF 1
ENDMDL
MODEL 5
REMARK VINA RESULT:      -8.6      9.783     13.191
REMARK  1 active torsions:
REMARK  status: ('A' for Active; 'I' for Inactive)
REMARK    1  A    between atoms: C_8  and  C_9 
ROOT
HETATM    1  C   UNL     1       4.497  37.556  59.572  1.00  0.00     0.049 C 
HETATM    2  C   UNL     1       4.916  37.998  60.948  1.00  0.00    -0.050 A 
HETATM    3  C   UNL     1       5.175  37.086  61.991  1.00  0.00    -0.002 A 
HETATM    4  C   UNL     1       5.585  37.567  63.251  1.00  0.00     0.051 A 
HETATM    5  N   UNL     1       5.870  36.639  64.263  1.00  0.00    -0.322 N 
HETATM    6  C   UNL     1       5.768  35.286  64.123  1.00  0.00     0.256 A 
HETATM    7  O   UNL     1       6.083  34.531  65.040  1.00  0.00    -0.267 OA
HETATM    8  C   UNL     1       5.255  34.760  62.824  1.00  0.00     0.053 A 
HETATM    9  C   UNL     1       5.013  35.634  61.828  1.00  0.00     0.031 A 
HETATM   10  C   UNL     1       5.720  38.944  63.495  1.00  0.00    -0.034 A 
HETATM   11  C   UNL     1       6.131  39.484  64.836  1.00  0.00     0.050 C 
HETATM   12  C   UNL     1       5.461  39.837  62.450  1.00  0.00     0.009 A 
HETATM   13  C   UNL     1       5.070  39.370  61.194  1.00  0.00     0.008 A 
HETATM   14  H   UNL     1       6.193  36.954  65.167  1.00  0.00     0.169 HD
ENDROOT
BRANCH   8  15
HETATM   15  C   UNL     1       5.091  33.259  62.792  1.00  0.00     0.224 C 
HETATM   16  N   UNL     1       4.664  32.825  61.495  1.00  0.00    -0.331 N 
HETATM   17  C   UNL     1       5.524  32.629  60.451  1.00  0.00     0.255 C 
HETATM   18  H   UNL     1       3.716  33.059  61.226  1.00  0.00     0.165 HD
HETATM   19  O   UNL     1       5.136  32.613  59.289  1.00  0.00    -0.268 OA
HETATM   20  C   UNL     1       6.938  32.413  60.806  1.00  0.00     0.058 A 
HETATM   21  C   UNL     1       7.274  32.374  62.166  1.00  0.00     0.045 A 
HETATM   22  C   UNL     1       7.901  32.226  59.810  1.00  0.00     0.019 A 
HETATM   23  N   UNL     1       6.299  32.529  63.158  1.00  0.00    -0.364 N 
HETATM   24  C   UNL     1       8.593  32.062  62.510  1.00  0.00     0.030 A 
HETATM   25  H   UNL     1       6.661  32.773  64.072  1.00  0.00     0.162 HD
HETATM   26  C   UNL     1       9.564  31.875  61.520  1.00  0.00     0.002 A 
HETATM   27  C   UNL     1       9.221  31.967  60.171  1.00  0.00     0.001 A 
ENDBRANCH   8  15
TORSDOF 1
ENDMDL
MODEL 6
REMARK VINA RESULT:      -8.5     11.744     14.953
REMARK  1 active torsions:
REMARK  status: ('A' for Active; 'I' for Inactive)
REMARK    1  A    between atoms: C_8  and  C_9 
ROOT
HETATM    1  C   UNL     1       6.309  38.652  61.230  1.00  0.00     0.049 C 
HETATM    2  C   UNL     1       6.241  39.140  62.652  1.00  0.00    -0.050 A 
HETATM    3  C   UNL     1       5.783  38.329  63.711  1.00  0.00    -0.002 A 
HETATM    4  C   UNL     1       5.765  38.843  65.023  1.00  0.00     0.051 A 
HETATM    5  N   UNL     1       5.338  38.007  66.065  1.00  0.00    -0.322 N 
HETATM    6  C   UNL     1       4.921  36.718  65.901  1.00  0.00     0.256 A 
HETATM    7  O   UNL     1       4.609  36.028  66.869  1.00  0.00    -0.267 OA
HETATM    8  C   UNL     1       4.853  36.183  64.510  1.00  0.00     0.053 A 
HETATM    9  C   UNL     1       5.296  36.958  63.501  1.00  0.00     0.031 A 
HETATM   10  C   UNL     1       6.175  40.159  65.295  1.00  0.00    -0.034 A 
HETATM   11  C   UNL     1       6.142  40.739  66.681  1.00  0.00     0.050 C 
HETATM   12  C   UNL     1       6.628  40.950  64.235  1.00  0.00     0.009 A 
HETATM   13  C   UNL     1       6.665  40.447  62.933  1.00  0.00     0.008 A 
HETATM   14  H   UNL     1       5.342  38.339  67.019  1.00  0.00     0.169 HD
ENDROOT
BRANCH   8  15
HETATM   15  C   UNL     1       4.297  34.782  64.418  1.00  0.00     0.224 C 
HETATM   16  N   UNL     1       3.798  34.521  63.100  1.00  0.00    -0.331 N 
HETATM   17  C   UNL     1       4.597  34.139  62.060  1.00  0.00     0.255 C 
HETATM   18  H   UNL     1       2.952  35.009  62.830  1.00  0.00     0.165 HD
HETATM   19  O   UNL     1       4.244  34.266  60.894  1.00  0.00    -0.268 OA
HETATM   20  C   UNL     1       5.895  33.542  62.423  1.00  0.00     0.058 A 
HETATM   21  C   UNL     1       6.178  33.368  63.785  1.00  0.00     0.045 A 
HETATM   22  C   UNL     1       6.794  33.138  61.432  1.00  0.00     0.019 A 
HETATM   23  N   UNL     1       5.259  33.744  64.770  1.00  0.00    -0.364 N 
HETATM   24  C   UNL     1       7.360  32.705  64.132  1.00  0.00     0.030 A 
HETATM   25  H   UNL     1       5.652  33.852  65.697  1.00  0.00     0.162 HD
HETATM   26  C   UNL     1       8.267  32.300  63.147  1.00  0.00     0.002 A 
HETATM   27  C   UNL     1       7.990  32.525  61.799  1.00  0.00     0.001 A 
ENDBRANCH   8  15
TORSDOF 1
ENDMDL
MODEL 7
REMARK VINA RESULT:      -8.4      3.866      5.776
REMARK  1 active torsions:
REMARK  status: ('A' for Active; 'I' for Inactive)
REMARK    1  A    between atoms: C_8  and  C_9 
ROOT
HETATM    1  C   UNL     1       5.855  24.110  52.555  1.00  0.00     0.049 C 
HETATM    2  C   UNL     1       6.301  24.952  53.720  1.00  0.00    -0.050 A 
HETATM    3  C   UNL     1       5.866  26.280  53.907  1.00  0.00    -0.002 A 
HETATM    4  C   UNL     1       6.307  27.005  55.031  1.00  0.00     0.051 A 
HETATM    5  N   UNL     1       5.834  28.313  55.215  1.00  0.00    -0.322 N 
HETATM    6  C   UNL     1       4.975  28.950  54.367  1.00  0.00     0.256 A 
HETATM    7  O   UNL     1       4.563  30.080  54.619  1.00  0.00    -0.267 OA
HETATM    8  C   UNL     1       4.563  28.230  53.127  1.00  0.00     0.053 A 
HETATM    9  C   UNL     1       4.976  26.960  52.954  1.00  0.00     0.031 A 
HETATM   10  C   UNL     1       7.193  26.438  55.962  1.00  0.00    -0.034 A 
HETATM   11  C   UNL     1       7.698  27.198  57.157  1.00  0.00     0.050 C 
HETATM   12  C   UNL     1       7.615  25.119  55.765  1.00  0.00     0.009 A 
HETATM   13  C   UNL     1       7.172  24.385  54.663  1.00  0.00     0.008 A 
HETATM   14  H   UNL     1       6.111  28.846  56.026  1.00  0.00     0.169 HD
ENDROOT
BRANCH   8  15
HETATM   15  C   UNL     1       3.685  29.045  52.207  1.00  0.00     0.224 C 
HETATM   16  N   UNL     1       4.425  30.129  51.632  1.00  0.00    -0.331 N 
HETATM   17  C   UNL     1       5.229  29.988  50.536  1.00  0.00     0.255 C 
HETATM   18  H   UNL     1       4.685  30.883  52.256  1.00  0.00     0.165 HD
HETATM   19  O   UNL     1       6.111  30.796  50.274  1.00  0.00    -0.268 OA
HETATM   20  C   UNL     1       4.955  28.823  49.676  1.00  0.00     0.058 A 
HETATM   21  C   UNL     1       3.876  27.996  50.016  1.00  0.00     0.045 A 
HETATM   22  C   UNL     1       5.736  28.576  48.543  1.00  0.00     0.019 A 
HETATM   23  N   UNL     1       3.078  28.268  51.133  1.00  0.00    -0.364 N 
HETATM   24  C   UNL     1       3.545  26.952  49.145  1.00  0.00     0.030 A 
HETATM   25  H   UNL     1       2.526  27.484  51.460  1.00  0.00     0.162 HD
HETATM   26  C   UNL     1       4.322  26.697  48.010  1.00  0.00     0.002 A 
HETATM   27  C   UNL     1       5.423  27.501  47.714  1.00  0.00     0.001 A 
ENDBRANCH   8  15
TORSDOF 1
ENDMDL
MODEL 8
REMARK VINA RESULT:      -8.3      8.507     10.827
REMARK  1 active torsions:
REMARK  status: ('A' for Active; 'I' for Inactive)
REMARK    1  A    between atoms: C_8  and  C_9 
ROOT
HETATM    1  C   UNL     1       5.191  32.567  58.127  1.00  0.00     0.049 C 
HETATM    2  C   UNL     1       6.073  32.178  59.283  1.00  0.00    -0.050 A 
HETATM    3  C   UNL     1       5.690  32.368  60.626  1.00  0.00    -0.002 A 
HETATM    4  C   UNL     1       6.556  31.963  61.661  1.00  0.00     0.051 A 
HETATM    5  N   UNL     1       6.139  32.129  62.990  1.00  0.00    -0.322 N 
HETATM    6  C   UNL     1       4.945  32.675  63.363  1.00  0.00     0.256 A 
HETATM    7  O   UNL     1       4.625  32.744  64.547  1.00  0.00    -0.267 OA
HETATM    8  C   UNL     1       4.050  33.188  62.284  1.00  0.00     0.053 A 
HETATM    9  C   UNL     1       4.417  33.001  61.002  1.00  0.00     0.031 A 
HETATM   10  C   UNL     1       7.808  31.390  61.380  1.00  0.00    -0.034 A 
HETATM   11  C   UNL     1       8.760  30.971  62.465  1.00  0.00     0.050 C 
HETATM   12  C   UNL     1       8.174  31.207  60.043  1.00  0.00     0.009 A 
HETATM   13  C   UNL     1       7.317  31.590  59.010  1.00  0.00     0.008 A 
HETATM   14  H   UNL     1       6.727  31.822  63.751  1.00  0.00     0.169 HD
ENDROOT
BRANCH   8  15
HETATM   15  C   UNL     1       2.794  33.854  62.795  1.00  0.00     0.224 C 
HETATM   16  N   UNL     1       3.113  35.060  63.500  1.00  0.00    -0.331 N 
HETATM   17  C   UNL     1       3.343  36.253  62.876  1.00  0.00     0.255 C 
HETATM   18  H   UNL     1       3.571  34.955  64.397  1.00  0.00     0.165 HD
HETATM   19  O   UNL     1       3.950  37.164  63.426  1.00  0.00    -0.268 OA
HETATM   20  C   UNL     1       2.797  36.389  61.513  1.00  0.00     0.058 A 
HETATM   21  C   UNL     1       2.052  35.321  60.996  1.00  0.00     0.045 A 
HETATM   22  C   UNL     1       2.998  37.563  60.780  1.00  0.00     0.019 A 
HETATM   23  N   UNL     1       1.827  34.163  61.748  1.00  0.00    -0.364 N 
HETATM   24  C   UNL     1       1.441  35.487  59.748  1.00  0.00     0.030 A 
HETATM   25  H   UNL     1       1.541  33.356  61.207  1.00  0.00     0.162 HD
HETATM   26  C   UNL     1       1.638  36.657  59.008  1.00  0.00     0.002 A 
HETATM   27  C   UNL     1       2.424  37.690  59.517  1.00  0.00     0.001 A 
ENDBRANCH   8  15
TORSDOF 1
ENDMDL
MODEL 9
REMARK VINA RESULT:      -8.1      1.272      1.507
REMARK  1 active torsions:
REMARK  status: ('A' for Active; 'I' for Inactive)
REMARK    1  A    between atoms: C_8  and  C_9 
ROOT
HETATM    1  C   UNL     1       7.254  23.706  52.236  1.00  0.00     0.049 C 
HETATM    2  C   UNL     1       7.529  23.194  53.625  1.00  0.00    -0.050 A 
HETATM    3  C   UNL     1       7.768  24.053  54.716  1.00  0.00    -0.002 A 
HETATM    4  C   UNL     1       7.998  23.507  55.995  1.00  0.00     0.051 A 
HETATM    5  N   UNL     1       8.200  24.382  57.073  1.00  0.00    -0.322 N 
HETATM    6  C   UNL     1       8.202  25.743  56.973  1.00  0.00     0.256 A 
HETATM    7  O   UNL     1       8.335  26.448  57.971  1.00  0.00    -0.267 OA
HETATM    8  C   UNL     1       8.044  26.339  55.614  1.00  0.00     0.053 A 
HETATM    9  C   UNL     1       7.811  25.516  54.574  1.00  0.00     0.031 A 
HETATM   10  C   UNL     1       8.016  22.117  56.200  1.00  0.00    -0.034 A 
HETATM   11  C   UNL     1       8.283  21.509  57.549  1.00  0.00     0.050 C 
HETATM   12  C   UNL     1       7.775  21.278  55.108  1.00  0.00     0.009 A 
HETATM   13  C   UNL     1       7.530  21.808  53.840  1.00  0.00     0.008 A 
HETATM   14  H   UNL     1       8.339  24.019  58.005  1.00  0.00     0.169 HD
ENDROOT
BRANCH   8  15
HETATM   15  C   UNL     1       8.149  27.846  55.590  1.00  0.00     0.224 C 
HETATM   16  N   UNL     1       7.967  28.344  54.259  1.00  0.00    -0.331 N 
HETATM   17  C   UNL     1       6.738  28.544  53.697  1.00  0.00     0.255 C 
HETATM   18  H   UNL     1       8.711  28.157  53.598  1.00  0.00     0.165 HD
HETATM   19  O   UNL     1       6.587  28.618  52.483  1.00  0.00    -0.268 OA
HETATM   20  C   UNL     1       5.610  28.691  54.635  1.00  0.00     0.058 A 
HETATM   21  C   UNL     1       5.893  28.668  56.008  1.00  0.00     0.045 A 
HETATM   22  C   UNL     1       4.309  28.877  54.160  1.00  0.00     0.019 A 
HETATM   23  N   UNL     1       7.203  28.514  56.475  1.00  0.00    -0.364 N 
HETATM   24  C   UNL     1       4.844  28.914  56.900  1.00  0.00     0.030 A 
HETATM   25  H   UNL     1       7.275  28.223  57.443  1.00  0.00     0.162 HD
HETATM   26  C   UNL     1       3.539  29.099  56.433  1.00  0.00     0.002 A 
HETATM   27  C   UNL     1       3.269  29.070  55.065  1.00  0.00     0.001 A 
ENDBRANCH   8  15
TORSDOF 1
ENDMDL
MODEL 10
REMARK VINA RESULT:      -8.0      9.639     11.654
REMARK  1 active torsions:
REMARK  status: ('A' for Active; 'I' for Inactive)
REMARK    1  A    between atoms: C_8  and  C_9 
ROOT
HETATM    1  C   UNL     1       7.735  32.374  61.360  1.00  0.00     0.049 C 
HETATM    2  C   UNL     1       7.158  32.854  62.665  1.00  0.00    -0.050 A 
HETATM    3  C   UNL     1       5.788  33.144  62.827  1.00  0.00    -0.002 A 
HETATM    4  C   UNL     1       5.311  33.570  64.082  1.00  0.00     0.051 A 
HETATM    5  N   UNL     1       3.938  33.820  64.230  1.00  0.00    -0.322 N 
HETATM    6  C   UNL     1       3.017  33.690  63.231  1.00  0.00     0.256 A 
HETATM    7  O   UNL     1       1.822  33.878  63.447  1.00  0.00    -0.267 OA
HETATM    8  C   UNL     1       3.515  33.322  61.873  1.00  0.00     0.053 A 
HETATM    9  C   UNL     1       4.823  33.041  61.722  1.00  0.00     0.031 A 
HETATM   10  C   UNL     1       6.180  33.734  65.174  1.00  0.00    -0.034 A 
HETATM   11  C   UNL     1       5.700  34.211  66.517  1.00  0.00     0.050 C 
HETATM   12  C   UNL     1       7.536  33.441  64.998  1.00  0.00     0.009 A 
HETATM   13  C   UNL     1       8.017  33.003  63.764  1.00  0.00     0.008 A 
HETATM   14  H   UNL     1       3.564  34.099  65.125  1.00  0.00     0.169 HD
ENDROOT
BRANCH   8  15
HETATM   15  C   UNL     1       2.438  33.290  60.814  1.00  0.00     0.224 C 
HETATM   16  N   UNL     1       1.802  34.569  60.702  1.00  0.00    -0.331 N 
HETATM   17  C   UNL     1       2.319  35.600  59.970  1.00  0.00     0.255 C 
HETATM   18  H   UNL     1       1.209  34.851  61.473  1.00  0.00     0.165 HD
HETATM   19  O   UNL     1       1.980  36.762  60.161  1.00  0.00    -0.268 OA
HETATM   20  C   UNL     1       3.287  35.231  58.921  1.00  0.00     0.058 A 
HETATM   21  C   UNL     1       3.555  33.869  58.726  1.00  0.00     0.045 A 
HETATM   22  C   UNL     1       3.890  36.214  58.131  1.00  0.00     0.019 A 
HETATM   23  N   UNL     1       2.921  32.889  59.498  1.00  0.00    -0.364 N 
HETATM   24  C   UNL     1       4.388  33.507  57.663  1.00  0.00     0.030 A 
HETATM   25  H   UNL     1       3.378  31.984  59.491  1.00  0.00     0.162 HD
HETATM   26  C   UNL     1       4.998  34.485  56.870  1.00  0.00     0.002 A 
HETATM   27  C   UNL     1       4.758  35.837  57.109  1.00  0.00     0.001 A 
ENDBRANCH   8  15
TORSDOF 1
ENDMDL
