MODEL 1
REMARK VINA RESULT:     -12.1      0.000      0.000
REMARK  8 active torsions:
REMARK  status: ('A' for Active; 'I' for Inactive)
REMARK    1  A    between atoms: O_2  and  C_3 
REMARK    2  A    between atoms: C_5  and  N_6 
REMARK       I    between atoms: N_6  and  C_7 
REMARK    3  A    between atoms: C_7  and  C_8 
REMARK    4  A    between atoms: C_8  and  N_9 
REMARK       I    between atoms: N_15  and  C_16 
REMARK    5  A    between atoms: C_16  and  C_17 
REMARK    6  A    between atoms: C_17  and  C_18 
REMARK    7  A    between atoms: C_18  and  C_19 
REMARK    8  A    between atoms: N_28  and  C_29 
ROOT
HETATM    1  N   UNL     1       7.517  29.861  58.129  1.00  0.00    -0.325 N 
HETATM    2  C   UNL     1       7.361  28.582  57.658  1.00  0.00     0.250 C 
HETATM    3  O   UNL     1       7.970  27.611  58.082  1.00  0.00    -0.270 OA
HETATM    4  C   UNL     1       6.328  28.619  56.514  1.00  0.00     0.118 C 
HETATM    5  C   UNL     1       5.282  27.523  56.765  1.00  0.00     0.061 C 
HETATM    6  C   UNL     1       5.790  26.132  56.396  1.00  0.00     0.129 C 
HETATM    7  N   UNL     1       6.427  26.129  55.082  1.00  0.00    -0.352 N 
HETATM    8  C   UNL     1       5.927  25.293  54.094  1.00  0.00     0.220 C 
HETATM    9  O   UNL     1       4.895  24.637  54.253  1.00  0.00    -0.273 OA
HETATM   10  C   UNL     1       7.564  27.034  54.953  1.00  0.00     0.129 C 
HETATM   11  C   UNL     1       7.127  28.475  55.203  1.00  0.00     0.061 C 
HETATM   12  N   UNL     1       5.766  29.994  56.667  1.00  0.00    -0.346 N 
HETATM   13  C   UNL     1       6.524  30.769  57.644  1.00  0.00     0.254 C 
ENDROOT
BRANCH  12  14
HETATM   14  C   UNL     1       4.743  30.588  55.950  1.00  0.00     0.032 A 
HETATM   15  C   UNL     1       3.898  31.554  56.533  1.00  0.00     0.029 A 
HETATM   16  C   UNL     1       2.848  32.166  55.832  1.00  0.00     0.002 A 
HETATM   17  C   UNL     1       2.607  31.832  54.509  1.00  0.00     0.000 A 
HETATM   18  C   UNL     1       3.415  30.886  53.897  1.00  0.00     0.002 A 
HETATM   19  C   UNL     1       4.459  30.278  54.612  1.00  0.00     0.029 A 
ENDBRANCH  12  14
BRANCH   1  20
HETATM   20  C   UNL     1       8.522  30.278  59.092  1.00  0.00     0.230 C 
BRANCH  20  21
HETATM   21  C   UNL     1       8.109  31.418  60.028  1.00  0.00     0.240 C 
HETATM   22  N   UNL     1       7.433  30.993  61.155  1.00  0.00    -0.326 N 
HETATM   23  H   UNL     1       7.220  30.002  61.199  1.00  0.00     0.169 HD
HETATM   24  O   UNL     1       8.485  32.563  59.793  1.00  0.00    -0.271 OA
BRANCH  22  25
HETATM   25  C   UNL     1       7.069  31.759  62.282  1.00  0.00     0.037 A 
HETATM   26  C   UNL     1       5.751  32.034  62.650  1.00  0.00     0.066 A 
HETATM   27  C   UNL     1       5.465  32.857  63.748  1.00  0.00     0.070 A 
HETATM   28  C   UNL     1       6.510  33.369  64.516  1.00  0.00     0.037 A 
HETATM   29  C   UNL     1       7.831  33.086  64.168  1.00  0.00     0.005 A 
HETATM   30  C   UNL     1       8.109  32.295  63.052  1.00  0.00     0.029 A 
BRANCH  27  31
HETATM   31  O   UNL     1       4.133  33.076  63.974  1.00  0.00    -0.356 OA
HETATM   32  C   UNL     1       3.447  33.863  63.008  1.00  0.00     0.210 C 
ENDBRANCH  27  31
ENDBRANCH  22  25
ENDBRANCH  20  21
ENDBRANCH   1  20
BRANCH   8  33
HETATM   33  C   UNL     1       6.706  25.138  52.804  1.00  0.00     0.107 C 
BRANCH  33  34
HETATM   34  C   UNL     1       8.090  24.568  53.098  1.00  0.00     0.047 C 
BRANCH  34  35
HETATM   35  C   UNL     1       8.022  23.166  53.651  1.00  0.00    -0.058 A 
HETATM   36  C   UNL     1       7.863  22.068  52.797  1.00  0.00     0.007 A 
HETATM   37  C   UNL     1       7.802  20.773  53.315  1.00  0.00     0.001 A 
HETATM   38  C   UNL     1       7.892  20.566  54.691  1.00  0.00     0.000 A 
HETATM   39  C   UNL     1       8.041  21.653  55.550  1.00  0.00     0.001 A 
HETATM   40  C   UNL     1       8.103  22.947  55.032  1.00  0.00     0.007 A 
ENDBRANCH  34  35
ENDBRANCH  33  34
ENDBRANCH   8  33
TORSDOF 8
ENDMDL
MODEL 2
REMARK VINA RESULT:     -12.0      1.923      3.490
REMARK  8 active torsions:
REMARK  status: ('A' for Active; 'I' for Inactive)
REMARK    1  A    between atoms: O_2  and  C_3 
REMARK    2  A    between atoms: C_5  and  N_6 
REMARK       I    between atoms: N_6  and  C_7 
REMARK    3  A    between atoms: C_7  and  C_8 
REMARK    4  A    between atoms: C_8  and  N_9 
REMARK       I    between atoms: N_15  and  C_16 
REMARK    5  A    between atoms: C_16  and  C_17 
REMARK    6  A    between atoms: C_17  and  C_18 
REMARK    7  A    between atoms: C_18  and  C_19 
REMARK    8  A    between atoms: N_28  and  C_29 
ROOT
HETATM    1  N   UNL     1       5.027  31.064  58.338  1.00  0.00    -0.325 N 
HETATM    2  C   UNL     1       4.718  30.208  57.312  1.00  0.00     0.250 C 
HETATM    3  O   UNL     1       3.591  30.031  56.875  1.00  0.00    -0.270 OA
HETATM    4  C   UNL     1       6.022  29.519  56.859  1.00  0.00     0.118 C 
HETATM    5  C   UNL     1       6.123  29.625  55.330  1.00  0.00     0.061 C 
HETATM    6  C   UNL     1       5.225  28.622  54.612  1.00  0.00     0.129 C 
HETATM    7  N   UNL     1       5.363  27.283  55.178  1.00  0.00    -0.352 N 
HETATM    8  C   UNL     1       5.767  26.242  54.354  1.00  0.00     0.220 C 
HETATM    9  O   UNL     1       6.121  26.432  53.188  1.00  0.00    -0.273 OA
HETATM   10  C   UNL     1       5.043  27.184  56.598  1.00  0.00     0.129 C 
HETATM   11  C   UNL     1       5.970  28.082  57.414  1.00  0.00     0.061 C 
HETATM   12  N   UNL     1       7.051  30.343  57.560  1.00  0.00    -0.346 N 
HETATM   13  C   UNL     1       6.432  31.275  58.497  1.00  0.00     0.254 C 
ENDROOT
BRANCH  12  14
HETATM   14  C   UNL     1       8.429  30.240  57.488  1.00  0.00     0.032 A 
HETATM   15  C   UNL     1       9.272  31.078  58.244  1.00  0.00     0.029 A 
HETATM   16  C   UNL     1      10.671  31.001  58.184  1.00  0.00     0.002 A 
HETATM   17  C   UNL     1      11.281  30.070  57.359  1.00  0.00     0.000 A 
HETATM   18  C   UNL     1      10.488  29.224  56.598  1.00  0.00     0.002 A 
HETATM   19  C   UNL     1       9.090  29.316  56.664  1.00  0.00     0.029 A 
ENDBRANCH  12  14
BRANCH   1  20
HETATM   20  C   UNL     1       4.055  31.776  59.151  1.00  0.00     0.230 C 
BRANCH  20  21
HETATM   21  C   UNL     1       4.636  32.618  60.291  1.00  0.00     0.240 C 
HETATM   22  N   UNL     1       5.048  31.871  61.378  1.00  0.00    -0.326 N 
HETATM   23  H   UNL     1       4.853  30.877  61.335  1.00  0.00     0.169 HD
HETATM   24  O   UNL     1       4.800  33.824  60.132  1.00  0.00    -0.271 OA
BRANCH  22  25
HETATM   25  C   UNL     1       5.771  32.316  62.505  1.00  0.00     0.037 A 
HETATM   26  C   UNL     1       5.182  32.837  63.658  1.00  0.00     0.066 A 
HETATM   27  C   UNL     1       5.968  33.319  64.714  1.00  0.00     0.070 A 
HETATM   28  C   UNL     1       7.357  33.232  64.635  1.00  0.00     0.037 A 
HETATM   29  C   UNL     1       7.955  32.697  63.495  1.00  0.00     0.005 A 
HETATM   30  C   UNL     1       7.168  32.252  62.432  1.00  0.00     0.029 A 
BRANCH  27  31
HETATM   31  O   UNL     1       5.263  33.838  65.767  1.00  0.00    -0.356 OA
HETATM   32  C   UNL     1       3.946  34.293  65.485  1.00  0.00     0.210 C 
ENDBRANCH  27  31
ENDBRANCH  22  25
ENDBRANCH  20  21
ENDBRANCH   1  20
BRANCH   8  33
HETATM   33  C   UNL     1       5.715  24.825  54.886  1.00  0.00     0.107 C 
BRANCH  33  34
HETATM   34  C   UNL     1       7.111  24.380  55.315  1.00  0.00     0.047 C 
BRANCH  34  35
HETATM   35  C   UNL     1       7.465  23.018  54.774  1.00  0.00    -0.058 A 
HETATM   36  C   UNL     1       7.632  22.814  53.399  1.00  0.00     0.007 A 
HETATM   37  C   UNL     1       7.961  21.551  52.907  1.00  0.00     0.001 A 
HETATM   38  C   UNL     1       8.119  20.478  53.783  1.00  0.00     0.000 A 
HETATM   39  C   UNL     1       7.946  20.668  55.153  1.00  0.00     0.001 A 
HETATM   40  C   UNL     1       7.618  21.931  55.646  1.00  0.00     0.007 A 
ENDBRANCH  34  35
ENDBRANCH  33  34
ENDBRANCH   8  33
TORSDOF 8
ENDMDL
MODEL 3
REMARK VINA RESULT:     -10.8      1.850      3.329
REMARK  8 active torsions:
REMARK  status: ('A' for Active; 'I' for Inactive)
REMARK    1  A    between atoms: O_2  and  C_3 
REMARK    2  A    between atoms: C_5  and  N_6 
REMARK       I    between atoms: N_6  and  C_7 
REMARK    3  A    between atoms: C_7  and  C_8 
REMARK    4  A    between atoms: C_8  and  N_9 
REMARK       I    between atoms: N_15  and  C_16 
REMARK    5  A    between atoms: C_16  and  C_17 
REMARK    6  A    between atoms: C_17  and  C_18 
REMARK    7  A    between atoms: C_18  and  C_19 
REMARK    8  A    between atoms: N_28  and  C_29 
ROOT
HETATM    1  N   UNL     1       7.508  30.022  58.428  1.00  0.00    -0.325 N 
HETATM    2  C   UNL     1       7.380  28.784  57.852  1.00  0.00     0.250 C 
HETATM    3  O   UNL     1       8.008  27.794  58.196  1.00  0.00    -0.270 OA
HETATM    4  C   UNL     1       6.348  28.895  56.711  1.00  0.00     0.118 C 
HETATM    5  C   UNL     1       5.325  27.761  56.867  1.00  0.00     0.061 C 
HETATM    6  C   UNL     1       5.863  26.416  56.385  1.00  0.00     0.129 C 
HETATM    7  N   UNL     1       6.502  26.535  55.078  1.00  0.00    -0.352 N 
HETATM    8  C   UNL     1       6.021  25.774  54.022  1.00  0.00     0.220 C 
HETATM    9  O   UNL     1       5.003  25.086  54.123  1.00  0.00    -0.273 OA
HETATM   10  C   UNL     1       7.620  27.471  55.028  1.00  0.00     0.129 C 
HETATM   11  C   UNL     1       7.152  28.877  55.396  1.00  0.00     0.061 C 
HETATM   12  N   UNL     1       5.757  30.241  56.977  1.00  0.00    -0.346 N 
HETATM   13  C   UNL     1       6.498  30.947  58.017  1.00  0.00     0.254 C 
ENDROOT
BRANCH  12  14
HETATM   14  C   UNL     1       4.723  30.871  56.308  1.00  0.00     0.032 A 
HETATM   15  C   UNL     1       4.969  31.811  55.287  1.00  0.00     0.029 A 
HETATM   16  C   UNL     1       3.940  32.471  54.599  1.00  0.00     0.002 A 
HETATM   17  C   UNL     1       2.616  32.208  54.910  1.00  0.00     0.000 A 
HETATM   18  C   UNL     1       2.329  31.290  55.908  1.00  0.00     0.002 A 
HETATM   19  C   UNL     1       3.368  30.641  56.592  1.00  0.00     0.029 A 
ENDBRANCH  12  14
BRANCH   1  20
HETATM   20  C   UNL     1       8.503  30.379  59.426  1.00  0.00     0.230 C 
BRANCH  20  21
HETATM   21  C   UNL     1       8.125  31.538  60.352  1.00  0.00     0.240 C 
HETATM   22  N   UNL     1       7.316  31.165  61.408  1.00  0.00    -0.326 N 
HETATM   23  H   UNL     1       7.003  30.200  61.409  1.00  0.00     0.169 HD
HETATM   24  O   UNL     1       8.630  32.644  60.179  1.00  0.00    -0.271 OA
BRANCH  22  25
HETATM   25  C   UNL     1       6.933  31.945  62.519  1.00  0.00     0.037 A 
HETATM   26  C   UNL     1       5.618  32.323  62.796  1.00  0.00     0.066 A 
HETATM   27  C   UNL     1       5.321  33.153  63.885  1.00  0.00     0.070 A 
HETATM   28  C   UNL     1       6.344  33.568  64.735  1.00  0.00     0.037 A 
HETATM   29  C   UNL     1       7.660  33.182  64.478  1.00  0.00     0.005 A 
HETATM   30  C   UNL     1       7.954  32.384  63.371  1.00  0.00     0.029 A 
BRANCH  27  31
HETATM   31  O   UNL     1       3.997  33.478  64.018  1.00  0.00    -0.356 OA
HETATM   32  C   UNL     1       3.239  33.553  62.817  1.00  0.00     0.210 C 
ENDBRANCH  27  31
ENDBRANCH  22  25
ENDBRANCH  20  21
ENDBRANCH   1  20
BRANCH   8  33
HETATM   33  C   UNL     1       6.805  25.744  52.726  1.00  0.00     0.107 C 
BRANCH  33  34
HETATM   34  C   UNL     1       5.880  25.373  51.570  1.00  0.00     0.047 C 
BRANCH  34  35
HETATM   35  C   UNL     1       5.381  26.588  50.829  1.00  0.00    -0.058 A 
HETATM   36  C   UNL     1       5.597  27.875  51.338  1.00  0.00     0.007 A 
HETATM   37  C   UNL     1       5.133  28.995  50.646  1.00  0.00     0.001 A 
HETATM   38  C   UNL     1       4.444  28.839  49.444  1.00  0.00     0.000 A 
HETATM   39  C   UNL     1       4.216  27.562  48.934  1.00  0.00     0.001 A 
HETATM   40  C   UNL     1       4.680  26.442  49.624  1.00  0.00     0.007 A 
ENDBRANCH  34  35
ENDBRANCH  33  34
ENDBRANCH   8  33
TORSDOF 8
ENDMDL
MODEL 4
REMARK VINA RESULT:     -10.7      5.281      9.621
REMARK  8 active torsions:
REMARK  status: ('A' for Active; 'I' for Inactive)
REMARK    1  A    between atoms: O_2  and  C_3 
REMARK    2  A    between atoms: C_5  and  N_6 
REMARK       I    between atoms: N_6  and  C_7 
REMARK    3  A    between atoms: C_7  and  C_8 
REMARK    4  A    between atoms: C_8  and  N_9 
REMARK       I    between atoms: N_15  and  C_16 
REMARK    5  A    between atoms: C_16  and  C_17 
REMARK    6  A    between atoms: C_17  and  C_18 
REMARK    7  A    between atoms: C_18  and  C_19 
REMARK    8  A    between atoms: N_28  and  C_29 
ROOT
HETATM    1  N   UNL     1       4.266  35.551  65.629  1.00  0.00    -0.325 N 
HETATM    2  C   UNL     1       4.381  34.582  64.665  1.00  0.00     0.250 C 
HETATM    3  O   UNL     1       3.872  33.474  64.736  1.00  0.00    -0.270 OA
HETATM    4  C   UNL     1       5.268  35.140  63.534  1.00  0.00     0.118 C 
HETATM    5  C   UNL     1       4.560  34.898  62.193  1.00  0.00     0.061 C 
HETATM    6  C   UNL     1       4.686  33.453  61.717  1.00  0.00     0.129 C 
HETATM    7  N   UNL     1       6.063  32.979  61.815  1.00  0.00    -0.352 N 
HETATM    8  C   UNL     1       6.706  32.531  60.669  1.00  0.00     0.220 C 
HETATM    9  O   UNL     1       6.191  32.627  59.553  1.00  0.00    -0.273 OA
HETATM   10  C   UNL     1       6.629  33.022  63.159  1.00  0.00     0.129 C 
HETATM   11  C   UNL     1       6.642  34.457  63.683  1.00  0.00     0.061 C 
HETATM   12  N   UNL     1       5.332  36.588  63.895  1.00  0.00    -0.346 N 
HETATM   13  C   UNL     1       4.739  36.832  65.206  1.00  0.00     0.254 C 
ENDROOT
BRANCH  12  14
HETATM   14  C   UNL     1       5.946  37.618  63.206  1.00  0.00     0.032 A 
HETATM   15  C   UNL     1       6.441  38.759  63.871  1.00  0.00     0.029 A 
HETATM   16  C   UNL     1       7.060  39.822  63.196  1.00  0.00     0.002 A 
HETATM   17  C   UNL     1       7.210  39.778  61.819  1.00  0.00     0.000 A 
HETATM   18  C   UNL     1       6.738  38.674  61.126  1.00  0.00     0.002 A 
HETATM   19  C   UNL     1       6.116  37.620  61.813  1.00  0.00     0.029 A 
ENDBRANCH  12  14
BRANCH   1  20
HETATM   20  C   UNL     1       3.651  35.361  66.933  1.00  0.00     0.230 C 
BRANCH  20  21
HETATM   21  C   UNL     1       4.492  34.590  67.954  1.00  0.00     0.240 C 
HETATM   22  N   UNL     1       5.520  35.333  68.501  1.00  0.00    -0.326 N 
HETATM   23  H   UNL     1       5.652  36.262  68.116  1.00  0.00     0.169 HD
HETATM   24  O   UNL     1       4.149  33.461  68.294  1.00  0.00    -0.271 OA
BRANCH  22  25
HETATM   25  C   UNL     1       6.361  34.981  69.578  1.00  0.00     0.037 A 
HETATM   26  C   UNL     1       5.909  34.732  70.875  1.00  0.00     0.066 A 
HETATM   27  C   UNL     1       6.810  34.450  71.911  1.00  0.00     0.070 A 
HETATM   28  C   UNL     1       8.174  34.366  71.634  1.00  0.00     0.037 A 
HETATM   29  C   UNL     1       8.634  34.595  70.338  1.00  0.00     0.005 A 
HETATM   30  C   UNL     1       7.735  34.911  69.318  1.00  0.00     0.029 A 
BRANCH  27  31
HETATM   31  O   UNL     1       6.236  34.265  73.140  1.00  0.00    -0.356 OA
HETATM   32  C   UNL     1       5.342  35.279  73.581  1.00  0.00     0.210 C 
ENDBRANCH  27  31
ENDBRANCH  22  25
ENDBRANCH  20  21
ENDBRANCH   1  20
BRANCH   8  33
HETATM   33  C   UNL     1       8.053  31.853  60.803  1.00  0.00     0.107 C 
BRANCH  33  34
HETATM   34  C   UNL     1       8.964  32.278  59.654  1.00  0.00     0.047 C 
BRANCH  34  35
HETATM   35  C   UNL     1       9.263  31.137  58.714  1.00  0.00    -0.058 A 
HETATM   36  C   UNL     1       8.367  30.070  58.576  1.00  0.00     0.007 A 
HETATM   37  C   UNL     1       8.650  29.019  57.702  1.00  0.00     0.001 A 
HETATM   38  C   UNL     1       9.833  29.021  56.965  1.00  0.00     0.000 A 
HETATM   39  C   UNL     1      10.735  30.075  57.101  1.00  0.00     0.001 A 
HETATM   40  C   UNL     1      10.453  31.127  57.974  1.00  0.00     0.007 A 
ENDBRANCH  34  35
ENDBRANCH  33  34
ENDBRANCH   8  33
TORSDOF 8
ENDMDL
MODEL 5
REMARK VINA RESULT:     -10.1      4.390      7.403
REMARK  8 active torsions:
REMARK  status: ('A' for Active; 'I' for Inactive)
REMARK    1  A    between atoms: O_2  and  C_3 
REMARK    2  A    between atoms: C_5  and  N_6 
REMARK       I    between atoms: N_6  and  C_7 
REMARK    3  A    between atoms: C_7  and  C_8 
REMARK    4  A    between atoms: C_8  and  N_9 
REMARK       I    between atoms: N_15  and  C_16 
REMARK    5  A    between atoms: C_16  and  C_17 
REMARK    6  A    between atoms: C_17  and  C_18 
REMARK    7  A    between atoms: C_18  and  C_19 
REMARK    8  A    between atoms: N_28  and  C_29 
ROOT
HETATM    1  N   UNL     1       4.713  29.020  55.896  1.00  0.00    -0.325 N 
HETATM    2  C   UNL     1       4.685  29.370  54.571  1.00  0.00     0.250 C 
HETATM    3  O   UNL     1       4.401  30.483  54.155  1.00  0.00    -0.270 OA
HETATM    4  C   UNL     1       5.040  28.119  53.742  1.00  0.00     0.118 C 
HETATM    5  C   UNL     1       6.130  28.499  52.728  1.00  0.00     0.061 C 
HETATM    6  C   UNL     1       5.574  29.259  51.528  1.00  0.00     0.129 C 
HETATM    7  N   UNL     1       4.387  28.605  50.986  1.00  0.00    -0.352 N 
HETATM    8  C   UNL     1       4.391  28.192  49.661  1.00  0.00     0.220 C 
HETATM    9  O   UNL     1       5.404  28.257  48.960  1.00  0.00    -0.273 OA
HETATM   10  C   UNL     1       3.285  28.459  51.931  1.00  0.00     0.129 C 
HETATM   11  C   UNL     1       3.720  27.615  53.126  1.00  0.00     0.061 C 
HETATM   12  N   UNL     1       5.541  27.194  54.802  1.00  0.00    -0.346 N 
HETATM   13  C   UNL     1       5.308  27.742  56.134  1.00  0.00     0.254 C 
ENDROOT
BRANCH  12  14
HETATM   14  C   UNL     1       6.067  25.922  54.654  1.00  0.00     0.032 A 
HETATM   15  C   UNL     1       6.190  25.318  53.387  1.00  0.00     0.029 A 
HETATM   16  C   UNL     1       6.711  24.027  53.209  1.00  0.00     0.002 A 
HETATM   17  C   UNL     1       7.133  23.291  54.304  1.00  0.00     0.000 A 
HETATM   18  C   UNL     1       7.029  23.848  55.570  1.00  0.00     0.002 A 
HETATM   19  C   UNL     1       6.502  25.138  55.733  1.00  0.00     0.029 A 
ENDBRANCH  12  14
BRANCH   1  20
HETATM   20  C   UNL     1       4.273  29.868  56.992  1.00  0.00     0.230 C 
BRANCH  20  21
HETATM   21  C   UNL     1       5.300  30.889  57.491  1.00  0.00     0.240 C 
HETATM   22  N   UNL     1       6.245  30.353  58.344  1.00  0.00    -0.326 N 
HETATM   23  H   UNL     1       6.113  29.381  58.602  1.00  0.00     0.169 HD
HETATM   24  O   UNL     1       5.291  32.030  57.038  1.00  0.00    -0.271 OA
BRANCH  22  25
HETATM   25  C   UNL     1       7.411  30.975  58.839  1.00  0.00     0.037 A 
HETATM   26  C   UNL     1       8.651  30.939  58.197  1.00  0.00     0.066 A 
HETATM   27  C   UNL     1       9.782  31.526  58.780  1.00  0.00     0.070 A 
HETATM   28  C   UNL     1       9.660  32.199  59.995  1.00  0.00     0.037 A 
HETATM   29  C   UNL     1       8.423  32.256  60.636  1.00  0.00     0.005 A 
HETATM   30  C   UNL     1       7.308  31.639  60.067  1.00  0.00     0.029 A 
BRANCH  27  31
HETATM   31  O   UNL     1      10.939  31.384  58.063  1.00  0.00    -0.356 OA
HETATM   32  C   UNL     1      11.084  30.177  57.326  1.00  0.00     0.210 C 
ENDBRANCH  27  31
ENDBRANCH  22  25
ENDBRANCH  20  21
ENDBRANCH   1  20
BRANCH   8  33
HETATM   33  C   UNL     1       3.099  27.700  49.043  1.00  0.00     0.107 C 
BRANCH  33  34
HETATM   34  C   UNL     1       3.163  27.842  47.525  1.00  0.00     0.047 C 
BRANCH  34  35
HETATM   35  C   UNL     1       1.833  28.236  46.934  1.00  0.00    -0.058 A 
HETATM   36  C   UNL     1       0.839  27.277  46.703  1.00  0.00     0.007 A 
HETATM   37  C   UNL     1      -0.390  27.650  46.158  1.00  0.00     0.001 A 
HETATM   38  C   UNL     1      -0.635  28.983  45.831  1.00  0.00     0.000 A 
HETATM   39  C   UNL     1       0.351  29.944  46.049  1.00  0.00     0.001 A 
HETATM   40  C   UNL     1       1.579  29.572  46.595  1.00  0.00     0.007 A 
ENDBRANCH  34  35
ENDBRANCH  33  34
ENDBRANCH   8  33
TORSDOF 8
ENDMDL
MODEL 6
REMARK VINA RESULT:     -10.0      6.010      9.487
REMARK  8 active torsions:
REMARK  status: ('A' for Active; 'I' for Inactive)
REMARK    1  A    between atoms: O_2  and  C_3 
REMARK    2  A    between atoms: C_5  and  N_6 
REMARK       I    between atoms: N_6  and  C_7 
REMARK    3  A    between atoms: C_7  and  C_8 
REMARK    4  A    between atoms: C_8  and  N_9 
REMARK       I    between atoms: N_15  and  C_16 
REMARK    5  A    between atoms: C_16  and  C_17 
REMARK    6  A    between atoms: C_17  and  C_18 
REMARK    7  A    between atoms: C_18  and  C_19 
REMARK    8  A    between atoms: N_28  and  C_29 
ROOT
HETATM    1  N   UNL     1       3.997  35.658  64.929  1.00  0.00    -0.325 N 
HETATM    2  C   UNL     1       3.483  34.840  63.956  1.00  0.00     0.250 C 
HETATM    3  O   UNL     1       2.749  33.887  64.170  1.00  0.00    -0.270 OA
HETATM    4  C   UNL     1       4.019  35.328  62.594  1.00  0.00     0.118 C 
HETATM    5  C   UNL     1       2.836  35.460  61.623  1.00  0.00     0.061 C 
HETATM    6  C   UNL     1       2.377  34.112  61.073  1.00  0.00     0.129 C 
HETATM    7  N   UNL     1       3.507  33.313  60.610  1.00  0.00    -0.352 N 
HETATM    8  C   UNL     1       3.541  32.896  59.287  1.00  0.00     0.220 C 
HETATM    9  O   UNL     1       2.705  33.274  58.462  1.00  0.00    -0.273 OA
HETATM   10  C   UNL     1       4.509  33.024  61.631  1.00  0.00     0.129 C 
HETATM   11  C   UNL     1       5.107  34.321  62.170  1.00  0.00     0.061 C 
HETATM   12  N   UNL     1       4.607  36.650  62.964  1.00  0.00    -0.346 N 
HETATM   13  C   UNL     1       4.620  36.836  64.412  1.00  0.00     0.254 C 
ENDROOT
BRANCH  12  14
HETATM   14  C   UNL     1       5.190  37.592  62.136  1.00  0.00     0.032 A 
HETATM   15  C   UNL     1       6.433  38.180  62.447  1.00  0.00     0.029 A 
HETATM   16  C   UNL     1       7.042  39.143  61.630  1.00  0.00     0.002 A 
HETATM   17  C   UNL     1       6.424  39.554  60.460  1.00  0.00     0.000 A 
HETATM   18  C   UNL     1       5.200  39.002  60.116  1.00  0.00     0.002 A 
HETATM   19  C   UNL     1       4.599  38.042  60.945  1.00  0.00     0.029 A 
ENDBRANCH  12  14
BRANCH   1  20
HETATM   20  C   UNL     1       3.869  35.433  66.360  1.00  0.00     0.230 C 
BRANCH  20  21
HETATM   21  C   UNL     1       5.063  34.750  67.032  1.00  0.00     0.240 C 
HETATM   22  N   UNL     1       5.310  35.200  68.314  1.00  0.00    -0.326 N 
HETATM   23  H   UNL     1       4.735  35.972  68.634  1.00  0.00     0.169 HD
HETATM   24  O   UNL     1       5.624  33.814  66.468  1.00  0.00    -0.271 OA
BRANCH  22  25
HETATM   25  C   UNL     1       6.216  34.666  69.256  1.00  0.00     0.037 A 
HETATM   26  C   UNL     1       5.985  33.502  69.992  1.00  0.00     0.066 A 
HETATM   27  C   UNL     1       6.902  33.066  70.958  1.00  0.00     0.070 A 
HETATM   28  C   UNL     1       8.087  33.776  71.153  1.00  0.00     0.037 A 
HETATM   29  C   UNL     1       8.335  34.930  70.411  1.00  0.00     0.005 A 
HETATM   30  C   UNL     1       7.401  35.379  69.476  1.00  0.00     0.029 A 
BRANCH  27  31
HETATM   31  O   UNL     1       6.534  31.934  71.633  1.00  0.00    -0.356 OA
HETATM   32  C   UNL     1       7.590  31.094  72.083  1.00  0.00     0.210 C 
ENDBRANCH  27  31
ENDBRANCH  22  25
ENDBRANCH  20  21
ENDBRANCH   1  20
BRANCH   8  33
HETATM   33  C   UNL     1       4.601  31.903  58.859  1.00  0.00     0.107 C 
BRANCH  33  34
HETATM   34  C   UNL     1       5.905  32.636  58.554  1.00  0.00     0.047 C 
BRANCH  34  35
HETATM   35  C   UNL     1       7.093  31.979  59.212  1.00  0.00    -0.058 A 
HETATM   36  C   UNL     1       7.816  32.645  60.210  1.00  0.00     0.007 A 
HETATM   37  C   UNL     1       8.913  32.030  60.816  1.00  0.00     0.001 A 
HETATM   38  C   UNL     1       9.301  30.749  60.424  1.00  0.00     0.000 A 
HETATM   39  C   UNL     1       8.594  30.083  59.425  1.00  0.00     0.001 A 
HETATM   40  C   UNL     1       7.496  30.696  58.820  1.00  0.00     0.007 A 
ENDBRANCH  34  35
ENDBRANCH  33  34
ENDBRANCH   8  33
TORSDOF 8
ENDMDL
MODEL 7
REMARK VINA RESULT:     -10.0      4.053     11.233
REMARK  8 active torsions:
REMARK  status: ('A' for Active; 'I' for Inactive)
REMARK    1  A    between atoms: O_2  and  C_3 
REMARK    2  A    between atoms: C_5  and  N_6 
REMARK       I    between atoms: N_6  and  C_7 
REMARK    3  A    between atoms: C_7  and  C_8 
REMARK    4  A    between atoms: C_8  and  N_9 
REMARK       I    between atoms: N_15  and  C_16 
REMARK    5  A    between atoms: C_16  and  C_17 
REMARK    6  A    between atoms: C_17  and  C_18 
REMARK    7  A    between atoms: C_18  and  C_19 
REMARK    8  A    between atoms: N_28  and  C_29 
ROOT
HETATM    1  N   UNL     1       4.923  29.453  53.222  1.00  0.00    -0.325 N 
HETATM    2  C   UNL     1       4.339  30.180  54.228  1.00  0.00     0.250 C 
HETATM    3  O   UNL     1       3.553  31.098  54.051  1.00  0.00    -0.270 OA
HETATM    4  C   UNL     1       4.875  29.645  55.572  1.00  0.00     0.118 C 
HETATM    5  C   UNL     1       3.682  29.386  56.504  1.00  0.00     0.061 C 
HETATM    6  C   UNL     1       3.130  30.669  57.120  1.00  0.00     0.129 C 
HETATM    7  N   UNL     1       4.199  31.505  57.656  1.00  0.00    -0.352 N 
HETATM    8  C   UNL     1       4.179  31.844  59.001  1.00  0.00     0.220 C 
HETATM    9  O   UNL     1       3.351  31.369  59.782  1.00  0.00    -0.273 OA
HETATM   10  C   UNL     1       5.203  31.913  56.679  1.00  0.00     0.129 C 
HETATM   11  C   UNL     1       5.890  30.688  56.081  1.00  0.00     0.061 C 
HETATM   12  N   UNL     1       5.549  28.384  55.141  1.00  0.00    -0.346 N 
HETATM   13  C   UNL     1       5.605  28.286  53.686  1.00  0.00     0.254 C 
ENDROOT
BRANCH  12  14
HETATM   14  C   UNL     1       6.171  27.431  55.928  1.00  0.00     0.032 A 
HETATM   15  C   UNL     1       5.504  26.255  56.327  1.00  0.00     0.029 A 
HETATM   16  C   UNL     1       6.107  25.277  57.131  1.00  0.00     0.002 A 
HETATM   17  C   UNL     1       7.413  25.441  57.565  1.00  0.00     0.000 A 
HETATM   18  C   UNL     1       8.106  26.583  57.195  1.00  0.00     0.002 A 
HETATM   19  C   UNL     1       7.488  27.556  56.394  1.00  0.00     0.029 A 
ENDBRANCH  12  14
BRANCH   1  20
HETATM   20  C   UNL     1       4.811  29.754  51.804  1.00  0.00     0.230 C 
BRANCH  20  21
HETATM   21  C   UNL     1       3.727  28.983  51.047  1.00  0.00     0.240 C 
HETATM   22  N   UNL     1       4.119  28.563  49.790  1.00  0.00    -0.326 N 
HETATM   23  H   UNL     1       5.034  28.873  49.483  1.00  0.00     0.169 HD
HETATM   24  O   UNL     1       2.675  28.699  51.614  1.00  0.00    -0.271 OA
BRANCH  22  25
HETATM   25  C   UNL     1       3.429  27.697  48.917  1.00  0.00     0.037 A 
HETATM   26  C   UNL     1       2.120  27.905  48.478  1.00  0.00     0.066 A 
HETATM   27  C   UNL     1       1.475  26.968  47.660  1.00  0.00     0.070 A 
HETATM   28  C   UNL     1       2.166  25.833  47.236  1.00  0.00     0.037 A 
HETATM   29  C   UNL     1       3.480  25.624  47.653  1.00  0.00     0.005 A 
HETATM   30  C   UNL     1       4.104  26.544  48.497  1.00  0.00     0.029 A 
BRANCH  27  31
HETATM   31  O   UNL     1       0.181  27.277  47.337  1.00  0.00    -0.356 OA
HETATM   32  C   UNL     1      -0.111  27.411  45.952  1.00  0.00     0.210 C 
ENDBRANCH  27  31
ENDBRANCH  22  25
ENDBRANCH  20  21
ENDBRANCH   1  20
BRANCH   8  33
HETATM   33  C   UNL     1       5.167  32.871  59.512  1.00  0.00     0.107 C 
BRANCH  33  34
HETATM   34  C   UNL     1       6.391  32.169  60.094  1.00  0.00     0.047 C 
BRANCH  34  35
HETATM   35  C   UNL     1       6.680  32.609  61.508  1.00  0.00    -0.058 A 
HETATM   36  C   UNL     1       7.780  32.095  62.206  1.00  0.00     0.007 A 
HETATM   37  C   UNL     1       8.043  32.508  63.513  1.00  0.00     0.001 A 
HETATM   38  C   UNL     1       7.204  33.431  64.136  1.00  0.00     0.000 A 
HETATM   39  C   UNL     1       6.101  33.941  63.453  1.00  0.00     0.001 A 
HETATM   40  C   UNL     1       5.839  33.530  62.146  1.00  0.00     0.007 A 
ENDBRANCH  34  35
ENDBRANCH  33  34
ENDBRANCH   8  33
TORSDOF 8
ENDMDL
MODEL 8
REMARK VINA RESULT:      -9.9      1.300      2.061
REMARK  8 active torsions:
REMARK  status: ('A' for Active; 'I' for Inactive)
REMARK    1  A    between atoms: O_2  and  C_3 
REMARK    2  A    between atoms: C_5  and  N_6 
REMARK       I    between atoms: N_6  and  C_7 
REMARK    3  A    between atoms: C_7  and  C_8 
REMARK    4  A    between atoms: C_8  and  N_9 
REMARK       I    between atoms: N_15  and  C_16 
REMARK    5  A    between atoms: C_16  and  C_17 
REMARK    6  A    between atoms: C_17  and  C_18 
REMARK    7  A    between atoms: C_18  and  C_19 
REMARK    8  A    between atoms: N_28  and  C_29 
ROOT
HETATM    1  N   UNL     1       6.413  30.441  57.483  1.00  0.00    -0.325 N 
HETATM    2  C   UNL     1       6.482  29.100  57.202  1.00  0.00     0.250 C 
HETATM    3  O   UNL     1       6.972  28.263  57.944  1.00  0.00    -0.270 OA
HETATM    4  C   UNL     1       5.867  28.875  55.806  1.00  0.00     0.118 C 
HETATM    5  C   UNL     1       4.853  27.725  55.898  1.00  0.00     0.061 C 
HETATM    6  C   UNL     1       5.524  26.355  55.934  1.00  0.00     0.129 C 
HETATM    7  N   UNL     1       6.545  26.234  54.898  1.00  0.00    -0.352 N 
HETATM    8  C   UNL     1       6.431  25.224  53.954  1.00  0.00     0.220 C 
HETATM    9  O   UNL     1       5.436  24.496  53.893  1.00  0.00    -0.273 OA
HETATM   10  C   UNL     1       7.616  27.221  54.979  1.00  0.00     0.129 C 
HETATM   11  C   UNL     1       7.048  28.632  54.845  1.00  0.00     0.061 C 
HETATM   12  N   UNL     1       5.215  30.195  55.554  1.00  0.00    -0.346 N 
HETATM   13  C   UNL     1       5.581  31.169  56.577  1.00  0.00     0.254 C 
ENDROOT
BRANCH  12  14
HETATM   14  C   UNL     1       4.445  30.579  54.471  1.00  0.00     0.032 A 
HETATM   15  C   UNL     1       3.678  31.762  54.493  1.00  0.00     0.029 A 
HETATM   16  C   UNL     1       2.882  32.171  53.413  1.00  0.00     0.002 A 
HETATM   17  C   UNL     1       2.828  31.404  52.260  1.00  0.00     0.000 A 
HETATM   18  C   UNL     1       3.567  30.233  52.196  1.00  0.00     0.002 A 
HETATM   19  C   UNL     1       4.355  29.833  53.286  1.00  0.00     0.029 A 
ENDBRANCH  12  14
BRANCH   1  20
HETATM   20  C   UNL     1       7.036  31.085  58.628  1.00  0.00     0.230 C 
BRANCH  20  21
HETATM   21  C   UNL     1       6.172  32.119  59.356  1.00  0.00     0.240 C 
HETATM   22  N   UNL     1       5.900  31.788  60.670  1.00  0.00    -0.326 N 
HETATM   23  H   UNL     1       6.229  30.879  60.977  1.00  0.00     0.169 HD
HETATM   24  O   UNL     1       5.888  33.175  58.798  1.00  0.00    -0.271 OA
BRANCH  22  25
HETATM   25  C   UNL     1       5.285  32.592  61.652  1.00  0.00     0.037 A 
HETATM   26  C   UNL     1       5.979  33.284  62.646  1.00  0.00     0.066 A 
HETATM   27  C   UNL     1       5.297  34.013  63.629  1.00  0.00     0.070 A 
HETATM   28  C   UNL     1       3.905  34.091  63.586  1.00  0.00     0.037 A 
HETATM   29  C   UNL     1       3.202  33.419  62.587  1.00  0.00     0.005 A 
HETATM   30  C   UNL     1       3.887  32.665  61.632  1.00  0.00     0.029 A 
BRANCH  27  31
HETATM   31  O   UNL     1       6.097  34.609  64.565  1.00  0.00    -0.356 OA
HETATM   32  C   UNL     1       6.832  33.740  65.418  1.00  0.00     0.210 C 
ENDBRANCH  27  31
ENDBRANCH  22  25
ENDBRANCH  20  21
ENDBRANCH   1  20
BRANCH   8  33
HETATM   33  C   UNL     1       7.586  24.971  53.008  1.00  0.00     0.107 C 
BRANCH  33  34
HETATM   34  C   UNL     1       7.504  23.550  52.457  1.00  0.00     0.047 C 
BRANCH  34  35
HETATM   35  C   UNL     1       8.041  22.531  53.430  1.00  0.00    -0.058 A 
HETATM   36  C   UNL     1       8.651  22.934  54.624  1.00  0.00     0.007 A 
HETATM   37  C   UNL     1       9.144  21.985  55.521  1.00  0.00     0.001 A 
HETATM   38  C   UNL     1       9.038  20.626  55.229  1.00  0.00     0.000 A 
HETATM   39  C   UNL     1       8.441  20.215  54.038  1.00  0.00     0.001 A 
HETATM   40  C   UNL     1       7.947  21.163  53.142  1.00  0.00     0.007 A 
ENDBRANCH  34  35
ENDBRANCH  33  34
ENDBRANCH   8  33
TORSDOF 8
ENDMDL
MODEL 9
REMARK VINA RESULT:      -9.8      2.433      4.111
REMARK  8 active torsions:
REMARK  status: ('A' for Active; 'I' for Inactive)
REMARK    1  A    between atoms: O_2  and  C_3 
REMARK    2  A    between atoms: C_5  and  N_6 
REMARK       I    between atoms: N_6  and  C_7 
REMARK    3  A    between atoms: C_7  and  C_8 
REMARK    4  A    between atoms: C_8  and  N_9 
REMARK       I    between atoms: N_15  and  C_16 
REMARK    5  A    between atoms: C_16  and  C_17 
REMARK    6  A    between atoms: C_17  and  C_18 
REMARK    7  A    between atoms: C_18  and  C_19 
REMARK    8  A    between atoms: N_28  and  C_29 
ROOT
HETATM    1  N   UNL     1       4.609  31.140  58.547  1.00  0.00    -0.325 N 
HETATM    2  C   UNL     1       4.356  30.387  57.429  1.00  0.00     0.250 C 
HETATM    3  O   UNL     1       3.247  30.222  56.943  1.00  0.00    -0.270 OA
HETATM    4  C   UNL     1       5.694  29.793  56.944  1.00  0.00     0.118 C 
HETATM    5  C   UNL     1       5.830  30.063  55.438  1.00  0.00     0.061 C 
HETATM    6  C   UNL     1       4.986  29.113  54.593  1.00  0.00     0.129 C 
HETATM    7  N   UNL     1       5.157  27.727  55.019  1.00  0.00    -0.352 N 
HETATM    8  C   UNL     1       5.618  26.792  54.103  1.00  0.00     0.220 C 
HETATM    9  O   UNL     1       5.995  27.116  52.974  1.00  0.00    -0.273 OA
HETATM   10  C   UNL     1       4.805  27.468  56.411  1.00  0.00     0.129 C 
HETATM   11  C   UNL     1       5.678  28.304  57.344  1.00  0.00     0.061 C 
HETATM   12  N   UNL     1       6.676  30.571  57.757  1.00  0.00    -0.346 N 
HETATM   13  C   UNL     1       6.001  31.378  58.768  1.00  0.00     0.254 C 
ENDROOT
BRANCH  12  14
HETATM   14  C   UNL     1       8.058  30.520  57.714  1.00  0.00     0.032 A 
HETATM   15  C   UNL     1       8.852  31.359  58.521  1.00  0.00     0.029 A 
HETATM   16  C   UNL     1      10.254  31.334  58.492  1.00  0.00     0.002 A 
HETATM   17  C   UNL     1      10.917  30.457  57.648  1.00  0.00     0.000 A 
HETATM   18  C   UNL     1      10.173  29.613  56.837  1.00  0.00     0.002 A 
HETATM   19  C   UNL     1       8.771  29.652  56.873  1.00  0.00     0.029 A 
ENDBRANCH  12  14
BRANCH   1  20
HETATM   20  C   UNL     1       3.592  31.730  59.402  1.00  0.00     0.230 C 
BRANCH  20  21
HETATM   21  C   UNL     1       4.108  32.392  60.683  1.00  0.00     0.240 C 
HETATM   22  N   UNL     1       3.885  33.754  60.733  1.00  0.00    -0.326 N 
HETATM   23  H   UNL     1       3.483  34.170  59.899  1.00  0.00     0.169 HD
HETATM   24  O   UNL     1       4.557  31.694  61.589  1.00  0.00    -0.271 OA
BRANCH  22  25
HETATM   25  C   UNL     1       4.080  34.621  61.829  1.00  0.00     0.037 A 
HETATM   26  C   UNL     1       5.014  35.658  61.850  1.00  0.00     0.066 A 
HETATM   27  C   UNL     1       5.197  36.440  62.999  1.00  0.00     0.070 A 
HETATM   28  C   UNL     1       4.403  36.212  64.122  1.00  0.00     0.037 A 
HETATM   29  C   UNL     1       3.455  35.189  64.105  1.00  0.00     0.005 A 
HETATM   30  C   UNL     1       3.301  34.391  62.969  1.00  0.00     0.029 A 
BRANCH  27  31
HETATM   31  O   UNL     1       6.172  37.396  62.896  1.00  0.00    -0.356 OA
HETATM   32  C   UNL     1       5.812  38.712  63.298  1.00  0.00     0.210 C 
ENDBRANCH  27  31
ENDBRANCH  22  25
ENDBRANCH  20  21
ENDBRANCH   1  20
BRANCH   8  33
HETATM   33  C   UNL     1       5.602  25.326  54.481  1.00  0.00     0.107 C 
BRANCH  33  34
HETATM   34  C   UNL     1       6.229  24.495  53.365  1.00  0.00     0.047 C 
BRANCH  34  35
HETATM   35  C   UNL     1       7.080  23.371  53.902  1.00  0.00    -0.058 A 
HETATM   36  C   UNL     1       7.298  23.234  55.279  1.00  0.00     0.007 A 
HETATM   37  C   UNL     1       8.084  22.190  55.768  1.00  0.00     0.001 A 
HETATM   38  C   UNL     1       8.666  21.280  54.887  1.00  0.00     0.000 A 
HETATM   39  C   UNL     1       8.462  21.413  53.515  1.00  0.00     0.001 A 
HETATM   40  C   UNL     1       7.675  22.455  53.024  1.00  0.00     0.007 A 
ENDBRANCH  34  35
ENDBRANCH  33  34
ENDBRANCH   8  33
TORSDOF 8
ENDMDL
MODEL 10
REMARK VINA RESULT:      -9.7      3.330     11.694
REMARK  8 active torsions:
REMARK  status: ('A' for Active; 'I' for Inactive)
REMARK    1  A    between atoms: O_2  and  C_3 
REMARK    2  A    between atoms: C_5  and  N_6 
REMARK       I    between atoms: N_6  and  C_7 
REMARK    3  A    between atoms: C_7  and  C_8 
REMARK    4  A    between atoms: C_8  and  N_9 
REMARK       I    between atoms: N_15  and  C_16 
REMARK    5  A    between atoms: C_16  and  C_17 
REMARK    6  A    between atoms: C_17  and  C_18 
REMARK    7  A    between atoms: C_18  and  C_19 
REMARK    8  A    between atoms: N_28  and  C_29 
ROOT
HETATM    1  N   UNL     1       4.195  31.825  58.509  1.00  0.00    -0.325 N 
HETATM    2  C   UNL     1       3.598  32.418  59.592  1.00  0.00     0.250 C 
HETATM    3  O   UNL     1       2.394  32.591  59.709  1.00  0.00    -0.270 OA
HETATM    4  C   UNL     1       4.709  32.833  60.578  1.00  0.00     0.118 C 
HETATM    5  C   UNL     1       4.329  32.330  61.979  1.00  0.00     0.061 C 
HETATM    6  C   UNL     1       3.271  33.203  62.648  1.00  0.00     0.129 C 
HETATM    7  N   UNL     1       3.601  34.621  62.537  1.00  0.00    -0.352 N 
HETATM    8  C   UNL     1       3.748  35.371  63.695  1.00  0.00     0.220 C 
HETATM    9  O   UNL     1       3.720  34.855  64.815  1.00  0.00    -0.273 OA
HETATM   10  C   UNL     1       3.739  35.111  61.169  1.00  0.00     0.129 C 
HETATM   11  C   UNL     1       4.857  34.362  60.448  1.00  0.00     0.061 C 
HETATM   12  N   UNL     1       5.890  32.115  60.012  1.00  0.00    -0.346 N 
HETATM   13  C   UNL     1       5.576  31.520  58.717  1.00  0.00     0.254 C 
ENDROOT
BRANCH  12  14
HETATM   14  C   UNL     1       7.179  32.057  60.511  1.00  0.00     0.032 A 
HETATM   15  C   UNL     1       8.299  32.019  59.657  1.00  0.00     0.029 A 
HETATM   16  C   UNL     1       9.616  31.952  60.135  1.00  0.00     0.002 A 
HETATM   17  C   UNL     1       9.860  31.923  61.499  1.00  0.00     0.000 A 
HETATM   18  C   UNL     1       8.786  31.958  62.375  1.00  0.00     0.002 A 
HETATM   19  C   UNL     1       7.474  32.021  61.882  1.00  0.00     0.029 A 
ENDBRANCH  12  14
BRANCH   1  20
HETATM   20  C   UNL     1       3.510  31.446  57.283  1.00  0.00     0.230 C 
BRANCH  20  21
HETATM   21  C   UNL     1       4.330  30.606  56.300  1.00  0.00     0.240 C 
HETATM   22  N   UNL     1       4.087  29.249  56.393  1.00  0.00    -0.326 N 
HETATM   23  H   UNL     1       3.465  28.958  57.140  1.00  0.00     0.169 HD
HETATM   24  O   UNL     1       5.026  31.165  55.457  1.00  0.00    -0.271 OA
BRANCH  22  25
HETATM   25  C   UNL     1       4.543  28.230  55.531  1.00  0.00     0.037 A 
HETATM   26  C   UNL     1       5.473  27.254  55.893  1.00  0.00     0.066 A 
HETATM   27  C   UNL     1       5.928  26.310  54.963  1.00  0.00     0.070 A 
HETATM   28  C   UNL     1       5.409  26.313  53.669  1.00  0.00     0.037 A 
HETATM   29  C   UNL     1       4.466  27.272  53.301  1.00  0.00     0.005 A 
HETATM   30  C   UNL     1       4.043  28.232  54.223  1.00  0.00     0.029 A 
BRANCH  27  31
HETATM   31  O   UNL     1       6.867  25.436  55.440  1.00  0.00    -0.356 OA
HETATM   32  C   UNL     1       6.573  24.804  56.679  1.00  0.00     0.210 C 
ENDBRANCH  27  31
ENDBRANCH  22  25
ENDBRANCH  20  21
ENDBRANCH   1  20
BRANCH   8  33
HETATM   33  C   UNL     1       3.889  36.874  63.581  1.00  0.00     0.107 C 
BRANCH  33  34
HETATM   34  C   UNL     1       5.155  37.333  64.298  1.00  0.00     0.047 C 
BRANCH  34  35
HETATM   35  C   UNL     1       5.996  38.245  63.440  1.00  0.00    -0.058 A 
HETATM   36  C   UNL     1       6.198  37.965  62.083  1.00  0.00     0.007 A 
HETATM   37  C   UNL     1       6.975  38.815  61.294  1.00  0.00     0.001 A 
HETATM   38  C   UNL     1       7.563  39.948  61.856  1.00  0.00     0.000 A 
HETATM   39  C   UNL     1       7.375  40.230  63.209  1.00  0.00     0.001 A 
HETATM   40  C   UNL     1       6.597  39.382  63.997  1.00  0.00     0.007 A 
ENDBRANCH  34  35
ENDBRANCH  33  34
ENDBRANCH   8  33
TORSDOF 8
ENDMDL
