MODEL 1
REMARK VINA RESULT:     -10.9      0.000      0.000
REMARK  7 active torsions:
REMARK  status: ('A' for Active; 'I' for Inactive)
REMARK    1  A    between atoms: C_7  and  C_8 
REMARK    2  A    between atoms: C_8  and  C_9 
REMARK       I    between atoms: C_9  and  N_10 
REMARK    3  A    between atoms: N_10  and  N_11 
REMARK       I    between atoms: N_11  and  C_12 
REMARK    4  A    between atoms: C_12  and  C_13 
REMARK    5  A    between atoms: C_23  and  O_24 
REMARK    6  A    between atoms: O_24  and  C_25 
REMARK    7  A    between atoms: C_25  and  C_26 
ROOT
HETATM    1  C   UNL     1       5.259  31.539  57.838  1.00  0.00     0.068 C 
HETATM    2  C   UNL     1       5.744  30.152  57.615  1.00  0.00     0.013 A 
HETATM    3  N   UNL     1       4.883  29.131  57.302  1.00  0.00    -0.359 N 
HETATM    4  H   UNL     1       3.882  29.226  57.197  1.00  0.00     0.166 HD
HETATM    5  C   UNL     1       5.569  27.951  57.144  1.00  0.00     0.043 A 
HETATM    6  C   UNL     1       6.916  28.225  57.366  1.00  0.00     0.002 A 
HETATM    7  C   UNL     1       7.024  29.620  57.677  1.00  0.00    -0.015 A 
HETATM    8  C   UNL     1       5.100  26.673  56.824  1.00  0.00     0.033 A 
HETATM    9  C   UNL     1       6.040  25.639  56.718  1.00  0.00     0.039 A 
HETATM   10  C   UNL     1       7.399  25.876  56.924  1.00  0.00     0.070 A 
HETATM   11  C   UNL     1       7.839  27.164  57.256  1.00  0.00     0.051 A 
ENDROOT
BRANCH   7  12
HETATM   12  C   UNL     1       8.286  30.360  58.006  1.00  0.00     0.146 C 
BRANCH  12  13
HETATM   13  C   UNL     1       8.227  31.176  59.287  1.00  0.00     0.240 C 
HETATM   14  N   UNL     1       7.684  30.546  60.388  1.00  0.00    -0.267 N 
HETATM   15  H   UNL     1       7.139  29.687  60.320  1.00  0.00     0.190 HD
HETATM   16  O   UNL     1       8.716  32.308  59.352  1.00  0.00    -0.272 OA
BRANCH  14  17
HETATM   17  N   UNL     1       7.564  31.270  61.574  1.00  0.00    -0.262 N 
HETATM   18  C   UNL     1       6.401  31.958  61.845  1.00  0.00     0.288 C 
HETATM   19  O   UNL     1       5.453  32.029  61.067  1.00  0.00    -0.264 OA
HETATM   20  H   UNL     1       8.331  31.236  62.249  1.00  0.00     0.190 HD
BRANCH  18  21
HETATM   21  C   UNL     1       6.380  32.616  63.188  1.00  0.00     0.125 A 
HETATM   22  N   UNL     1       5.159  32.756  63.776  1.00  0.00    -0.255 NA
HETATM   23  C   UNL     1       5.139  33.363  64.982  1.00  0.00     0.117 A 
HETATM   24  C   UNL     1       6.272  33.839  65.626  1.00  0.00     0.019 A 
HETATM   25  C   UNL     1       7.506  33.681  65.002  1.00  0.00     0.004 A 
HETATM   26  C   UNL     1       7.568  33.058  63.759  1.00  0.00     0.037 A 
ENDBRANCH  18  21
ENDBRANCH  14  17
ENDBRANCH  12  13
ENDBRANCH   7  12
BRANCH  10  27
HETATM   27  O   UNL     1       8.400  24.947  56.831  1.00  0.00    -0.347 OA
BRANCH  27  28
HETATM   28  C   UNL     1       8.032  23.574  56.973  1.00  0.00     0.214 C 
BRANCH  28  29
HETATM   29  C   UNL     1       8.055  22.862  55.637  1.00  0.00    -0.034 A 
HETATM   30  C   UNL     1       7.884  21.474  55.529  1.00  0.00     0.009 A 
HETATM   31  C   UNL     1       7.881  20.853  54.279  1.00  0.00     0.001 A 
HETATM   32  C   UNL     1       8.036  21.610  53.119  1.00  0.00     0.000 A 
HETATM   33  C   UNL     1       8.190  22.992  53.209  1.00  0.00     0.001 A 
HETATM   34  C   UNL     1       8.195  23.614  54.459  1.00  0.00     0.009 A 
ENDBRANCH  28  29
ENDBRANCH  27  28
ENDBRANCH  10  27
TORSDOF 7
ENDMDL
MODEL 2
REMARK VINA RESULT:     -10.3      4.098      8.600
REMARK  7 active torsions:
REMARK  status: ('A' for Active; 'I' for Inactive)
REMARK    1  A    between atoms: C_7  and  C_8 
REMARK    2  A    between atoms: C_8  and  C_9 
REMARK       I    between atoms: C_9  and  N_10 
REMARK    3  A    between atoms: N_10  and  N_11 
REMARK       I    between atoms: N_11  and  C_12 
REMARK    4  A    between atoms: C_12  and  C_13 
REMARK    5  A    between atoms: C_23  and  O_24 
REMARK    6  A    between atoms: O_24  and  C_25 
REMARK    7  A    between atoms: C_25  and  C_26 
ROOT
HETATM    1  C   UNL     1       5.436  31.111  57.751  1.00  0.00     0.068 C 
HETATM    2  C   UNL     1       5.784  29.702  57.429  1.00  0.00     0.013 A 
HETATM    3  N   UNL     1       6.935  29.121  57.898  1.00  0.00    -0.359 N 
HETATM    4  H   UNL     1       7.622  29.578  58.482  1.00  0.00     0.166 HD
HETATM    5  C   UNL     1       7.030  27.820  57.467  1.00  0.00     0.043 A 
HETATM    6  C   UNL     1       5.902  27.559  56.694  1.00  0.00     0.002 A 
HETATM    7  C   UNL     1       5.118  28.758  56.661  1.00  0.00    -0.015 A 
HETATM    8  C   UNL     1       8.022  26.863  57.703  1.00  0.00     0.033 A 
HETATM    9  C   UNL     1       7.854  25.592  57.137  1.00  0.00     0.039 A 
HETATM   10  C   UNL     1       6.733  25.290  56.365  1.00  0.00     0.070 A 
HETATM   11  C   UNL     1       5.760  26.272  56.135  1.00  0.00     0.051 A 
ENDROOT
BRANCH   7  12
HETATM   12  C   UNL     1       3.822  28.951  55.932  1.00  0.00     0.146 C 
BRANCH  12  13
HETATM   13  C   UNL     1       3.951  29.033  54.419  1.00  0.00     0.240 C 
HETATM   14  N   UNL     1       3.704  27.869  53.722  1.00  0.00    -0.267 N 
HETATM   15  H   UNL     1       3.670  26.952  54.169  1.00  0.00     0.190 HD
HETATM   16  O   UNL     1       4.181  30.104  53.851  1.00  0.00    -0.272 OA
BRANCH  14  17
HETATM   17  N   UNL     1       3.858  27.882  52.336  1.00  0.00    -0.262 N 
HETATM   18  C   UNL     1       5.031  27.431  51.769  1.00  0.00     0.288 C 
HETATM   19  O   UNL     1       6.004  27.061  52.419  1.00  0.00    -0.264 OA
HETATM   20  H   UNL     1       3.070  28.182  51.758  1.00  0.00     0.190 HD
BRANCH  18  21
HETATM   21  C   UNL     1       5.021  27.421  50.273  1.00  0.00     0.125 A 
HETATM   22  N   UNL     1       5.545  28.517  49.656  1.00  0.00    -0.255 NA
HETATM   23  C   UNL     1       5.522  28.515  48.306  1.00  0.00     0.117 A 
HETATM   24  C   UNL     1       5.001  27.480  47.544  1.00  0.00     0.019 A 
HETATM   25  C   UNL     1       4.472  26.372  48.202  1.00  0.00     0.004 A 
HETATM   26  C   UNL     1       4.480  26.337  49.593  1.00  0.00     0.037 A 
ENDBRANCH  18  21
ENDBRANCH  14  17
ENDBRANCH  12  13
ENDBRANCH   7  12
BRANCH  10  27
HETATM   27  O   UNL     1       6.462  24.082  55.780  1.00  0.00    -0.347 OA
BRANCH  27  28
HETATM   28  C   UNL     1       6.979  23.861  54.467  1.00  0.00     0.214 C 
BRANCH  28  29
HETATM   29  C   UNL     1       7.570  22.473  54.341  1.00  0.00    -0.034 A 
HETATM   30  C   UNL     1       7.890  21.910  53.096  1.00  0.00     0.009 A 
HETATM   31  C   UNL     1       8.461  20.638  53.016  1.00  0.00     0.001 A 
HETATM   32  C   UNL     1       8.732  19.918  54.178  1.00  0.00     0.000 A 
HETATM   33  C   UNL     1       8.436  20.470  55.421  1.00  0.00     0.001 A 
HETATM   34  C   UNL     1       7.863  21.741  55.503  1.00  0.00     0.009 A 
ENDBRANCH  28  29
ENDBRANCH  27  28
ENDBRANCH  10  27
TORSDOF 7
ENDMDL
MODEL 3
REMARK VINA RESULT:     -10.3      2.659     10.948
REMARK  7 active torsions:
REMARK  status: ('A' for Active; 'I' for Inactive)
REMARK    1  A    between atoms: C_7  and  C_8 
REMARK    2  A    between atoms: C_8  and  C_9 
REMARK       I    between atoms: C_9  and  N_10 
REMARK    3  A    between atoms: N_10  and  N_11 
REMARK       I    between atoms: N_11  and  C_12 
REMARK    4  A    between atoms: C_12  and  C_13 
REMARK    5  A    between atoms: C_23  and  O_24 
REMARK    6  A    between atoms: O_24  and  C_25 
REMARK    7  A    between atoms: C_25  and  C_26 
ROOT
HETATM    1  C   UNL     1       9.474  28.953  54.765  1.00  0.00     0.068 C 
HETATM    2  C   UNL     1       9.306  29.492  56.140  1.00  0.00     0.013 A 
HETATM    3  N   UNL     1      10.201  30.383  56.677  1.00  0.00    -0.359 N 
HETATM    4  H   UNL     1      11.021  30.740  56.206  1.00  0.00     0.166 HD
HETATM    5  C   UNL     1       9.829  30.732  57.953  1.00  0.00     0.043 A 
HETATM    6  C   UNL     1       8.656  30.039  58.244  1.00  0.00     0.002 A 
HETATM    7  C   UNL     1       8.332  29.243  57.097  1.00  0.00    -0.015 A 
HETATM    8  C   UNL     1      10.438  31.602  58.862  1.00  0.00     0.033 A 
HETATM    9  C   UNL     1       9.826  31.779  60.111  1.00  0.00     0.039 A 
HETATM   10  C   UNL     1       8.646  31.110  60.435  1.00  0.00     0.070 A 
HETATM   11  C   UNL     1       8.063  30.234  59.509  1.00  0.00     0.051 A 
ENDROOT
BRANCH   7  12
HETATM   12  C   UNL     1       7.160  28.319  56.961  1.00  0.00     0.146 C 
BRANCH  12  13
HETATM   13  C   UNL     1       7.524  26.847  56.846  1.00  0.00     0.240 C 
HETATM   14  N   UNL     1       7.227  26.237  55.645  1.00  0.00    -0.267 N 
HETATM   15  H   UNL     1       6.598  26.650  54.956  1.00  0.00     0.190 HD
HETATM   16  O   UNL     1       8.127  26.261  57.750  1.00  0.00    -0.272 OA
BRANCH  14  17
HETATM   17  N   UNL     1       7.497  24.876  55.508  1.00  0.00    -0.262 N 
HETATM   18  C   UNL     1       7.799  24.356  54.267  1.00  0.00     0.288 C 
HETATM   19  O   UNL     1       7.791  25.015  53.231  1.00  0.00    -0.264 OA
HETATM   20  H   UNL     1       7.516  24.293  56.347  1.00  0.00     0.190 HD
BRANCH  18  21
HETATM   21  C   UNL     1       8.152  22.902  54.285  1.00  0.00     0.125 A 
HETATM   22  N   UNL     1       8.768  22.442  55.409  1.00  0.00    -0.255 NA
HETATM   23  C   UNL     1       9.100  21.133  55.419  1.00  0.00     0.117 A 
HETATM   24  C   UNL     1       8.852  20.266  54.366  1.00  0.00     0.019 A 
HETATM   25  C   UNL     1       8.221  20.764  53.230  1.00  0.00     0.004 A 
HETATM   26  C   UNL     1       7.861  22.107  53.183  1.00  0.00     0.037 A 
ENDBRANCH  18  21
ENDBRANCH  14  17
ENDBRANCH  12  13
ENDBRANCH   7  12
BRANCH  10  27
HETATM   27  O   UNL     1       7.958  31.220  61.614  1.00  0.00    -0.347 OA
BRANCH  27  28
HETATM   28  C   UNL     1       8.446  32.162  62.570  1.00  0.00     0.214 C 
BRANCH  28  29
HETATM   29  C   UNL     1       7.323  32.691  63.437  1.00  0.00    -0.034 A 
HETATM   30  C   UNL     1       5.973  32.507  63.101  1.00  0.00     0.009 A 
HETATM   31  C   UNL     1       4.961  32.982  63.937  1.00  0.00     0.001 A 
HETATM   32  C   UNL     1       5.283  33.636  65.125  1.00  0.00     0.000 A 
HETATM   33  C   UNL     1       6.618  33.812  65.480  1.00  0.00     0.001 A 
HETATM   34  C   UNL     1       7.632  33.339  64.644  1.00  0.00     0.009 A 
ENDBRANCH  28  29
ENDBRANCH  27  28
ENDBRANCH  10  27
TORSDOF 7
ENDMDL
MODEL 4
REMARK VINA RESULT:     -10.1      2.933      4.341
REMARK  7 active torsions:
REMARK  status: ('A' for Active; 'I' for Inactive)
REMARK    1  A    between atoms: C_7  and  C_8 
REMARK    2  A    between atoms: C_8  and  C_9 
REMARK       I    between atoms: C_9  and  N_10 
REMARK    3  A    between atoms: N_10  and  N_11 
REMARK       I    between atoms: N_11  and  C_12 
REMARK    4  A    between atoms: C_12  and  C_13 
REMARK    5  A    between atoms: C_23  and  O_24 
REMARK    6  A    between atoms: O_24  and  C_25 
REMARK    7  A    between atoms: C_25  and  C_26 
ROOT
HETATM    1  C   UNL     1       3.523  31.169  54.107  1.00  0.00     0.068 C 
HETATM    2  C   UNL     1       4.031  29.833  53.702  1.00  0.00     0.013 A 
HETATM    3  N   UNL     1       4.392  29.564  52.405  1.00  0.00    -0.359 N 
HETATM    4  H   UNL     1       4.349  30.224  51.640  1.00  0.00     0.166 HD
HETATM    5  C   UNL     1       4.829  28.267  52.284  1.00  0.00     0.043 A 
HETATM    6  C   UNL     1       4.742  27.684  53.546  1.00  0.00     0.002 A 
HETATM    7  C   UNL     1       4.224  28.675  54.442  1.00  0.00    -0.015 A 
HETATM    8  C   UNL     1       5.290  27.574  51.161  1.00  0.00     0.033 A 
HETATM    9  C   UNL     1       5.685  26.240  51.331  1.00  0.00     0.039 A 
HETATM   10  C   UNL     1       5.622  25.624  52.581  1.00  0.00     0.070 A 
HETATM   11  C   UNL     1       5.144  26.339  53.687  1.00  0.00     0.051 A 
ENDROOT
BRANCH   7  12
HETATM   12  C   UNL     1       3.946  28.491  55.903  1.00  0.00     0.146 C 
BRANCH  12  13
HETATM   13  C   UNL     1       5.130  28.774  56.814  1.00  0.00     0.240 C 
HETATM   14  N   UNL     1       5.034  29.896  57.610  1.00  0.00    -0.267 N 
HETATM   15  H   UNL     1       4.343  30.630  57.450  1.00  0.00     0.190 HD
HETATM   16  O   UNL     1       6.082  27.991  56.893  1.00  0.00    -0.272 OA
BRANCH  14  17
HETATM   17  N   UNL     1       6.116  30.224  58.427  1.00  0.00    -0.262 N 
HETATM   18  C   UNL     1       6.505  31.540  58.557  1.00  0.00     0.288 C 
HETATM   19  O   UNL     1       5.989  32.468  57.941  1.00  0.00    -0.264 OA
HETATM   20  H   UNL     1       6.572  29.480  58.958  1.00  0.00     0.190 HD
BRANCH  18  21
HETATM   21  C   UNL     1       7.621  31.752  59.531  1.00  0.00     0.125 A 
HETATM   22  N   UNL     1       8.869  31.893  59.003  1.00  0.00    -0.255 NA
HETATM   23  C   UNL     1       9.877  32.068  59.883  1.00  0.00     0.117 A 
HETATM   24  C   UNL     1       9.705  32.107  61.258  1.00  0.00     0.019 A 
HETATM   25  C   UNL     1       8.418  31.960  61.770  1.00  0.00     0.004 A 
HETATM   26  C   UNL     1       7.352  31.779  60.894  1.00  0.00     0.037 A 
ENDBRANCH  18  21
ENDBRANCH  14  17
ENDBRANCH  12  13
ENDBRANCH   7  12
BRANCH  10  27
HETATM   27  O   UNL     1       5.995  24.337  52.862  1.00  0.00    -0.347 OA
BRANCH  27  28
HETATM   28  C   UNL     1       7.395  24.059  52.914  1.00  0.00     0.214 C 
BRANCH  28  29
HETATM   29  C   UNL     1       7.668  22.769  53.658  1.00  0.00    -0.034 A 
HETATM   30  C   UNL     1       7.554  22.675  55.053  1.00  0.00     0.009 A 
HETATM   31  C   UNL     1       7.784  21.462  55.706  1.00  0.00     0.001 A 
HETATM   32  C   UNL     1       8.119  20.325  54.973  1.00  0.00     0.000 A 
HETATM   33  C   UNL     1       8.219  20.399  53.585  1.00  0.00     0.001 A 
HETATM   34  C   UNL     1       7.991  21.611  52.932  1.00  0.00     0.009 A 
ENDBRANCH  28  29
ENDBRANCH  27  28
ENDBRANCH  10  27
TORSDOF 7
ENDMDL
MODEL 5
REMARK VINA RESULT:      -9.6      4.523      5.512
REMARK  7 active torsions:
REMARK  status: ('A' for Active; 'I' for Inactive)
REMARK    1  A    between atoms: C_7  and  C_8 
REMARK    2  A    between atoms: C_8  and  C_9 
REMARK       I    between atoms: C_9  and  N_10 
REMARK    3  A    between atoms: N_10  and  N_11 
REMARK       I    between atoms: N_11  and  C_12 
REMARK    4  A    between atoms: C_12  and  C_13 
REMARK    5  A    between atoms: C_23  and  O_24 
REMARK    6  A    between atoms: O_24  and  C_25 
REMARK    7  A    between atoms: C_25  and  C_26 
ROOT
HETATM    1  C   UNL     1       7.979  25.835  57.776  1.00  0.00     0.068 C 
HETATM    2  C   UNL     1       7.295  26.086  56.481  1.00  0.00     0.013 A 
HETATM    3  N   UNL     1       6.623  25.090  55.818  1.00  0.00    -0.359 N 
HETATM    4  H   UNL     1       6.534  24.134  56.137  1.00  0.00     0.166 HD
HETATM    5  C   UNL     1       6.077  25.568  54.651  1.00  0.00     0.043 A 
HETATM    6  C   UNL     1       6.413  26.917  54.563  1.00  0.00     0.002 A 
HETATM    7  C   UNL     1       7.196  27.241  55.719  1.00  0.00    -0.015 A 
HETATM    8  C   UNL     1       5.318  24.913  53.677  1.00  0.00     0.033 A 
HETATM    9  C   UNL     1       4.878  25.661  52.577  1.00  0.00     0.039 A 
HETATM   10  C   UNL     1       5.185  27.016  52.458  1.00  0.00     0.070 A 
HETATM   11  C   UNL     1       5.958  27.645  53.443  1.00  0.00     0.051 A 
ENDROOT
BRANCH   7  12
HETATM   12  C   UNL     1       7.792  28.578  56.040  1.00  0.00     0.146 C 
BRANCH  12  13
HETATM   13  C   UNL     1       7.328  29.180  57.357  1.00  0.00     0.240 C 
HETATM   14  N   UNL     1       8.318  29.631  58.204  1.00  0.00    -0.267 N 
HETATM   15  H   UNL     1       9.300  29.379  58.091  1.00  0.00     0.190 HD
HETATM   16  O   UNL     1       6.129  29.329  57.608  1.00  0.00    -0.272 OA
BRANCH  14  17
HETATM   17  N   UNL     1       7.945  30.147  59.445  1.00  0.00    -0.262 N 
HETATM   18  C   UNL     1       8.250  31.452  59.767  1.00  0.00     0.288 C 
HETATM   19  O   UNL     1       8.898  32.200  59.042  1.00  0.00    -0.264 OA
HETATM   20  H   UNL     1       7.402  29.556  60.079  1.00  0.00     0.190 HD
BRANCH  18  21
HETATM   21  C   UNL     1       7.712  31.894  61.092  1.00  0.00     0.125 A 
HETATM   22  N   UNL     1       6.379  32.168  61.144  1.00  0.00    -0.255 NA
HETATM   23  C   UNL     1       5.897  32.582  62.335  1.00  0.00     0.117 A 
HETATM   24  C   UNL     1       6.676  32.738  63.471  1.00  0.00     0.019 A 
HETATM   25  C   UNL     1       8.035  32.450  63.390  1.00  0.00     0.004 A 
HETATM   26  C   UNL     1       8.569  32.018  62.179  1.00  0.00     0.037 A 
ENDBRANCH  18  21
ENDBRANCH  14  17
ENDBRANCH  12  13
ENDBRANCH   7  12
BRANCH  10  27
HETATM   27  O   UNL     1       4.796  27.842  51.437  1.00  0.00    -0.347 OA
BRANCH  27  28
HETATM   28  C   UNL     1       5.157  27.456  50.111  1.00  0.00     0.214 C 
BRANCH  28  29
HETATM   29  C   UNL     1       3.929  27.229  49.255  1.00  0.00    -0.034 A 
HETATM   30  C   UNL     1       3.758  26.065  48.491  1.00  0.00     0.009 A 
HETATM   31  C   UNL     1       2.600  25.872  47.736  1.00  0.00     0.001 A 
HETATM   32  C   UNL     1       1.591  26.834  47.744  1.00  0.00     0.000 A 
HETATM   33  C   UNL     1       1.739  27.987  48.510  1.00  0.00     0.001 A 
HETATM   34  C   UNL     1       2.897  28.182  49.265  1.00  0.00     0.009 A 
ENDBRANCH  28  29
ENDBRANCH  27  28
ENDBRANCH  10  27
TORSDOF 7
ENDMDL
MODEL 6
REMARK VINA RESULT:      -9.4      2.447     11.066
REMARK  7 active torsions:
REMARK  status: ('A' for Active; 'I' for Inactive)
REMARK    1  A    between atoms: C_7  and  C_8 
REMARK    2  A    between atoms: C_8  and  C_9 
REMARK       I    between atoms: C_9  and  N_10 
REMARK    3  A    between atoms: N_10  and  N_11 
REMARK       I    between atoms: N_11  and  C_12 
REMARK    4  A    between atoms: C_12  and  C_13 
REMARK    5  A    between atoms: C_23  and  O_24 
REMARK    6  A    between atoms: O_24  and  C_25 
REMARK    7  A    between atoms: C_25  and  C_26 
ROOT
HETATM    1  C   UNL     1      10.269  31.231  58.057  1.00  0.00     0.068 C 
HETATM    2  C   UNL     1       9.317  31.443  59.179  1.00  0.00     0.013 A 
HETATM    3  N   UNL     1       9.745  31.857  60.415  1.00  0.00    -0.359 N 
HETATM    4  H   UNL     1      10.705  32.050  60.665  1.00  0.00     0.166 HD
HETATM    5  C   UNL     1       8.682  31.981  61.278  1.00  0.00     0.043 A 
HETATM    6  C   UNL     1       7.535  31.631  60.570  1.00  0.00     0.002 A 
HETATM    7  C   UNL     1       7.941  31.278  59.242  1.00  0.00    -0.015 A 
HETATM    8  C   UNL     1       8.653  32.372  62.620  1.00  0.00     0.033 A 
HETATM    9  C   UNL     1       7.407  32.418  63.261  1.00  0.00     0.039 A 
HETATM   10  C   UNL     1       6.235  32.085  62.584  1.00  0.00     0.070 A 
HETATM   11  C   UNL     1       6.295  31.683  61.242  1.00  0.00     0.051 A 
ENDROOT
BRANCH   7  12
HETATM   12  C   UNL     1       7.043  30.819  58.132  1.00  0.00     0.146 C 
BRANCH  12  13
HETATM   13  C   UNL     1       7.391  29.455  57.558  1.00  0.00     0.240 C 
HETATM   14  N   UNL     1       7.357  29.344  56.184  1.00  0.00    -0.267 N 
HETATM   15  H   UNL     1       6.907  30.036  55.584  1.00  0.00     0.190 HD
HETATM   16  O   UNL     1       7.763  28.528  58.284  1.00  0.00    -0.272 OA
BRANCH  14  17
HETATM   17  N   UNL     1       7.621  28.100  55.613  1.00  0.00    -0.262 N 
HETATM   18  C   UNL     1       6.601  27.383  55.025  1.00  0.00     0.288 C 
HETATM   19  O   UNL     1       5.428  27.745  55.018  1.00  0.00    -0.264 OA
HETATM   20  H   UNL     1       8.586  27.762  55.597  1.00  0.00     0.190 HD
BRANCH  18  21
HETATM   21  C   UNL     1       7.046  26.109  54.378  1.00  0.00     0.125 A 
HETATM   22  N   UNL     1       6.928  24.976  55.125  1.00  0.00    -0.255 NA
HETATM   23  C   UNL     1       7.344  23.829  54.546  1.00  0.00     0.117 A 
HETATM   24  C   UNL     1       7.873  23.757  53.267  1.00  0.00     0.019 A 
HETATM   25  C   UNL     1       7.982  24.931  52.526  1.00  0.00     0.004 A 
HETATM   26  C   UNL     1       7.562  26.133  53.087  1.00  0.00     0.037 A 
ENDBRANCH  18  21
ENDBRANCH  14  17
ENDBRANCH  12  13
ENDBRANCH   7  12
BRANCH  10  27
HETATM   27  O   UNL     1       4.969  32.109  63.106  1.00  0.00    -0.347 OA
BRANCH  27  28
HETATM   28  C   UNL     1       4.126  33.197  62.725  1.00  0.00     0.214 C 
BRANCH  28  29
HETATM   29  C   UNL     1       4.325  34.387  63.641  1.00  0.00    -0.034 A 
HETATM   30  C   UNL     1       4.970  35.556  63.212  1.00  0.00     0.009 A 
HETATM   31  C   UNL     1       5.112  36.647  64.072  1.00  0.00     0.001 A 
HETATM   32  C   UNL     1       4.600  36.589  65.367  1.00  0.00     0.000 A 
HETATM   33  C   UNL     1       3.942  35.440  65.802  1.00  0.00     0.001 A 
HETATM   34  C   UNL     1       3.801  34.348  64.943  1.00  0.00     0.009 A 
ENDBRANCH  28  29
ENDBRANCH  27  28
ENDBRANCH  10  27
TORSDOF 7
ENDMDL
MODEL 7
REMARK VINA RESULT:      -8.8      2.078      3.110
REMARK  7 active torsions:
REMARK  status: ('A' for Active; 'I' for Inactive)
REMARK    1  A    between atoms: C_7  and  C_8 
REMARK    2  A    between atoms: C_8  and  C_9 
REMARK       I    between atoms: C_9  and  N_10 
REMARK    3  A    between atoms: N_10  and  N_11 
REMARK       I    between atoms: N_11  and  C_12 
REMARK    4  A    between atoms: C_12  and  C_13 
REMARK    5  A    between atoms: C_23  and  O_24 
REMARK    6  A    between atoms: O_24  and  C_25 
REMARK    7  A    between atoms: C_25  and  C_26 
ROOT
HETATM    1  C   UNL     1       9.098  32.342  60.357  1.00  0.00     0.068 C 
HETATM    2  C   UNL     1       8.685  31.385  59.297  1.00  0.00     0.013 A 
HETATM    3  N   UNL     1       9.605  30.638  58.606  1.00  0.00    -0.359 N 
HETATM    4  H   UNL     1      10.606  30.667  58.749  1.00  0.00     0.166 HD
HETATM    5  C   UNL     1       8.980  29.832  57.685  1.00  0.00     0.043 A 
HETATM    6  C   UNL     1       7.612  30.074  57.788  1.00  0.00     0.002 A 
HETATM    7  C   UNL     1       7.428  31.068  58.804  1.00  0.00    -0.015 A 
HETATM    8  C   UNL     1       9.519  28.917  56.776  1.00  0.00     0.033 A 
HETATM    9  C   UNL     1       8.631  28.215  55.949  1.00  0.00     0.039 A 
HETATM   10  C   UNL     1       7.255  28.422  56.031  1.00  0.00     0.070 A 
HETATM   11  C   UNL     1       6.742  29.355  56.942  1.00  0.00     0.051 A 
ENDROOT
BRANCH   7  12
HETATM   12  C   UNL     1       6.120  31.652  59.247  1.00  0.00     0.146 C 
BRANCH  12  13
HETATM   13  C   UNL     1       6.185  32.440  60.545  1.00  0.00     0.240 C 
HETATM   14  N   UNL     1       6.396  31.708  61.695  1.00  0.00    -0.267 N 
HETATM   15  H   UNL     1       6.283  30.694  61.733  1.00  0.00     0.190 HD
HETATM   16  O   UNL     1       6.135  33.674  60.552  1.00  0.00    -0.272 OA
BRANCH  14  17
HETATM   17  N   UNL     1       6.415  32.381  62.916  1.00  0.00    -0.262 N 
HETATM   18  C   UNL     1       5.232  32.653  63.569  1.00  0.00     0.288 C 
HETATM   19  O   UNL     1       4.123  32.389  63.112  1.00  0.00    -0.264 OA
HETATM   20  H   UNL     1       7.318  32.618  63.331  1.00  0.00     0.190 HD
BRANCH  18  21
HETATM   21  C   UNL     1       5.409  33.301  64.906  1.00  0.00     0.125 A 
HETATM   22  N   UNL     1       4.270  33.628  65.577  1.00  0.00    -0.255 NA
HETATM   23  C   UNL     1       4.430  34.227  66.776  1.00  0.00     0.117 A 
HETATM   24  C   UNL     1       5.665  34.516  67.337  1.00  0.00     0.019 A 
HETATM   25  C   UNL     1       6.813  34.168  66.629  1.00  0.00     0.004 A 
HETATM   26  C   UNL     1       6.688  33.548  65.389  1.00  0.00     0.037 A 
ENDBRANCH  18  21
ENDBRANCH  14  17
ENDBRANCH  12  13
ENDBRANCH   7  12
BRANCH  10  27
HETATM   27  O   UNL     1       6.300  27.783  55.285  1.00  0.00    -0.347 OA
BRANCH  27  28
HETATM   28  C   UNL     1       6.619  27.496  53.923  1.00  0.00     0.214 C 
BRANCH  28  29
HETATM   29  C   UNL     1       6.980  26.036  53.743  1.00  0.00    -0.034 A 
HETATM   30  C   UNL     1       6.731  25.080  54.737  1.00  0.00     0.009 A 
HETATM   31  C   UNL     1       7.048  23.736  54.528  1.00  0.00     0.001 A 
HETATM   32  C   UNL     1       7.607  23.329  53.318  1.00  0.00     0.000 A 
HETATM   33  C   UNL     1       7.845  24.265  52.315  1.00  0.00     0.001 A 
HETATM   34  C   UNL     1       7.530  25.609  52.523  1.00  0.00     0.009 A 
ENDBRANCH  28  29
ENDBRANCH  27  28
ENDBRANCH  10  27
TORSDOF 7
ENDMDL
MODEL 8
REMARK VINA RESULT:      -8.8      2.127      2.647
REMARK  7 active torsions:
REMARK  status: ('A' for Active; 'I' for Inactive)
REMARK    1  A    between atoms: C_7  and  C_8 
REMARK    2  A    between atoms: C_8  and  C_9 
REMARK       I    between atoms: C_9  and  N_10 
REMARK    3  A    between atoms: N_10  and  N_11 
REMARK       I    between atoms: N_11  and  C_12 
REMARK    4  A    between atoms: C_12  and  C_13 
REMARK    5  A    between atoms: C_23  and  O_24 
REMARK    6  A    between atoms: O_24  and  C_25 
REMARK    7  A    between atoms: C_25  and  C_26 
ROOT
HETATM    1  C   UNL     1       3.723  32.217  55.810  1.00  0.00     0.068 C 
HETATM    2  C   UNL     1       4.214  30.889  55.354  1.00  0.00     0.013 A 
HETATM    3  N   UNL     1       3.485  30.112  54.489  1.00  0.00    -0.359 N 
HETATM    4  H   UNL     1       2.586  30.361  54.098  1.00  0.00     0.166 HD
HETATM    5  C   UNL     1       4.147  28.939  54.219  1.00  0.00     0.043 A 
HETATM    6  C   UNL     1       5.340  28.965  54.937  1.00  0.00     0.002 A 
HETATM    7  C   UNL     1       5.375  30.198  55.667  1.00  0.00    -0.015 A 
HETATM    8  C   UNL     1       3.782  27.867  53.399  1.00  0.00     0.033 A 
HETATM    9  C   UNL     1       4.668  26.786  53.301  1.00  0.00     0.039 A 
HETATM   10  C   UNL     1       5.876  26.779  53.997  1.00  0.00     0.070 A 
HETATM   11  C   UNL     1       6.212  27.862  54.822  1.00  0.00     0.051 A 
ENDROOT
BRANCH   7  12
HETATM   12  C   UNL     1       6.465  30.651  56.591  1.00  0.00     0.146 C 
BRANCH  12  13
HETATM   13  C   UNL     1       6.017  30.908  58.021  1.00  0.00     0.240 C 
HETATM   14  N   UNL     1       6.814  31.749  58.769  1.00  0.00    -0.267 N 
HETATM   15  H   UNL     1       7.762  32.004  58.491  1.00  0.00     0.190 HD
HETATM   16  O   UNL     1       4.953  30.454  58.453  1.00  0.00    -0.272 OA
BRANCH  14  17
HETATM   17  N   UNL     1       6.471  31.977  60.101  1.00  0.00    -0.262 N 
HETATM   18  C   UNL     1       7.416  32.458  60.982  1.00  0.00     0.288 C 
HETATM   19  O   UNL     1       8.591  32.652  60.684  1.00  0.00    -0.264 OA
HETATM   20  H   UNL     1       5.502  31.829  60.390  1.00  0.00     0.190 HD
BRANCH  18  21
HETATM   21  C   UNL     1       6.885  32.737  62.353  1.00  0.00     0.125 A 
HETATM   22  N   UNL     1       5.530  32.799  62.477  1.00  0.00    -0.255 NA
HETATM   23  C   UNL     1       5.051  33.067  63.710  1.00  0.00     0.117 A 
HETATM   24  C   UNL     1       5.854  33.277  64.822  1.00  0.00     0.019 A 
HETATM   25  C   UNL     1       7.235  33.206  64.666  1.00  0.00     0.004 A 
HETATM   26  C   UNL     1       7.767  32.930  63.409  1.00  0.00     0.037 A 
ENDBRANCH  18  21
ENDBRANCH  14  17
ENDBRANCH  12  13
ENDBRANCH   7  12
BRANCH  10  27
HETATM   27  O   UNL     1       6.819  25.786  53.963  1.00  0.00    -0.347 OA
BRANCH  27  28
HETATM   28  C   UNL     1       6.565  24.674  53.103  1.00  0.00     0.214 C 
BRANCH  28  29
HETATM   29  C   UNL     1       7.174  23.405  53.659  1.00  0.00    -0.034 A 
HETATM   30  C   UNL     1       7.790  22.451  52.836  1.00  0.00     0.009 A 
HETATM   31  C   UNL     1       8.368  21.304  53.384  1.00  0.00     0.001 A 
HETATM   32  C   UNL     1       8.350  21.101  54.762  1.00  0.00     0.000 A 
HETATM   33  C   UNL     1       7.757  22.048  55.595  1.00  0.00     0.001 A 
HETATM   34  C   UNL     1       7.177  23.194  55.048  1.00  0.00     0.009 A 
ENDBRANCH  28  29
ENDBRANCH  27  28
ENDBRANCH  10  27
TORSDOF 7
ENDMDL
MODEL 9
REMARK VINA RESULT:      -8.7      4.901      7.110
REMARK  7 active torsions:
REMARK  status: ('A' for Active; 'I' for Inactive)
REMARK    1  A    between atoms: C_7  and  C_8 
REMARK    2  A    between atoms: C_8  and  C_9 
REMARK       I    between atoms: C_9  and  N_10 
REMARK    3  A    between atoms: N_10  and  N_11 
REMARK       I    between atoms: N_11  and  C_12 
REMARK    4  A    between atoms: C_12  and  C_13 
REMARK    5  A    between atoms: C_23  and  O_24 
REMARK    6  A    between atoms: O_24  and  C_25 
REMARK    7  A    between atoms: C_25  and  C_26 
ROOT
HETATM    1  C   UNL     1       5.421  32.668  57.937  1.00  0.00     0.068 C 
HETATM    2  C   UNL     1       5.644  31.298  57.404  1.00  0.00     0.013 A 
HETATM    3  N   UNL     1       6.433  30.391  58.065  1.00  0.00    -0.359 N 
HETATM    4  H   UNL     1       6.912  30.562  58.939  1.00  0.00     0.166 HD
HETATM    5  C   UNL     1       6.482  29.202  57.377  1.00  0.00     0.043 A 
HETATM    6  C   UNL     1       5.700  29.355  56.234  1.00  0.00     0.002 A 
HETATM    7  C   UNL     1       5.179  30.690  56.247  1.00  0.00    -0.015 A 
HETATM    8  C   UNL     1       7.155  28.014  57.679  1.00  0.00     0.033 A 
HETATM    9  C   UNL     1       7.019  26.940  56.788  1.00  0.00     0.039 A 
HETATM   10  C   UNL     1       6.237  27.052  55.639  1.00  0.00     0.070 A 
HETATM   11  C   UNL     1       5.584  28.259  55.355  1.00  0.00     0.051 A 
ENDROOT
BRANCH   7  12
HETATM   12  C   UNL     1       4.297  31.308  55.204  1.00  0.00     0.146 C 
BRANCH  12  13
HETATM   13  C   UNL     1       2.835  31.433  55.604  1.00  0.00     0.240 C 
HETATM   14  N   UNL     1       2.053  32.247  54.811  1.00  0.00    -0.267 N 
HETATM   15  H   UNL     1       2.446  32.913  54.145  1.00  0.00     0.190 HD
HETATM   16  O   UNL     1       2.365  30.775  56.536  1.00  0.00    -0.272 OA
BRANCH  14  17
HETATM   17  N   UNL     1       0.717  32.432  55.165  1.00  0.00    -0.262 N 
HETATM   18  C   UNL     1      -0.082  33.272  54.420  1.00  0.00     0.288 C 
HETATM   19  O   UNL     1       0.325  33.936  53.470  1.00  0.00    -0.264 OA
HETATM   20  H   UNL     1       0.339  31.897  55.950  1.00  0.00     0.190 HD
BRANCH  18  21
HETATM   21  C   UNL     1      -1.510  33.306  54.863  1.00  0.00     0.125 A 
HETATM   22  N   UNL     1      -1.728  33.492  56.195  1.00  0.00    -0.255 NA
HETATM   23  C   UNL     1      -3.016  33.507  56.597  1.00  0.00     0.117 A 
HETATM   24  C   UNL     1      -4.094  33.343  55.741  1.00  0.00     0.019 A 
HETATM   25  C   UNL     1      -3.843  33.156  54.384  1.00  0.00     0.004 A 
HETATM   26  C   UNL     1      -2.527  33.136  53.931  1.00  0.00     0.037 A 
ENDBRANCH  18  21
ENDBRANCH  14  17
ENDBRANCH  12  13
ENDBRANCH   7  12
BRANCH  10  27
HETATM   27  O   UNL     1       6.024  26.066  54.713  1.00  0.00    -0.347 OA
BRANCH  27  28
HETATM   28  C   UNL     1       7.134  25.681  53.901  1.00  0.00     0.214 C 
BRANCH  28  29
HETATM   29  C   UNL     1       7.436  24.205  54.054  1.00  0.00    -0.034 A 
HETATM   30  C   UNL     1       7.407  23.564  55.301  1.00  0.00     0.009 A 
HETATM   31  C   UNL     1       7.662  22.195  55.403  1.00  0.00     0.001 A 
HETATM   32  C   UNL     1       7.936  21.446  54.261  1.00  0.00     0.000 A 
HETATM   33  C   UNL     1       7.952  22.066  53.013  1.00  0.00     0.001 A 
HETATM   34  C   UNL     1       7.699  23.435  52.909  1.00  0.00     0.009 A 
ENDBRANCH  28  29
ENDBRANCH  27  28
ENDBRANCH  10  27
TORSDOF 7
ENDMDL
MODEL 10
REMARK VINA RESULT:      -8.5      5.498      9.386
REMARK  7 active torsions:
REMARK  status: ('A' for Active; 'I' for Inactive)
REMARK    1  A    between atoms: C_7  and  C_8 
REMARK    2  A    between atoms: C_8  and  C_9 
REMARK       I    between atoms: C_9  and  N_10 
REMARK    3  A    between atoms: N_10  and  N_11 
REMARK       I    between atoms: N_11  and  C_12 
REMARK    4  A    between atoms: C_12  and  C_13 
REMARK    5  A    between atoms: C_23  and  O_24 
REMARK    6  A    between atoms: O_24  and  C_25 
REMARK    7  A    between atoms: C_25  and  C_26 
ROOT
HETATM    1  C   UNL     1       5.000  32.590  56.959  1.00  0.00     0.068 C 
HETATM    2  C   UNL     1       4.561  31.988  55.673  1.00  0.00     0.013 A 
HETATM    3  N   UNL     1       4.456  32.738  54.528  1.00  0.00    -0.359 N 
HETATM    4  H   UNL     1       4.662  33.725  54.457  1.00  0.00     0.166 HD
HETATM    5  C   UNL     1       4.035  31.959  53.477  1.00  0.00     0.043 A 
HETATM    6  C   UNL     1       3.861  30.666  53.967  1.00  0.00     0.002 A 
HETATM    7  C   UNL     1       4.184  30.689  55.363  1.00  0.00    -0.015 A 
HETATM    8  C   UNL     1       3.797  32.299  52.142  1.00  0.00     0.033 A 
HETATM    9  C   UNL     1       3.376  31.284  51.272  1.00  0.00     0.039 A 
HETATM   10  C   UNL     1       3.200  29.977  51.723  1.00  0.00     0.070 A 
HETATM   11  C   UNL     1       3.434  29.665  53.070  1.00  0.00     0.051 A 
ENDROOT
BRANCH   7  12
HETATM   12  C   UNL     1       4.124  29.526  56.307  1.00  0.00     0.146 C 
BRANCH  12  13
HETATM   13  C   UNL     1       5.078  28.390  55.974  1.00  0.00     0.240 C 
HETATM   14  N   UNL     1       4.516  27.137  55.849  1.00  0.00    -0.267 N 
HETATM   15  H   UNL     1       3.577  26.917  56.183  1.00  0.00     0.190 HD
HETATM   16  O   UNL     1       6.274  28.600  55.746  1.00  0.00    -0.272 OA
BRANCH  14  17
HETATM   17  N   UNL     1       5.358  26.055  55.592  1.00  0.00    -0.262 N 
HETATM   18  C   UNL     1       5.441  25.537  54.318  1.00  0.00     0.288 C 
HETATM   19  O   UNL     1       4.764  25.933  53.374  1.00  0.00    -0.264 OA
HETATM   20  H   UNL     1       5.940  25.696  56.351  1.00  0.00     0.190 HD
BRANCH  18  21
HETATM   21  C   UNL     1       6.446  24.438  54.172  1.00  0.00     0.125 A 
HETATM   22  N   UNL     1       6.728  23.721  55.295  1.00  0.00    -0.255 NA
HETATM   23  C   UNL     1       7.647  22.740  55.167  1.00  0.00     0.117 A 
HETATM   24  C   UNL     1       8.298  22.442  53.979  1.00  0.00     0.019 A 
HETATM   25  C   UNL     1       7.989  23.190  52.847  1.00  0.00     0.004 A 
HETATM   26  C   UNL     1       7.045  24.209  52.939  1.00  0.00     0.037 A 
ENDBRANCH  18  21
ENDBRANCH  14  17
ENDBRANCH  12  13
ENDBRANCH   7  12
BRANCH  10  27
HETATM   27  O   UNL     1       2.808  28.909  50.960  1.00  0.00    -0.347 OA
BRANCH  27  28
HETATM   28  C   UNL     1       2.362  29.185  49.631  1.00  0.00     0.214 C 
BRANCH  28  29
HETATM   29  C   UNL     1       2.476  27.957  48.752  1.00  0.00    -0.034 A 
HETATM   30  C   UNL     1       1.471  27.596  47.844  1.00  0.00     0.009 A 
HETATM   31  C   UNL     1       1.620  26.473  47.026  1.00  0.00     0.001 A 
HETATM   32  C   UNL     1       2.780  25.705  47.097  1.00  0.00     0.000 A 
HETATM   33  C   UNL     1       3.795  26.061  47.983  1.00  0.00     0.001 A 
HETATM   34  C   UNL     1       3.646  27.182  48.802  1.00  0.00     0.009 A 
ENDBRANCH  28  29
ENDBRANCH  27  28
ENDBRANCH  10  27
TORSDOF 7
ENDMDL
