MODEL 1
REMARK VINA RESULT:      -9.1      0.000      0.000
REMARK  3 active torsions:
REMARK  status: ('A' for Active; 'I' for Inactive)
REMARK    1  A    between atoms: C_5  and  C_6 
REMARK    2  A    between atoms: C_13  and  O_14 
REMARK    3  A    between atoms: C_26  and  O_27 
ROOT
HETATM    1  C   UNL     1       4.945  31.013  56.638  1.00  0.00     0.021 C 
HETATM    2  C   UNL     1       5.797  29.748  56.494  1.00  0.00     0.033 C 
HETATM    3  C   UNL     1       5.761  29.231  55.045  1.00  0.00     0.289 C 
HETATM    4  N   UNL     1       6.543  27.988  54.925  1.00  0.00     0.126 N 
HETATM    5  C   UNL     1       5.955  26.930  55.748  1.00  0.00     0.458 C 
HETATM    6  N   UNL     1       6.067  27.385  57.186  1.00  0.00    -0.033 N 
HETATM    7  H   UNL     1       5.656  26.664  57.786  1.00  0.00     0.282 HD
HETATM    8  C   UNL     1       5.242  28.639  57.398  1.00  0.00     0.251 C 
HETATM    9  C   UNL     1       7.954  28.240  55.248  1.00  0.00     0.289 C 
HETATM   10  C   UNL     1       8.096  28.722  56.701  1.00  0.00     0.033 C 
HETATM   11  C   UNL     1       9.571  28.946  57.047  1.00  0.00     0.021 C 
HETATM   12  C   UNL     1       7.502  27.637  57.605  1.00  0.00     0.251 C 
HETATM   13  C   UNL     1       7.273  30.019  56.870  1.00  0.00     0.141 C 
ENDROOT
BRANCH   5  14
HETATM   14  C   UNL     1       6.453  25.526  55.440  1.00  0.00     0.044 A 
HETATM   15  C   UNL     1       6.229  24.918  54.206  1.00  0.00     0.137 A 
HETATM   16 CL   UNL     1       5.275  25.614  52.952  1.00  0.00    -0.062 Cl
HETATM   17  N   UNL     1       6.665  23.690  53.863  1.00  0.00    -0.233 NA
HETATM   18  C   UNL     1       7.326  22.934  54.764  1.00  0.00     0.102 A 
HETATM   19  C   UNL     1       7.530  23.411  56.072  1.00  0.00    -0.004 A 
HETATM   20  C   UNL     1       7.826  21.660  54.439  1.00  0.00     0.097 A 
HETATM   21  C   UNL     1       7.082  24.706  56.393  1.00  0.00     0.028 A 
HETATM   22  C   UNL     1       8.172  22.610  57.031  1.00  0.00     0.014 A 
HETATM   23  C   UNL     1       8.627  21.338  56.697  1.00  0.00     0.004 A 
HETATM   24  C   UNL     1       8.458  20.864  55.401  1.00  0.00     0.039 A 
BRANCH  20  25
HETATM   25  O   UNL     1       7.620  21.245  53.141  1.00  0.00    -0.354 OA
HETATM   26  C   UNL     1       8.545  20.297  52.623  1.00  0.00     0.210 C 
ENDBRANCH  20  25
ENDBRANCH   5  14
BRANCH  13  27
HETATM   27  O   UNL     1       7.340  30.456  58.226  1.00  0.00    -0.394 OA
HETATM   28  H   UNL     1       6.429  30.643  58.531  1.00  0.00     0.210 HD
ENDBRANCH  13  27
TORSDOF 3
ENDMDL
MODEL 2
REMARK VINA RESULT:      -8.3      4.589      7.010
REMARK  3 active torsions:
REMARK  status: ('A' for Active; 'I' for Inactive)
REMARK    1  A    between atoms: C_5  and  C_6 
REMARK    2  A    between atoms: C_13  and  O_14 
REMARK    3  A    between atoms: C_26  and  O_27 
ROOT
HETATM    1  C   UNL     1       7.284  25.639  57.432  1.00  0.00     0.021 C 
HETATM    2  C   UNL     1       6.940  25.659  55.939  1.00  0.00     0.033 C 
HETATM    3  C   UNL     1       7.369  26.991  55.300  1.00  0.00     0.289 C 
HETATM    4  N   UNL     1       6.993  27.021  53.876  1.00  0.00     0.126 N 
HETATM    5  C   UNL     1       5.538  26.950  53.728  1.00  0.00     0.458 C 
HETATM    6  N   UNL     1       5.111  25.604  54.269  1.00  0.00    -0.033 N 
HETATM    7  H   UNL     1       4.093  25.530  54.184  1.00  0.00     0.282 HD
HETATM    8  C   UNL     1       5.423  25.519  55.751  1.00  0.00     0.251 C 
HETATM    9  C   UNL     1       7.690  25.956  53.141  1.00  0.00     0.289 C 
HETATM   10  C   UNL     1       7.287  24.575  53.683  1.00  0.00     0.033 C 
HETATM   11  C   UNL     1       7.985  23.467  52.890  1.00  0.00     0.021 C 
HETATM   12  C   UNL     1       5.768  24.450  53.538  1.00  0.00     0.251 C 
HETATM   13  C   UNL     1       7.653  24.512  55.184  1.00  0.00     0.141 C 
ENDROOT
BRANCH   5  14
HETATM   14  C   UNL     1       5.014  27.324  52.350  1.00  0.00     0.044 A 
HETATM   15  C   UNL     1       4.373  28.538  52.109  1.00  0.00     0.137 A 
HETATM   16 CL   UNL     1       3.992  29.684  53.338  1.00  0.00    -0.062 Cl
HETATM   17  N   UNL     1       3.911  28.939  50.909  1.00  0.00    -0.233 NA
HETATM   18  C   UNL     1       4.003  28.118  49.843  1.00  0.00     0.102 A 
HETATM   19  C   UNL     1       4.551  26.830  49.990  1.00  0.00    -0.004 A 
HETATM   20  C   UNL     1       3.562  28.508  48.566  1.00  0.00     0.097 A 
HETATM   21  C   UNL     1       5.045  26.449  51.251  1.00  0.00     0.028 A 
HETATM   22  C   UNL     1       4.605  25.950  48.895  1.00  0.00     0.014 A 
HETATM   23  C   UNL     1       4.130  26.344  47.649  1.00  0.00     0.004 A 
HETATM   24  C   UNL     1       3.612  27.623  47.481  1.00  0.00     0.039 A 
BRANCH  20  25
HETATM   25  O   UNL     1       3.053  29.785  48.467  1.00  0.00    -0.354 OA
HETATM   26  C   UNL     1       2.967  30.336  47.158  1.00  0.00     0.210 C 
ENDBRANCH  20  25
ENDBRANCH   5  14
BRANCH  13  27
HETATM   27  O   UNL     1       7.236  23.261  55.726  1.00  0.00    -0.394 OA
HETATM   28  H   UNL     1       7.383  23.283  56.693  1.00  0.00     0.210 HD
ENDBRANCH  13  27
TORSDOF 3
ENDMDL
MODEL 3
REMARK VINA RESULT:      -8.3      3.598      8.002
REMARK  3 active torsions:
REMARK  status: ('A' for Active; 'I' for Inactive)
REMARK    1  A    between atoms: C_5  and  C_6 
REMARK    2  A    between atoms: C_13  and  O_14 
REMARK    3  A    between atoms: C_26  and  O_27 
ROOT
HETATM    1  C   UNL     1       6.381  27.332  52.823  1.00  0.00     0.021 C 
HETATM    2  C   UNL     1       6.573  27.666  54.306  1.00  0.00     0.033 C 
HETATM    3  C   UNL     1       5.429  28.561  54.813  1.00  0.00     0.289 C 
HETATM    4  N   UNL     1       5.645  28.917  56.227  1.00  0.00     0.126 N 
HETATM    5  C   UNL     1       6.872  29.701  56.377  1.00  0.00     0.458 C 
HETATM    6  N   UNL     1       8.017  28.801  55.968  1.00  0.00    -0.033 N 
HETATM    7  H   UNL     1       8.890  29.328  56.057  1.00  0.00     0.282 HD
HETATM    8  C   UNL     1       7.888  28.432  54.503  1.00  0.00     0.251 C 
HETATM    9  C   UNL     1       5.639  27.709  57.064  1.00  0.00     0.289 C 
HETATM   10  C   UNL     1       6.783  26.766  56.657  1.00  0.00     0.033 C 
HETATM   11  C   UNL     1       6.797  25.527  57.557  1.00  0.00     0.021 C 
HETATM   12  C   UNL     1       8.094  27.543  56.810  1.00  0.00     0.251 C 
HETATM   13  C   UNL     1       6.599  26.384  55.172  1.00  0.00     0.141 C 
ENDROOT
BRANCH   5  14
HETATM   14  C   UNL     1       7.017  30.418  57.711  1.00  0.00     0.044 A 
HETATM   15  C   UNL     1       6.175  31.467  58.079  1.00  0.00     0.137 A 
HETATM   16 CL   UNL     1       4.979  32.148  57.043  1.00  0.00    -0.062 Cl
HETATM   17  N   UNL     1       6.235  32.124  59.254  1.00  0.00    -0.233 NA
HETATM   18  C   UNL     1       7.194  31.817  60.150  1.00  0.00     0.102 A 
HETATM   19  C   UNL     1       8.156  30.835  59.846  1.00  0.00    -0.004 A 
HETATM   20  C   UNL     1       7.274  32.456  61.400  1.00  0.00     0.097 A 
HETATM   21  C   UNL     1       8.054  30.151  58.620  1.00  0.00     0.028 A 
HETATM   22  C   UNL     1       9.189  30.544  60.753  1.00  0.00     0.014 A 
HETATM   23  C   UNL     1       9.269  31.215  61.969  1.00  0.00     0.004 A 
HETATM   24  C   UNL     1       8.311  32.167  62.296  1.00  0.00     0.039 A 
BRANCH  20  25
HETATM   25  O   UNL     1       6.299  33.394  61.661  1.00  0.00    -0.354 OA
HETATM   26  C   UNL     1       5.372  33.078  62.692  1.00  0.00     0.210 C 
ENDBRANCH  20  25
ENDBRANCH   5  14
BRANCH  13  27
HETATM   27  O   UNL     1       7.681  25.555  54.752  1.00  0.00    -0.394 OA
HETATM   28  H   UNL     1       7.954  25.003  55.512  1.00  0.00     0.210 HD
ENDBRANCH  13  27
TORSDOF 3
ENDMDL
MODEL 4
REMARK VINA RESULT:      -8.2      2.540      3.754
REMARK  3 active torsions:
REMARK  status: ('A' for Active; 'I' for Inactive)
REMARK    1  A    between atoms: C_5  and  C_6 
REMARK    2  A    between atoms: C_13  and  O_14 
REMARK    3  A    between atoms: C_26  and  O_27 
ROOT
HETATM    1  C   UNL     1       4.908  30.102  54.841  1.00  0.00     0.021 C 
HETATM    2  C   UNL     1       5.441  28.738  54.392  1.00  0.00     0.033 C 
HETATM    3  C   UNL     1       4.745  27.603  55.163  1.00  0.00     0.289 C 
HETATM    4  N   UNL     1       5.297  26.297  54.760  1.00  0.00     0.126 N 
HETATM    5  C   UNL     1       6.717  26.211  55.106  1.00  0.00     0.458 C 
HETATM    6  N   UNL     1       7.428  27.263  54.285  1.00  0.00    -0.033 N 
HETATM    7  H   UNL     1       8.426  27.230  54.513  1.00  0.00     0.282 HD
HETATM    8  C   UNL     1       6.945  28.645  54.683  1.00  0.00     0.251 C 
HETATM    9  C   UNL     1       5.045  26.054  53.333  1.00  0.00     0.289 C 
HETATM   10  C   UNL     1       5.744  27.122  52.475  1.00  0.00     0.033 C 
HETATM   11  C   UNL     1       5.512  26.845  50.986  1.00  0.00     0.021 C 
HETATM   12  C   UNL     1       7.240  27.062  52.795  1.00  0.00     0.251 C 
HETATM   13  C   UNL     1       5.201  28.510  52.881  1.00  0.00     0.141 C 
ENDROOT
BRANCH   5  14
HETATM   14  C   UNL     1       7.303  24.808  55.066  1.00  0.00     0.044 A 
HETATM   15  C   UNL     1       8.028  24.282  56.134  1.00  0.00     0.137 A 
HETATM   16 CL   UNL     1       8.447  25.176  57.545  1.00  0.00    -0.062 Cl
HETATM   17  N   UNL     1       8.550  23.040  56.171  1.00  0.00    -0.233 NA
HETATM   18  C   UNL     1       8.435  22.228  55.099  1.00  0.00     0.102 A 
HETATM   19  C   UNL     1       7.801  22.689  53.930  1.00  0.00    -0.004 A 
HETATM   20  C   UNL     1       8.937  20.915  55.106  1.00  0.00     0.097 A 
HETATM   21  C   UNL     1       7.247  23.982  53.931  1.00  0.00     0.028 A 
HETATM   22  C   UNL     1       7.721  21.868  52.792  1.00  0.00     0.014 A 
HETATM   23  C   UNL     1       8.257  20.584  52.810  1.00  0.00     0.004 A 
HETATM   24  C   UNL     1       8.861  20.105  53.966  1.00  0.00     0.039 A 
BRANCH  20  25
HETATM   25  O   UNL     1       9.531  20.502  56.279  1.00  0.00    -0.354 OA
HETATM   26  C   UNL     1       8.731  20.566  57.454  1.00  0.00     0.210 C 
ENDBRANCH  20  25
ENDBRANCH   5  14
BRANCH  13  27
HETATM   27  O   UNL     1       5.876  29.524  52.139  1.00  0.00    -0.394 OA
HETATM   28  H   UNL     1       6.714  29.732  52.600  1.00  0.00     0.210 HD
ENDBRANCH  13  27
TORSDOF 3
ENDMDL
MODEL 5
REMARK VINA RESULT:      -8.2      2.228      7.117
REMARK  3 active torsions:
REMARK  status: ('A' for Active; 'I' for Inactive)
REMARK    1  A    between atoms: C_5  and  C_6 
REMARK    2  A    between atoms: C_13  and  O_14 
REMARK    3  A    between atoms: C_26  and  O_27 
ROOT
HETATM    1  C   UNL     1       4.831  24.907  51.451  1.00  0.00     0.021 C 
HETATM    2  C   UNL     1       5.555  25.413  52.702  1.00  0.00     0.033 C 
HETATM    3  C   UNL     1       4.629  26.313  53.539  1.00  0.00     0.289 C 
HETATM    4  N   UNL     1       5.347  26.834  54.716  1.00  0.00     0.126 N 
HETATM    5  C   UNL     1       6.468  27.679  54.300  1.00  0.00     0.458 C 
HETATM    6  N   UNL     1       7.433  26.785  53.554  1.00  0.00    -0.033 N 
HETATM    7  H   UNL     1       8.226  27.354  53.245  1.00  0.00     0.282 HD
HETATM    8  C   UNL     1       6.776  26.249  52.297  1.00  0.00     0.251 C 
HETATM    9  C   UNL     1       5.764  25.729  55.590  1.00  0.00     0.289 C 
HETATM   10  C   UNL     1       6.733  24.793  54.849  1.00  0.00     0.033 C 
HETATM   11  C   UNL     1       7.197  23.664  55.775  1.00  0.00     0.021 C 
HETATM   12  C   UNL     1       7.933  25.635  54.403  1.00  0.00     0.251 C 
HETATM   13  C   UNL     1       6.019  24.239  53.596  1.00  0.00     0.141 C 
ENDROOT
BRANCH   5  14
HETATM   14  C   UNL     1       7.060  28.547  55.401  1.00  0.00     0.044 A 
HETATM   15  C   UNL     1       6.257  29.221  56.320  1.00  0.00     0.137 A 
HETATM   16 CL   UNL     1       4.537  29.256  56.249  1.00  0.00    -0.062 Cl
HETATM   17  N   UNL     1       6.720  29.983  57.331  1.00  0.00    -0.233 NA
HETATM   18  C   UNL     1       8.046  30.181  57.474  1.00  0.00     0.102 A 
HETATM   19  C   UNL     1       8.946  29.622  56.547  1.00  0.00    -0.004 A 
HETATM   20  C   UNL     1       8.573  30.942  58.532  1.00  0.00     0.097 A 
HETATM   21  C   UNL     1       8.435  28.814  55.515  1.00  0.00     0.028 A 
HETATM   22  C   UNL     1      10.326  29.865  56.659  1.00  0.00     0.014 A 
HETATM   23  C   UNL     1      10.822  30.651  57.694  1.00  0.00     0.004 A 
HETATM   24  C   UNL     1       9.948  31.186  58.633  1.00  0.00     0.039 A 
BRANCH  20  25
HETATM   25  O   UNL     1       7.655  31.451  59.425  1.00  0.00    -0.354 OA
HETATM   26  C   UNL     1       8.173  31.967  60.644  1.00  0.00     0.210 C 
ENDBRANCH  20  25
ENDBRANCH   5  14
BRANCH  13  27
HETATM   27  O   UNL     1       6.917  23.412  52.859  1.00  0.00    -0.394 OA
HETATM   28  H   UNL     1       7.422  23.983  52.245  1.00  0.00     0.210 HD
ENDBRANCH  13  27
TORSDOF 3
ENDMDL
MODEL 6
REMARK VINA RESULT:      -7.7      6.315      9.458
REMARK  3 active torsions:
REMARK  status: ('A' for Active; 'I' for Inactive)
REMARK    1  A    between atoms: C_5  and  C_6 
REMARK    2  A    between atoms: C_13  and  O_14 
REMARK    3  A    between atoms: C_26  and  O_27 
ROOT
HETATM    1  C   UNL     1       4.674  35.685  65.570  1.00  0.00     0.021 C 
HETATM    2  C   UNL     1       4.688  34.950  64.226  1.00  0.00     0.033 C 
HETATM    3  C   UNL     1       4.968  33.451  64.429  1.00  0.00     0.289 C 
HETATM    4  N   UNL     1       5.026  32.760  63.129  1.00  0.00     0.126 N 
HETATM    5  C   UNL     1       6.135  33.274  62.323  1.00  0.00     0.458 C 
HETATM    6  N   UNL     1       5.827  34.728  62.038  1.00  0.00    -0.033 N 
HETATM    7  H   UNL     1       6.592  35.116  61.479  1.00  0.00     0.282 HD
HETATM    8  C   UNL     1       5.800  35.516  63.333  1.00  0.00     0.251 C 
HETATM    9  C   UNL     1       3.732  32.858  62.440  1.00  0.00     0.289 C 
HETATM   10  C   UNL     1       3.385  34.328  62.153  1.00  0.00     0.033 C 
HETATM   11  C   UNL     1       2.054  34.424  61.401  1.00  0.00     0.021 C 
HETATM   12  C   UNL     1       4.516  34.908  61.299  1.00  0.00     0.251 C 
HETATM   13  C   UNL     1       3.331  35.090  63.496  1.00  0.00     0.141 C 
ENDROOT
BRANCH   5  14
HETATM   14  C   UNL     1       6.513  32.414  61.128  1.00  0.00     0.044 A 
HETATM   15  C   UNL     1       7.650  31.608  61.130  1.00  0.00     0.137 A 
HETATM   16 CL   UNL     1       8.808  31.583  62.405  1.00  0.00    -0.062 Cl
HETATM   17  N   UNL     1       8.026  30.804  60.115  1.00  0.00    -0.233 NA
HETATM   18  C   UNL     1       7.310  30.784  58.972  1.00  0.00     0.102 A 
HETATM   19  C   UNL     1       6.192  31.627  58.824  1.00  0.00    -0.004 A 
HETATM   20  C   UNL     1       7.647  29.938  57.901  1.00  0.00     0.097 A 
HETATM   21  C   UNL     1       5.813  32.437  59.910  1.00  0.00     0.028 A 
HETATM   22  C   UNL     1       5.471  31.648  57.618  1.00  0.00     0.014 A 
HETATM   23  C   UNL     1       5.845  30.829  56.558  1.00  0.00     0.004 A 
HETATM   24  C   UNL     1       6.929  29.971  56.699  1.00  0.00     0.039 A 
BRANCH  20  25
HETATM   25  O   UNL     1       8.736  29.117  58.100  1.00  0.00    -0.354 OA
HETATM   26  C   UNL     1       9.679  29.043  57.038  1.00  0.00     0.210 C 
ENDBRANCH  20  25
ENDBRANCH   5  14
BRANCH  13  27
HETATM   27  O   UNL     1       3.068  36.471  63.253  1.00  0.00    -0.394 OA
HETATM   28  H   UNL     1       2.145  36.555  62.938  1.00  0.00     0.210 HD
ENDBRANCH  13  27
TORSDOF 3
ENDMDL
MODEL 7
REMARK VINA RESULT:      -7.7      7.898     10.790
REMARK  3 active torsions:
REMARK  status: ('A' for Active; 'I' for Inactive)
REMARK    1  A    between atoms: C_5  and  C_6 
REMARK    2  A    between atoms: C_13  and  O_14 
REMARK    3  A    between atoms: C_26  and  O_27 
ROOT
HETATM    1  C   UNL     1       4.161  36.151  66.701  1.00  0.00     0.021 C 
HETATM    2  C   UNL     1       4.524  35.361  65.440  1.00  0.00     0.033 C 
HETATM    3  C   UNL     1       4.588  36.291  64.215  1.00  0.00     0.289 C 
HETATM    4  N   UNL     1       4.891  35.516  62.999  1.00  0.00     0.126 N 
HETATM    5  C   UNL     1       3.823  34.553  62.723  1.00  0.00     0.458 C 
HETATM    6  N   UNL     1       3.810  33.576  63.878  1.00  0.00    -0.033 N 
HETATM    7  H   UNL     1       3.064  32.893  63.714  1.00  0.00     0.282 HD
HETATM    8  C   UNL     1       3.453  34.298  65.163  1.00  0.00     0.251 C 
HETATM    9  C   UNL     1       6.211  34.879  63.115  1.00  0.00     0.289 C 
HETATM   10  C   UNL     1       6.231  33.893  64.293  1.00  0.00     0.033 C 
HETATM   11  C   UNL     1       7.595  33.203  64.388  1.00  0.00     0.021 C 
HETATM   12  C   UNL     1       5.132  32.855  64.043  1.00  0.00     0.251 C 
HETATM   13  C   UNL     1       5.900  34.668  65.588  1.00  0.00     0.141 C 
ENDROOT
BRANCH   5  14
HETATM   14  C   UNL     1       3.845  33.952  61.326  1.00  0.00     0.044 A 
HETATM   15  C   UNL     1       2.730  33.988  60.491  1.00  0.00     0.137 A 
HETATM   16 CL   UNL     1       1.188  34.589  60.971  1.00  0.00    -0.062 Cl
HETATM   17  N   UNL     1       2.693  33.498  59.236  1.00  0.00    -0.233 NA
HETATM   18  C   UNL     1       3.773  32.870  58.726  1.00  0.00     0.102 A 
HETATM   19  C   UNL     1       4.926  32.697  59.514  1.00  0.00    -0.004 A 
HETATM   20  C   UNL     1       3.788  32.372  57.411  1.00  0.00     0.097 A 
HETATM   21  C   UNL     1       4.941  33.239  60.812  1.00  0.00     0.028 A 
HETATM   22  C   UNL     1       6.036  32.000  59.008  1.00  0.00     0.014 A 
HETATM   23  C   UNL     1       6.016  31.484  57.716  1.00  0.00     0.004 A 
HETATM   24  C   UNL     1       4.896  31.672  56.916  1.00  0.00     0.039 A 
BRANCH  20  25
HETATM   25  O   UNL     1       2.645  32.584  56.671  1.00  0.00    -0.354 OA
HETATM   26  C   UNL     1       2.479  31.778  55.512  1.00  0.00     0.210 C 
ENDBRANCH  20  25
ENDBRANCH   5  14
BRANCH  13  27
HETATM   27  O   UNL     1       5.854  33.764  66.690  1.00  0.00    -0.394 OA
HETATM   28  H   UNL     1       6.546  33.085  66.556  1.00  0.00     0.210 HD
ENDBRANCH  13  27
TORSDOF 3
ENDMDL
MODEL 8
REMARK VINA RESULT:      -7.6      5.059      6.554
REMARK  3 active torsions:
REMARK  status: ('A' for Active; 'I' for Inactive)
REMARK    1  A    between atoms: C_5  and  C_6 
REMARK    2  A    between atoms: C_13  and  O_14 
REMARK    3  A    between atoms: C_26  and  O_27 
ROOT
HETATM    1  C   UNL     1       2.903  31.825  48.703  1.00  0.00     0.021 C 
HETATM    2  C   UNL     1       3.593  30.534  49.154  1.00  0.00     0.033 C 
HETATM    3  C   UNL     1       2.683  29.733  50.101  1.00  0.00     0.289 C 
HETATM    4  N   UNL     1       3.372  28.517  50.568  1.00  0.00     0.126 N 
HETATM    5  C   UNL     1       4.560  28.867  51.348  1.00  0.00     0.458 C 
HETATM    6  N   UNL     1       5.506  29.576  50.404  1.00  0.00    -0.033 N 
HETATM    7  H   UNL     1       6.346  29.840  50.927  1.00  0.00     0.282 HD
HETATM    8  C   UNL     1       4.881  30.870  49.919  1.00  0.00     0.251 C 
HETATM    9  C   UNL     1       3.679  27.636  49.432  1.00  0.00     0.289 C 
HETATM   10  C   UNL     1       4.626  28.340  48.446  1.00  0.00     0.033 C 
HETATM   11  C   UNL     1       4.975  27.406  47.283  1.00  0.00     0.021 C 
HETATM   12  C   UNL     1       5.894  28.717  49.218  1.00  0.00     0.251 C 
HETATM   13  C   UNL     1       3.942  29.632  47.946  1.00  0.00     0.141 C 
ENDROOT
BRANCH   5  14
HETATM   14  C   UNL     1       5.148  27.729  52.169  1.00  0.00     0.044 A 
HETATM   15  C   UNL     1       4.850  27.566  53.520  1.00  0.00     0.137 A 
HETATM   16 CL   UNL     1       3.905  28.676  54.437  1.00  0.00    -0.062 Cl
HETATM   17  N   UNL     1       5.317  26.566  54.295  1.00  0.00    -0.233 NA
HETATM   18  C   UNL     1       6.179  25.664  53.784  1.00  0.00     0.102 A 
HETATM   19  C   UNL     1       6.620  25.786  52.453  1.00  0.00    -0.004 A 
HETATM   20  C   UNL     1       6.666  24.588  54.547  1.00  0.00     0.097 A 
HETATM   21  C   UNL     1       6.099  26.827  51.663  1.00  0.00     0.028 A 
HETATM   22  C   UNL     1       7.558  24.880  51.928  1.00  0.00     0.014 A 
HETATM   23  C   UNL     1       8.053  23.843  52.713  1.00  0.00     0.004 A 
HETATM   24  C   UNL     1       7.606  23.694  54.020  1.00  0.00     0.039 A 
BRANCH  20  25
HETATM   25  O   UNL     1       6.190  24.499  55.837  1.00  0.00    -0.354 OA
HETATM   26  C   UNL     1       7.131  24.722  56.879  1.00  0.00     0.210 C 
ENDBRANCH  20  25
ENDBRANCH   5  14
BRANCH  13  27
HETATM   27  O   UNL     1       4.825  30.335  47.074  1.00  0.00    -0.394 OA
HETATM   28  H   UNL     1       4.354  31.122  46.734  1.00  0.00     0.210 HD
ENDBRANCH  13  27
TORSDOF 3
ENDMDL
MODEL 9
REMARK VINA RESULT:      -7.4      2.782      8.021
REMARK  3 active torsions:
REMARK  status: ('A' for Active; 'I' for Inactive)
REMARK    1  A    between atoms: C_5  and  C_6 
REMARK    2  A    between atoms: C_13  and  O_14 
REMARK    3  A    between atoms: C_26  and  O_27 
ROOT
HETATM    1  C   UNL     1       8.096  23.699  57.055  1.00  0.00     0.021 C 
HETATM    2  C   UNL     1       7.508  25.018  56.546  1.00  0.00     0.033 C 
HETATM    3  C   UNL     1       8.342  26.212  57.041  1.00  0.00     0.289 C 
HETATM    4  N   UNL     1       7.742  27.479  56.586  1.00  0.00     0.126 N 
HETATM    5  C   UNL     1       6.407  27.651  57.160  1.00  0.00     0.458 C 
HETATM    6  N   UNL     1       5.549  26.534  56.608  1.00  0.00    -0.033 N 
HETATM    7  H   UNL     1       4.608  26.626  57.000  1.00  0.00     0.282 HD
HETATM    8  C   UNL     1       6.079  25.193  57.079  1.00  0.00     0.251 C 
HETATM    9  C   UNL     1       7.741  27.545  55.118  1.00  0.00     0.289 C 
HETATM   10  C   UNL     1       6.890  26.408  54.529  1.00  0.00     0.033 C 
HETATM   11  C   UNL     1       6.859  26.502  53.000  1.00  0.00     0.021 C 
HETATM   12  C   UNL     1       5.474  26.554  55.094  1.00  0.00     0.251 C 
HETATM   13  C   UNL     1       7.480  25.060  54.999  1.00  0.00     0.141 C 
ENDROOT
BRANCH   5  14
HETATM   14  C   UNL     1       5.838  29.058  57.053  1.00  0.00     0.044 A 
HETATM   15  C   UNL     1       6.429  30.143  57.699  1.00  0.00     0.137 A 
HETATM   16 CL   UNL     1       7.770  30.008  58.773  1.00  0.00    -0.062 Cl
HETATM   17  N   UNL     1       5.991  31.415  57.624  1.00  0.00    -0.233 NA
HETATM   18  C   UNL     1       4.871  31.701  56.929  1.00  0.00     0.102 A 
HETATM   19  C   UNL     1       4.141  30.669  56.310  1.00  0.00    -0.004 A 
HETATM   20  C   UNL     1       4.396  33.018  56.798  1.00  0.00     0.097 A 
HETATM   21  C   UNL     1       4.636  29.355  56.389  1.00  0.00     0.028 A 
HETATM   22  C   UNL     1       2.946  30.952  55.627  1.00  0.00     0.014 A 
HETATM   23  C   UNL     1       2.475  32.258  55.541  1.00  0.00     0.004 A 
HETATM   24  C   UNL     1       3.200  33.292  56.122  1.00  0.00     0.039 A 
BRANCH  20  25
HETATM   25  O   UNL     1       5.155  33.996  57.402  1.00  0.00    -0.354 OA
HETATM   26  C   UNL     1       4.596  35.304  57.439  1.00  0.00     0.210 C 
ENDBRANCH  20  25
ENDBRANCH   5  14
BRANCH  13  27
HETATM   27  O   UNL     1       6.674  23.989  54.514  1.00  0.00    -0.394 OA
HETATM   28  H   UNL     1       7.092  23.635  53.703  1.00  0.00     0.210 HD
ENDBRANCH  13  27
TORSDOF 3
ENDMDL
MODEL 10
REMARK VINA RESULT:      -7.4      3.382      7.660
REMARK  3 active torsions:
REMARK  status: ('A' for Active; 'I' for Inactive)
REMARK    1  A    between atoms: C_5  and  C_6 
REMARK    2  A    between atoms: C_13  and  O_14 
REMARK    3  A    between atoms: C_26  and  O_27 
ROOT
HETATM    1  C   UNL     1       7.840  24.070  56.988  1.00  0.00     0.021 C 
HETATM    2  C   UNL     1       7.257  24.959  55.885  1.00  0.00     0.033 C 
HETATM    3  C   UNL     1       7.680  26.425  56.088  1.00  0.00     0.289 C 
HETATM    4  N   UNL     1       7.077  27.280  55.051  1.00  0.00     0.126 N 
HETATM    5  C   UNL     1       5.617  27.261  55.155  1.00  0.00     0.458 C 
HETATM    6  N   UNL     1       5.179  25.842  54.867  1.00  0.00    -0.033 N 
HETATM    7  H   UNL     1       4.158  25.799  54.940  1.00  0.00     0.282 HD
HETATM    8  C   UNL     1       5.724  24.906  55.928  1.00  0.00     0.251 C 
HETATM    9  C   UNL     1       7.555  26.883  53.719  1.00  0.00     0.289 C 
HETATM   10  C   UNL     1       7.138  25.437  53.407  1.00  0.00     0.033 C 
HETATM   11  C   UNL     1       7.605  25.038  52.004  1.00  0.00     0.021 C 
HETATM   12  C   UNL     1       5.611  25.370  53.493  1.00  0.00     0.251 C 
HETATM   13  C   UNL     1       7.741  24.509  54.486  1.00  0.00     0.141 C 
ENDROOT
BRANCH   5  14
HETATM   14  C   UNL     1       4.904  28.361  54.383  1.00  0.00     0.044 A 
HETATM   15  C   UNL     1       4.873  29.679  54.837  1.00  0.00     0.137 A 
HETATM   16 CL   UNL     1       5.513  30.188  56.353  1.00  0.00    -0.062 Cl
HETATM   17  N   UNL     1       4.282  30.702  54.189  1.00  0.00    -0.233 NA
HETATM   18  C   UNL     1       3.613  30.475  53.039  1.00  0.00     0.102 A 
HETATM   19  C   UNL     1       3.502  29.165  52.535  1.00  0.00    -0.004 A 
HETATM   20  C   UNL     1       3.009  31.517  52.314  1.00  0.00     0.097 A 
HETATM   21  C   UNL     1       4.148  28.122  53.223  1.00  0.00     0.028 A 
HETATM   22  C   UNL     1       2.765  28.913  51.365  1.00  0.00     0.014 A 
HETATM   23  C   UNL     1       2.145  29.955  50.684  1.00  0.00     0.004 A 
HETATM   24  C   UNL     1       2.269  31.257  51.154  1.00  0.00     0.039 A 
BRANCH  20  25
HETATM   25  O   UNL     1       3.163  32.783  52.836  1.00  0.00    -0.354 OA
HETATM   26  C   UNL     1       1.973  33.461  53.221  1.00  0.00     0.210 C 
ENDBRANCH  20  25
ENDBRANCH   5  14
BRANCH  13  27
HETATM   27  O   UNL     1       7.321  23.166  54.253  1.00  0.00    -0.394 OA
HETATM   28  H   UNL     1       7.974  22.566  54.664  1.00  0.00     0.210 HD
ENDBRANCH  13  27
TORSDOF 3
ENDMDL
