MODEL 1
REMARK VINA RESULT:      -9.7      0.000      0.000
REMARK  5 active torsions:
REMARK  status: ('A' for Active; 'I' for Inactive)
REMARK    1  A    between atoms: C_2  and  C_3 
REMARK    2  A    between atoms: C_5  and  N_6 
REMARK       I    between atoms: N_6  and  C_7 
REMARK    3  A    between atoms: C_7  and  C_8 
REMARK    4  A    between atoms: C_9  and  C_10 
REMARK    5  A    between atoms: C_21  and  O_22 
ROOT
HETATM    1  N   UNL     1       7.202  26.183  55.695  1.00  0.00    -0.321 N 
HETATM    2  C   UNL     1       6.017  26.400  56.357  1.00  0.00     0.245 C 
HETATM    3  O   UNL     1       4.986  25.744  56.279  1.00  0.00    -0.268 OA
HETATM    4  H   UNL     1       8.013  26.734  55.956  1.00  0.00     0.169 HD
ENDROOT
BRANCH   1   5
HETATM    5  C   UNL     1       7.486  25.208  54.711  1.00  0.00     0.069 A 
HETATM    6  C   UNL     1       7.776  23.872  55.008  1.00  0.00     0.040 A 
HETATM    7  C   UNL     1       8.030  22.924  53.995  1.00  0.00    -0.048 A 
HETATM    8  C   UNL     1       7.991  23.373  52.667  1.00  0.00     0.011 A 
HETATM    9  C   UNL     1       7.701  24.708  52.355  1.00  0.00     0.039 A 
HETATM   10  C   UNL     1       7.443  25.629  53.369  1.00  0.00     0.095 A 
BRANCH   7  11
HETATM   11  C   UNL     1       8.316  21.457  54.370  1.00  0.00    -0.024 C 
HETATM   12  C   UNL     1       9.737  21.348  54.964  1.00  0.00     0.019 C 
HETATM   13  C   UNL     1       8.219  20.563  53.116  1.00  0.00     0.019 C 
HETATM   14  C   UNL     1       7.337  20.879  55.417  1.00  0.00     0.019 C 
ENDBRANCH   7  11
BRANCH  10  15
HETATM   15  O   UNL     1       7.141  26.958  53.172  1.00  0.00    -0.354 OA
HETATM   16  C   UNL     1       5.936  27.248  52.474  1.00  0.00     0.210 C 
ENDBRANCH  10  15
ENDBRANCH   1   5
BRANCH   2  17
HETATM   17  C   UNL     1       6.109  27.570  57.268  1.00  0.00     0.077 C 
HETATM   18  C   UNL     1       7.129  28.435  57.145  1.00  0.00     0.038 C 
BRANCH  18  19
HETATM   19  C   UNL     1       7.313  29.591  58.027  1.00  0.00     0.075 A 
HETATM   20  N   UNL     1       8.178  29.462  59.062  1.00  0.00    -0.245 NA
HETATM   21  C   UNL     1       8.360  30.545  59.844  1.00  0.00     0.086 A 
HETATM   22  C   UNL     1       7.666  31.758  59.606  1.00  0.00     0.085 A 
HETATM   23  C   UNL     1       9.256  30.478  60.905  1.00  0.00     0.034 A 
HETATM   24  N   UNL     1       6.798  31.878  58.584  1.00  0.00    -0.256 NA
HETATM   25  C   UNL     1       7.893  32.841  60.446  1.00  0.00     0.034 A 
HETATM   26  C   UNL     1       6.641  30.783  57.801  1.00  0.00     0.148 A 
HETATM   27  C   UNL     1       8.794  32.761  61.509  1.00  0.00     0.002 A 
HETATM   28  C   UNL     1       9.480  31.575  61.738  1.00  0.00     0.002 A 
ENDBRANCH  18  19
ENDBRANCH   2  17
TORSDOF 5
ENDMDL
MODEL 2
REMARK VINA RESULT:      -9.2      1.695      2.480
REMARK  5 active torsions:
REMARK  status: ('A' for Active; 'I' for Inactive)
REMARK    1  A    between atoms: C_2  and  C_3 
REMARK    2  A    between atoms: C_5  and  N_6 
REMARK       I    between atoms: N_6  and  C_7 
REMARK    3  A    between atoms: C_7  and  C_8 
REMARK    4  A    between atoms: C_9  and  C_10 
REMARK    5  A    between atoms: C_21  and  O_22 
ROOT
HETATM    1  N   UNL     1       7.012  26.772  56.798  1.00  0.00    -0.321 N 
HETATM    2  C   UNL     1       7.759  27.925  56.796  1.00  0.00     0.245 C 
HETATM    3  O   UNL     1       8.354  28.429  55.852  1.00  0.00    -0.268 OA
HETATM    4  H   UNL     1       6.471  26.545  57.626  1.00  0.00     0.169 HD
ENDROOT
BRANCH   1   5
HETATM    5  C   UNL     1       6.820  25.854  55.740  1.00  0.00     0.069 A 
HETATM    6  C   UNL     1       7.516  24.645  55.629  1.00  0.00     0.040 A 
HETATM    7  C   UNL     1       7.277  23.745  54.570  1.00  0.00    -0.048 A 
HETATM    8  C   UNL     1       6.316  24.112  53.617  1.00  0.00     0.011 A 
HETATM    9  C   UNL     1       5.612  25.319  53.714  1.00  0.00     0.039 A 
HETATM   10  C   UNL     1       5.854  26.192  54.774  1.00  0.00     0.095 A 
BRANCH   7  11
HETATM   11  C   UNL     1       8.047  22.412  54.506  1.00  0.00    -0.024 C 
HETATM   12  C   UNL     1       9.537  22.665  54.823  1.00  0.00     0.019 C 
HETATM   13  C   UNL     1       7.924  21.797  53.096  1.00  0.00     0.019 C 
HETATM   14  C   UNL     1       7.540  21.352  55.510  1.00  0.00     0.019 C 
ENDBRANCH   7  11
BRANCH  10  15
HETATM   15  O   UNL     1       5.215  27.396  54.968  1.00  0.00    -0.354 OA
HETATM   16  C   UNL     1       4.848  28.125  53.804  1.00  0.00     0.210 C 
ENDBRANCH  10  15
ENDBRANCH   1   5
BRANCH   2  17
HETATM   17  C   UNL     1       7.761  28.576  58.132  1.00  0.00     0.077 C 
HETATM   18  C   UNL     1       8.035  29.885  58.238  1.00  0.00     0.038 C 
BRANCH  18  19
HETATM   19  C   UNL     1       8.095  30.593  59.520  1.00  0.00     0.075 A 
HETATM   20  N   UNL     1       7.082  31.441  59.819  1.00  0.00    -0.245 NA
HETATM   21  C   UNL     1       7.136  32.059  61.016  1.00  0.00     0.086 A 
HETATM   22  C   UNL     1       8.212  31.847  61.913  1.00  0.00     0.085 A 
HETATM   23  C   UNL     1       6.109  32.921  61.386  1.00  0.00     0.034 A 
HETATM   24  N   UNL     1       9.223  31.012  61.607  1.00  0.00    -0.256 NA
HETATM   25  C   UNL     1       8.215  32.513  63.133  1.00  0.00     0.034 A 
HETATM   26  C   UNL     1       9.142  30.389  60.407  1.00  0.00     0.148 A 
HETATM   27  C   UNL     1       7.179  33.376  63.493  1.00  0.00     0.002 A 
HETATM   28  C   UNL     1       6.121  33.579  62.617  1.00  0.00     0.002 A 
ENDBRANCH  18  19
ENDBRANCH   2  17
TORSDOF 5
ENDMDL
MODEL 3
REMARK VINA RESULT:      -9.0      3.325     10.640
REMARK  5 active torsions:
REMARK  status: ('A' for Active; 'I' for Inactive)
REMARK    1  A    between atoms: C_2  and  C_3 
REMARK    2  A    between atoms: C_5  and  N_6 
REMARK       I    between atoms: N_6  and  C_7 
REMARK    3  A    between atoms: C_7  and  C_8 
REMARK    4  A    between atoms: C_9  and  C_10 
REMARK    5  A    between atoms: C_21  and  O_22 
ROOT
HETATM    1  N   UNL     1       6.776  31.287  60.389  1.00  0.00    -0.321 N 
HETATM    2  C   UNL     1       7.441  31.419  59.194  1.00  0.00     0.245 C 
HETATM    3  O   UNL     1       8.225  32.301  58.868  1.00  0.00    -0.268 OA
HETATM    4  H   UNL     1       6.256  30.433  60.564  1.00  0.00     0.169 HD
ENDROOT
BRANCH   1   5
HETATM    5  C   UNL     1       6.774  32.174  61.489  1.00  0.00     0.069 A 
HETATM    6  C   UNL     1       5.991  33.333  61.546  1.00  0.00     0.040 A 
HETATM    7  C   UNL     1       6.000  34.181  62.673  1.00  0.00    -0.048 A 
HETATM    8  C   UNL     1       6.834  33.823  63.742  1.00  0.00     0.011 A 
HETATM    9  C   UNL     1       7.622  32.666  63.700  1.00  0.00     0.039 A 
HETATM   10  C   UNL     1       7.594  31.835  62.581  1.00  0.00     0.095 A 
BRANCH   7  11
HETATM   11  C   UNL     1       5.099  35.430  62.702  1.00  0.00    -0.024 C 
HETATM   12  C   UNL     1       3.888  35.167  63.623  1.00  0.00     0.019 C 
HETATM   13  C   UNL     1       4.595  35.751  61.279  1.00  0.00     0.019 C 
HETATM   14  C   UNL     1       5.808  36.698  63.230  1.00  0.00     0.019 C 
ENDBRANCH   7  11
BRANCH  10  15
HETATM   15  O   UNL     1       8.321  30.674  62.440  1.00  0.00    -0.354 OA
HETATM   16  C   UNL     1       9.669  30.807  62.006  1.00  0.00     0.210 C 
ENDBRANCH  10  15
ENDBRANCH   1   5
BRANCH   2  17
HETATM   17  C   UNL     1       7.128  30.298  58.269  1.00  0.00     0.077 C 
HETATM   18  C   UNL     1       7.882  29.188  58.286  1.00  0.00     0.038 C 
BRANCH  18  19
HETATM   19  C   UNL     1       7.664  28.055  57.381  1.00  0.00     0.075 A 
HETATM   20  N   UNL     1       8.231  26.870  57.708  1.00  0.00    -0.245 NA
HETATM   21  C   UNL     1       7.994  25.830  56.883  1.00  0.00     0.086 A 
HETATM   22  C   UNL     1       7.202  25.974  55.716  1.00  0.00     0.085 A 
HETATM   23  C   UNL     1       8.530  24.583  57.184  1.00  0.00     0.034 A 
HETATM   24  N   UNL     1       6.649  27.158  55.388  1.00  0.00    -0.256 NA
HETATM   25  C   UNL     1       6.993  24.868  54.902  1.00  0.00     0.034 A 
HETATM   26  C   UNL     1       6.887  28.185  56.239  1.00  0.00     0.148 A 
HETATM   27  C   UNL     1       7.538  23.622  55.214  1.00  0.00     0.002 A 
HETATM   28  C   UNL     1       8.308  23.478  56.361  1.00  0.00     0.002 A 
ENDBRANCH  18  19
ENDBRANCH   2  17
TORSDOF 5
ENDMDL
MODEL 4
REMARK VINA RESULT:      -8.9      2.835      9.918
REMARK  5 active torsions:
REMARK  status: ('A' for Active; 'I' for Inactive)
REMARK    1  A    between atoms: C_2  and  C_3 
REMARK    2  A    between atoms: C_5  and  N_6 
REMARK       I    between atoms: N_6  and  C_7 
REMARK    3  A    between atoms: C_7  and  C_8 
REMARK    4  A    between atoms: C_9  and  C_10 
REMARK    5  A    between atoms: C_21  and  O_22 
ROOT
HETATM    1  N   UNL     1       6.936  30.707  59.072  1.00  0.00    -0.321 N 
HETATM    2  C   UNL     1       6.252  31.301  58.039  1.00  0.00     0.245 C 
HETATM    3  O   UNL     1       6.085  32.497  57.842  1.00  0.00    -0.268 OA
HETATM    4  H   UNL     1       7.101  29.707  59.035  1.00  0.00     0.169 HD
ENDROOT
BRANCH   1   5
HETATM    5  C   UNL     1       7.536  31.328  60.192  1.00  0.00     0.069 A 
HETATM    6  C   UNL     1       6.812  32.001  61.182  1.00  0.00     0.040 A 
HETATM    7  C   UNL     1       7.446  32.587  62.298  1.00  0.00    -0.048 A 
HETATM    8  C   UNL     1       8.842  32.478  62.376  1.00  0.00     0.011 A 
HETATM    9  C   UNL     1       9.580  31.807  61.392  1.00  0.00     0.039 A 
HETATM   10  C   UNL     1       8.935  31.226  60.301  1.00  0.00     0.095 A 
BRANCH   7  11
HETATM   11  C   UNL     1       6.604  33.293  63.378  1.00  0.00    -0.024 C 
HETATM   12  C   UNL     1       5.332  32.464  63.658  1.00  0.00     0.019 C 
HETATM   13  C   UNL     1       6.198  34.701  62.895  1.00  0.00     0.019 C 
HETATM   14  C   UNL     1       7.340  33.469  64.726  1.00  0.00     0.019 C 
ENDBRANCH   7  11
BRANCH  10  15
HETATM   15  O   UNL     1       9.562  30.539  59.287  1.00  0.00    -0.354 OA
HETATM   16  C   UNL     1      10.191  31.317  58.275  1.00  0.00     0.210 C 
ENDBRANCH  10  15
ENDBRANCH   1   5
BRANCH   2  17
HETATM   17  C   UNL     1       5.716  30.290  57.090  1.00  0.00     0.077 C 
HETATM   18  C   UNL     1       6.560  29.561  56.342  1.00  0.00     0.038 C 
BRANCH  18  19
HETATM   19  C   UNL     1       6.112  28.573  55.357  1.00  0.00     0.075 A 
HETATM   20  N   UNL     1       6.781  27.398  55.294  1.00  0.00    -0.245 NA
HETATM   21  C   UNL     1       6.336  26.487  54.405  1.00  0.00     0.086 A 
HETATM   22  C   UNL     1       5.230  26.755  53.559  1.00  0.00     0.085 A 
HETATM   23  C   UNL     1       6.969  25.253  54.316  1.00  0.00     0.034 A 
HETATM   24  N   UNL     1       4.575  27.930  53.616  1.00  0.00    -0.256 NA
HETATM   25  C   UNL     1       4.816  25.780  52.661  1.00  0.00     0.034 A 
HETATM   26  C   UNL     1       5.028  28.824  54.528  1.00  0.00     0.148 A 
HETATM   27  C   UNL     1       5.461  24.544  52.580  1.00  0.00     0.002 A 
HETATM   28  C   UNL     1       6.540  24.279  53.413  1.00  0.00     0.002 A 
ENDBRANCH  18  19
ENDBRANCH   2  17
TORSDOF 5
ENDMDL
MODEL 5
REMARK VINA RESULT:      -8.7      4.274      8.845
REMARK  5 active torsions:
REMARK  status: ('A' for Active; 'I' for Inactive)
REMARK    1  A    between atoms: C_2  and  C_3 
REMARK    2  A    between atoms: C_5  and  N_6 
REMARK       I    between atoms: N_6  and  C_7 
REMARK    3  A    between atoms: C_7  and  C_8 
REMARK    4  A    between atoms: C_9  and  C_10 
REMARK    5  A    between atoms: C_21  and  O_22 
ROOT
HETATM    1  N   UNL     1       6.093  25.410  53.557  1.00  0.00    -0.321 N 
HETATM    2  C   UNL     1       6.407  25.635  52.238  1.00  0.00     0.245 C 
HETATM    3  O   UNL     1       7.365  25.200  51.613  1.00  0.00    -0.268 OA
HETATM    4  H   UNL     1       5.196  25.732  53.905  1.00  0.00     0.169 HD
ENDROOT
BRANCH   1   5
HETATM    5  C   UNL     1       6.839  24.695  54.521  1.00  0.00     0.069 A 
HETATM    6  C   UNL     1       7.115  23.326  54.427  1.00  0.00     0.040 A 
HETATM    7  C   UNL     1       7.884  22.654  55.400  1.00  0.00    -0.048 A 
HETATM    8  C   UNL     1       8.361  23.412  56.480  1.00  0.00     0.011 A 
HETATM    9  C   UNL     1       8.094  24.782  56.587  1.00  0.00     0.039 A 
HETATM   10  C   UNL     1       7.339  25.432  55.611  1.00  0.00     0.095 A 
BRANCH   7  11
HETATM   11  C   UNL     1       8.186  21.152  55.238  1.00  0.00    -0.024 C 
HETATM   12  C   UNL     1       7.986  20.746  53.762  1.00  0.00     0.019 C 
HETATM   13  C   UNL     1       7.236  20.324  56.128  1.00  0.00     0.019 C 
HETATM   14  C   UNL     1       9.630  20.761  55.628  1.00  0.00     0.019 C 
ENDBRANCH   7  11
BRANCH  10  15
HETATM   15  O   UNL     1       7.026  26.772  55.616  1.00  0.00    -0.354 OA
HETATM   16  C   UNL     1       6.644  27.340  56.863  1.00  0.00     0.210 C 
ENDBRANCH  10  15
ENDBRANCH   1   5
BRANCH   2  17
HETATM   17  C   UNL     1       5.390  26.493  51.575  1.00  0.00     0.077 C 
HETATM   18  C   UNL     1       5.114  26.319  50.273  1.00  0.00     0.038 C 
BRANCH  18  19
HETATM   19  C   UNL     1       4.155  27.147  49.537  1.00  0.00     0.075 A 
HETATM   20  N   UNL     1       3.292  26.520  48.703  1.00  0.00    -0.245 NA
HETATM   21  C   UNL     1       2.395  27.293  48.058  1.00  0.00     0.086 A 
HETATM   22  C   UNL     1       2.368  28.700  48.230  1.00  0.00     0.085 A 
HETATM   23  C   UNL     1       1.468  26.700  47.209  1.00  0.00     0.034 A 
HETATM   24  N   UNL     1       3.236  29.320  49.051  1.00  0.00    -0.256 NA
HETATM   25  C   UNL     1       1.422  29.446  47.538  1.00  0.00     0.034 A 
HETATM   26  C   UNL     1       4.118  28.524  49.701  1.00  0.00     0.148 A 
HETATM   27  C   UNL     1       0.497  28.839  46.687  1.00  0.00     0.002 A 
HETATM   28  C   UNL     1       0.518  27.460  46.524  1.00  0.00     0.002 A 
ENDBRANCH  18  19
ENDBRANCH   2  17
TORSDOF 5
ENDMDL
MODEL 6
REMARK VINA RESULT:      -8.5      5.579      9.596
REMARK  5 active torsions:
REMARK  status: ('A' for Active; 'I' for Inactive)
REMARK    1  A    between atoms: C_2  and  C_3 
REMARK    2  A    between atoms: C_5  and  N_6 
REMARK       I    between atoms: N_6  and  C_7 
REMARK    3  A    between atoms: C_7  and  C_8 
REMARK    4  A    between atoms: C_9  and  C_10 
REMARK    5  A    between atoms: C_21  and  O_22 
ROOT
HETATM    1  N   UNL     1       5.755  27.393  49.995  1.00  0.00    -0.321 N 
HETATM    2  C   UNL     1       5.258  27.081  51.237  1.00  0.00     0.245 C 
HETATM    3  O   UNL     1       4.349  27.635  51.839  1.00  0.00    -0.268 OA
HETATM    4  H   UNL     1       6.427  26.764  49.567  1.00  0.00     0.169 HD
ENDROOT
BRANCH   1   5
HETATM    5  C   UNL     1       5.394  28.473  49.157  1.00  0.00     0.069 A 
HETATM    6  C   UNL     1       5.520  29.816  49.529  1.00  0.00     0.040 A 
HETATM    7  C   UNL     1       5.171  30.866  48.653  1.00  0.00    -0.048 A 
HETATM    8  C   UNL     1       4.680  30.513  47.388  1.00  0.00     0.011 A 
HETATM    9  C   UNL     1       4.549  29.173  47.001  1.00  0.00     0.039 A 
HETATM   10  C   UNL     1       4.908  28.148  47.876  1.00  0.00     0.095 A 
BRANCH   7  11
HETATM   11  C   UNL     1       5.355  32.329  49.097  1.00  0.00    -0.024 C 
HETATM   12  C   UNL     1       4.059  33.118  48.808  1.00  0.00     0.019 C 
HETATM   13  C   UNL     1       6.525  32.972  48.324  1.00  0.00     0.019 C 
HETATM   14  C   UNL     1       5.662  32.490  50.603  1.00  0.00     0.019 C 
ENDBRANCH   7  11
BRANCH  10  15
HETATM   15  O   UNL     1       4.826  26.803  47.595  1.00  0.00    -0.354 OA
HETATM   16  C   UNL     1       3.524  26.263  47.405  1.00  0.00     0.210 C 
ENDBRANCH  10  15
ENDBRANCH   1   5
BRANCH   2  17
HETATM   17  C   UNL     1       5.951  25.902  51.820  1.00  0.00     0.077 C 
HETATM   18  C   UNL     1       5.756  25.582  53.109  1.00  0.00     0.038 C 
BRANCH  18  19
HETATM   19  C   UNL     1       6.429  24.460  53.770  1.00  0.00     0.075 A 
HETATM   20  N   UNL     1       6.869  23.443  52.992  1.00  0.00    -0.245 NA
HETATM   21  C   UNL     1       7.516  22.435  53.612  1.00  0.00     0.086 A 
HETATM   22  C   UNL     1       7.710  22.430  55.016  1.00  0.00     0.085 A 
HETATM   23  C   UNL     1       8.012  21.377  52.859  1.00  0.00     0.034 A 
HETATM   24  N   UNL     1       7.260  23.438  55.787  1.00  0.00    -0.256 NA
HETATM   25  C   UNL     1       8.382  21.364  55.600  1.00  0.00     0.034 A 
HETATM   26  C   UNL     1       6.628  24.448  55.143  1.00  0.00     0.148 A 
HETATM   27  C   UNL     1       8.875  20.307  54.834  1.00  0.00     0.002 A 
HETATM   28  C   UNL     1       8.691  20.314  53.458  1.00  0.00     0.002 A 
ENDBRANCH  18  19
ENDBRANCH   2  17
TORSDOF 5
ENDMDL
MODEL 7
REMARK VINA RESULT:      -8.5      2.265      9.543
REMARK  5 active torsions:
REMARK  status: ('A' for Active; 'I' for Inactive)
REMARK    1  A    between atoms: C_2  and  C_3 
REMARK    2  A    between atoms: C_5  and  N_6 
REMARK       I    between atoms: N_6  and  C_7 
REMARK    3  A    between atoms: C_7  and  C_8 
REMARK    4  A    between atoms: C_9  and  C_10 
REMARK    5  A    between atoms: C_21  and  O_22 
ROOT
HETATM    1  N   UNL     1       7.142  29.077  56.908  1.00  0.00    -0.321 N 
HETATM    2  C   UNL     1       6.054  28.294  56.610  1.00  0.00     0.245 C 
HETATM    3  O   UNL     1       4.904  28.429  57.008  1.00  0.00    -0.268 OA
HETATM    4  H   UNL     1       8.008  28.920  56.402  1.00  0.00     0.169 HD
ENDROOT
BRANCH   1   5
HETATM    5  C   UNL     1       7.213  30.170  57.802  1.00  0.00     0.069 A 
HETATM    6  C   UNL     1       6.104  30.939  58.172  1.00  0.00     0.040 A 
HETATM    7  C   UNL     1       6.212  32.007  59.087  1.00  0.00    -0.048 A 
HETATM    8  C   UNL     1       7.484  32.279  59.613  1.00  0.00     0.011 A 
HETATM    9  C   UNL     1       8.603  31.517  59.252  1.00  0.00     0.039 A 
HETATM   10  C   UNL     1       8.476  30.459  58.353  1.00  0.00     0.095 A 
BRANCH   7  11
HETATM   11  C   UNL     1       4.958  32.807  59.486  1.00  0.00    -0.024 C 
HETATM   12  C   UNL     1       4.684  33.893  58.424  1.00  0.00     0.019 C 
HETATM   13  C   UNL     1       5.175  33.480  60.858  1.00  0.00     0.019 C 
HETATM   14  C   UNL     1       3.679  31.946  59.599  1.00  0.00     0.019 C 
ENDBRANCH   7  11
BRANCH  10  15
HETATM   15  O   UNL     1       9.505  29.645  57.939  1.00  0.00    -0.354 OA
HETATM   16  C   UNL     1      10.602  30.274  57.288  1.00  0.00     0.210 C 
ENDBRANCH  10  15
ENDBRANCH   1   5
BRANCH   2  17
HETATM   17  C   UNL     1       6.410  27.201  55.668  1.00  0.00     0.077 C 
HETATM   18  C   UNL     1       6.720  25.984  56.142  1.00  0.00     0.038 C 
BRANCH  18  19
HETATM   19  C   UNL     1       7.119  24.865  55.284  1.00  0.00     0.075 A 
HETATM   20  N   UNL     1       7.289  23.654  55.866  1.00  0.00    -0.245 NA
HETATM   21  C   UNL     1       7.624  22.628  55.058  1.00  0.00     0.086 A 
HETATM   22  C   UNL     1       7.810  22.812  53.664  1.00  0.00     0.085 A 
HETATM   23  C   UNL     1       7.786  21.358  55.598  1.00  0.00     0.034 A 
HETATM   24  N   UNL     1       7.652  24.020  53.091  1.00  0.00    -0.256 NA
HETATM   25  C   UNL     1       8.157  21.719  52.881  1.00  0.00     0.034 A 
HETATM   26  C   UNL     1       7.299  25.033  53.919  1.00  0.00     0.148 A 
HETATM   27  C   UNL     1       8.317  20.448  53.435  1.00  0.00     0.002 A 
HETATM   28  C   UNL     1       8.129  20.266  54.798  1.00  0.00     0.002 A 
ENDBRANCH  18  19
ENDBRANCH   2  17
TORSDOF 5
ENDMDL
MODEL 8
REMARK VINA RESULT:      -8.4      1.989      9.387
REMARK  5 active torsions:
REMARK  status: ('A' for Active; 'I' for Inactive)
REMARK    1  A    between atoms: C_2  and  C_3 
REMARK    2  A    between atoms: C_5  and  N_6 
REMARK       I    between atoms: N_6  and  C_7 
REMARK    3  A    between atoms: C_7  and  C_8 
REMARK    4  A    between atoms: C_9  and  C_10 
REMARK    5  A    between atoms: C_21  and  O_22 
ROOT
HETATM    1  N   UNL     1       7.527  28.480  57.459  1.00  0.00    -0.321 N 
HETATM    2  C   UNL     1       6.526  27.564  57.239  1.00  0.00     0.245 C 
HETATM    3  O   UNL     1       5.347  27.656  57.552  1.00  0.00    -0.268 OA
HETATM    4  H   UNL     1       8.433  28.324  57.028  1.00  0.00     0.169 HD
ENDROOT
BRANCH   1   5
HETATM    5  C   UNL     1       7.452  29.701  58.167  1.00  0.00     0.069 A 
HETATM    6  C   UNL     1       8.123  29.939  59.372  1.00  0.00     0.040 A 
HETATM    7  C   UNL     1       8.041  31.180  60.036  1.00  0.00    -0.048 A 
HETATM    8  C   UNL     1       7.249  32.176  59.445  1.00  0.00     0.011 A 
HETATM    9  C   UNL     1       6.572  31.953  58.240  1.00  0.00     0.039 A 
HETATM   10  C   UNL     1       6.672  30.722  57.592  1.00  0.00     0.095 A 
BRANCH   7  11
HETATM   11  C   UNL     1       8.822  31.405  61.345  1.00  0.00    -0.024 C 
HETATM   12  C   UNL     1       7.988  32.295  62.292  1.00  0.00     0.019 C 
HETATM   13  C   UNL     1      10.167  32.099  61.046  1.00  0.00     0.019 C 
HETATM   14  C   UNL     1       9.144  30.101  62.110  1.00  0.00     0.019 C 
ENDBRANCH   7  11
BRANCH  10  15
HETATM   15  O   UNL     1       6.056  30.401  56.404  1.00  0.00    -0.354 OA
HETATM   16  C   UNL     1       4.738  30.899  56.207  1.00  0.00     0.210 C 
ENDBRANCH  10  15
ENDBRANCH   1   5
BRANCH   2  17
HETATM   17  C   UNL     1       7.030  26.374  56.504  1.00  0.00     0.077 C 
HETATM   18  C   UNL     1       6.968  25.161  57.076  1.00  0.00     0.038 C 
BRANCH  18  19
HETATM   19  C   UNL     1       7.477  23.944  56.436  1.00  0.00     0.075 A 
HETATM   20  N   UNL     1       7.236  23.779  55.114  1.00  0.00    -0.245 NA
HETATM   21  C   UNL     1       7.739  22.671  54.535  1.00  0.00     0.086 A 
HETATM   22  C   UNL     1       8.471  21.711  55.278  1.00  0.00     0.085 A 
HETATM   23  C   UNL     1       7.545  22.463  53.174  1.00  0.00     0.034 A 
HETATM   24  N   UNL     1       8.698  21.873  56.596  1.00  0.00    -0.256 NA
HETATM   25  C   UNL     1       8.964  20.587  54.628  1.00  0.00     0.034 A 
HETATM   26  C   UNL     1       8.198  23.001  57.154  1.00  0.00     0.148 A 
HETATM   27  C   UNL     1       8.761  20.389  53.261  1.00  0.00     0.002 A 
HETATM   28  C   UNL     1       8.051  21.333  52.531  1.00  0.00     0.002 A 
ENDBRANCH  18  19
ENDBRANCH   2  17
TORSDOF 5
ENDMDL
MODEL 9
REMARK VINA RESULT:      -8.3      3.329     10.180
REMARK  5 active torsions:
REMARK  status: ('A' for Active; 'I' for Inactive)
REMARK    1  A    between atoms: C_2  and  C_3 
REMARK    2  A    between atoms: C_5  and  N_6 
REMARK       I    between atoms: N_6  and  C_7 
REMARK    3  A    between atoms: C_7  and  C_8 
REMARK    4  A    between atoms: C_9  and  C_10 
REMARK    5  A    between atoms: C_21  and  O_22 
ROOT
HETATM    1  N   UNL     1       5.645  31.524  59.281  1.00  0.00    -0.321 N 
HETATM    2  C   UNL     1       6.838  31.251  58.656  1.00  0.00     0.245 C 
HETATM    3  O   UNL     1       7.890  31.870  58.750  1.00  0.00    -0.268 OA
HETATM    4  H   UNL     1       4.892  30.848  59.207  1.00  0.00     0.169 HD
ENDROOT
BRANCH   1   5
HETATM    5  C   UNL     1       5.326  32.623  60.111  1.00  0.00     0.069 A 
HETATM    6  C   UNL     1       5.766  32.746  61.433  1.00  0.00     0.040 A 
HETATM    7  C   UNL     1       5.445  33.872  62.221  1.00  0.00    -0.048 A 
HETATM    8  C   UNL     1       4.655  34.868  61.630  1.00  0.00     0.011 A 
HETATM    9  C   UNL     1       4.207  34.758  60.307  1.00  0.00     0.039 A 
HETATM   10  C   UNL     1       4.542  33.643  59.540  1.00  0.00     0.095 A 
BRANCH   7  11
HETATM   11  C   UNL     1       5.977  33.977  63.663  1.00  0.00    -0.024 C 
HETATM   12  C   UNL     1       6.066  35.464  64.068  1.00  0.00     0.019 C 
HETATM   13  C   UNL     1       7.378  33.339  63.757  1.00  0.00     0.019 C 
HETATM   14  C   UNL     1       5.084  33.271  64.710  1.00  0.00     0.019 C 
ENDBRANCH   7  11
BRANCH  10  15
HETATM   15  O   UNL     1       4.163  33.441  58.232  1.00  0.00    -0.354 OA
HETATM   16  C   UNL     1       4.629  34.382  57.273  1.00  0.00     0.210 C 
ENDBRANCH  10  15
ENDBRANCH   1   5
BRANCH   2  17
HETATM   17  C   UNL     1       6.745  30.030  57.814  1.00  0.00     0.077 C 
HETATM   18  C   UNL     1       7.646  29.045  57.963  1.00  0.00     0.038 C 
BRANCH  18  19
HETATM   19  C   UNL     1       7.648  27.828  57.147  1.00  0.00     0.075 A 
HETATM   20  N   UNL     1       8.136  26.696  57.707  1.00  0.00    -0.245 NA
HETATM   21  C   UNL     1       8.100  25.577  56.954  1.00  0.00     0.086 A 
HETATM   22  C   UNL     1       7.592  25.589  55.631  1.00  0.00     0.085 A 
HETATM   23  C   UNL     1       8.565  24.381  57.487  1.00  0.00     0.034 A 
HETATM   24  N   UNL     1       7.117  26.719  55.074  1.00  0.00    -0.256 NA
HETATM   25  C   UNL     1       7.581  24.406  54.902  1.00  0.00     0.034 A 
HETATM   26  C   UNL     1       7.148  27.827  55.853  1.00  0.00     0.148 A 
HETATM   27  C   UNL     1       8.052  23.211  55.448  1.00  0.00     0.002 A 
HETATM   28  C   UNL     1       8.544  23.198  56.747  1.00  0.00     0.002 A 
ENDBRANCH  18  19
ENDBRANCH   2  17
TORSDOF 5
ENDMDL
MODEL 10
REMARK VINA RESULT:      -8.3      2.570      9.697
REMARK  5 active torsions:
REMARK  status: ('A' for Active; 'I' for Inactive)
REMARK    1  A    between atoms: C_2  and  C_3 
REMARK    2  A    between atoms: C_5  and  N_6 
REMARK       I    between atoms: N_6  and  C_7 
REMARK    3  A    between atoms: C_7  and  C_8 
REMARK    4  A    between atoms: C_9  and  C_10 
REMARK    5  A    between atoms: C_21  and  O_22 
ROOT
HETATM    1  N   UNL     1       7.023  30.207  58.407  1.00  0.00    -0.321 N 
HETATM    2  C   UNL     1       8.348  29.960  58.142  1.00  0.00     0.245 C 
HETATM    3  O   UNL     1       9.316  30.626  58.485  1.00  0.00    -0.268 OA
HETATM    4  H   UNL     1       6.338  29.497  58.168  1.00  0.00     0.169 HD
ENDROOT
BRANCH   1   5
HETATM    5  C   UNL     1       6.458  31.325  59.063  1.00  0.00     0.069 A 
HETATM    6  C   UNL     1       6.688  31.629  60.410  1.00  0.00     0.040 A 
HETATM    7  C   UNL     1       6.124  32.768  61.021  1.00  0.00    -0.048 A 
HETATM    8  C   UNL     1       5.311  33.589  60.227  1.00  0.00     0.011 A 
HETATM    9  C   UNL     1       5.072  33.298  58.877  1.00  0.00     0.039 A 
HETATM   10  C   UNL     1       5.645  32.173  58.287  1.00  0.00     0.095 A 
BRANCH   7  11
HETATM   11  C   UNL     1       6.429  33.077  62.499  1.00  0.00    -0.024 C 
HETATM   12  C   UNL     1       5.461  32.280  63.399  1.00  0.00     0.019 C 
HETATM   13  C   UNL     1       6.251  34.586  62.771  1.00  0.00     0.019 C 
HETATM   14  C   UNL     1       7.866  32.704  62.930  1.00  0.00     0.019 C 
ENDBRANCH   7  11
BRANCH  10  15
HETATM   15  O   UNL     1       5.483  31.800  56.972  1.00  0.00    -0.354 OA
HETATM   16  C   UNL     1       4.858  32.742  56.109  1.00  0.00     0.210 C 
ENDBRANCH  10  15
ENDBRANCH   1   5
BRANCH   2  17
HETATM   17  C   UNL     1       8.523  28.702  57.370  1.00  0.00     0.077 C 
HETATM   18  C   UNL     1       7.530  27.800  57.326  1.00  0.00     0.038 C 
BRANCH  18  19
HETATM   19  C   UNL     1       7.636  26.520  56.621  1.00  0.00     0.075 A 
HETATM   20  N   UNL     1       7.555  26.537  55.269  1.00  0.00    -0.245 NA
HETATM   21  C   UNL     1       7.688  25.355  54.634  1.00  0.00     0.086 A 
HETATM   22  C   UNL     1       7.884  24.146  55.349  1.00  0.00     0.085 A 
HETATM   23  C   UNL     1       7.639  25.317  53.246  1.00  0.00     0.034 A 
HETATM   24  N   UNL     1       7.952  24.132  56.693  1.00  0.00    -0.256 NA
HETATM   25  C   UNL     1       8.013  22.958  54.641  1.00  0.00     0.034 A 
HETATM   26  C   UNL     1       7.833  25.332  57.310  1.00  0.00     0.148 A 
HETATM   27  C   UNL     1       7.961  22.932  53.246  1.00  0.00     0.002 A 
HETATM   28  C   UNL     1       7.776  24.117  52.546  1.00  0.00     0.002 A 
ENDBRANCH  18  19
ENDBRANCH   2  17
TORSDOF 5
ENDMDL
