MODEL 1
REMARK VINA RESULT:      -8.7      0.000      0.000
REMARK  3 active torsions:
REMARK  status: ('A' for Active; 'I' for Inactive)
REMARK    1  A    between atoms: C_6  and  N_7 
REMARK       I    between atoms: N_7  and  C_8 
REMARK    2  A    between atoms: C_8  and  C_9 
REMARK    3  A    between atoms: C_9  and  C_10 
ROOT
HETATM    1  C   UNL     1       7.514  25.056  55.150  1.00  0.00     0.286 C 
HETATM    2  N   UNL     1       8.862  24.459  55.557  1.00  0.00    -0.056 N 
HETATM    3  H   UNL     1       9.565  24.866  54.925  1.00  0.00     0.278 HD
HETATM    4  H   UNL     1       9.134  24.858  56.481  1.00  0.00     0.278 HD
HETATM    5  C   UNL     1       9.013  22.970  55.514  1.00  0.00     0.209 C 
HETATM    6  C   UNL     1       8.469  22.445  54.167  1.00  0.00     0.115 C 
HETATM    7  N   UNL     1       7.115  22.926  53.906  1.00  0.00    -0.353 N 
HETATM    8  C   UNL     1       6.673  24.187  54.201  1.00  0.00     0.249 C 
HETATM    9  O   UNL     1       5.605  24.582  53.743  1.00  0.00    -0.271 OA
HETATM   10  C   UNL     1       8.337  22.318  56.721  1.00  0.00     0.035 C 
HETATM   11  C   UNL     1       8.445  20.796  56.642  1.00  0.00     0.002 C 
HETATM   12  C   UNL     1       7.872  20.261  55.331  1.00  0.00     0.002 C 
HETATM   13  C   UNL     1       8.527  20.915  54.114  1.00  0.00     0.027 C 
HETATM   14  H   UNL     1       6.546  22.450  53.208  1.00  0.00     0.163 HD
ENDROOT
BRANCH   1  15
HETATM   15  C   UNL     1       6.666  25.470  56.361  1.00  0.00     0.146 C 
BRANCH  15  16
HETATM   16  C   UNL     1       7.471  26.373  57.264  1.00  0.00     0.224 C 
HETATM   17  N   UNL     1       7.560  27.674  56.828  1.00  0.00    -0.327 N 
HETATM   18  H   UNL     1       7.060  27.928  55.981  1.00  0.00     0.169 HD
HETATM   19  O   UNL     1       7.940  25.892  58.296  1.00  0.00    -0.273 OA
BRANCH  17  20
HETATM   20  C   UNL     1       8.301  28.725  57.416  1.00  0.00     0.036 A 
HETATM   21  C   UNL     1       7.855  29.486  58.499  1.00  0.00     0.053 A 
HETATM   22  C   UNL     1       8.668  30.492  59.030  1.00  0.00     0.036 A 
HETATM   23  C   UNL     1       9.926  30.751  58.493  1.00  0.00     0.024 A 
HETATM   24 CL   UNL     1       8.107  31.416  60.371  1.00  0.00    -0.084 Cl
HETATM   25  C   UNL     1      10.376  30.001  57.410  1.00  0.00     0.004 A 
HETATM   26  C   UNL     1       9.566  28.995  56.875  1.00  0.00     0.029 A 
ENDBRANCH  17  20
ENDBRANCH  15  16
ENDBRANCH   1  15
TORSDOF 3
ENDMDL
MODEL 2
REMARK VINA RESULT:      -8.4      3.413      7.325
REMARK  3 active torsions:
REMARK  status: ('A' for Active; 'I' for Inactive)
REMARK    1  A    between atoms: C_6  and  N_7 
REMARK       I    between atoms: N_7  and  C_8 
REMARK    2  A    between atoms: C_8  and  C_9 
REMARK    3  A    between atoms: C_9  and  C_10 
ROOT
HETATM    1  C   UNL     1       5.324  27.073  52.945  1.00  0.00     0.286 C 
HETATM    2  N   UNL     1       4.984  26.604  54.361  1.00  0.00    -0.056 N 
HETATM    3  H   UNL     1       3.960  26.647  54.445  1.00  0.00     0.278 HD
HETATM    4  H   UNL     1       5.172  25.581  54.424  1.00  0.00     0.278 HD
HETATM    5  C   UNL     1       5.572  27.362  55.512  1.00  0.00     0.209 C 
HETATM    6  C   UNL     1       5.365  28.875  55.279  1.00  0.00     0.115 C 
HETATM    7  N   UNL     1       5.851  29.292  53.967  1.00  0.00    -0.353 N 
HETATM    8  C   UNL     1       5.712  28.555  52.822  1.00  0.00     0.249 C 
HETATM    9  O   UNL     1       5.937  29.073  51.732  1.00  0.00    -0.271 OA
HETATM   10  C   UNL     1       7.039  26.988  55.719  1.00  0.00     0.035 C 
HETATM   11  C   UNL     1       7.648  27.806  56.856  1.00  0.00     0.002 C 
HETATM   12  C   UNL     1       7.487  29.306  56.618  1.00  0.00     0.002 C 
HETATM   13  C   UNL     1       6.025  29.693  56.394  1.00  0.00     0.027 C 
HETATM   14  H   UNL     1       6.027  30.280  53.794  1.00  0.00     0.163 HD
ENDROOT
BRANCH   1  15
HETATM   15  C   UNL     1       6.398  26.200  52.280  1.00  0.00     0.146 C 
BRANCH  15  16
HETATM   16  C   UNL     1       6.323  24.794  52.824  1.00  0.00     0.224 C 
HETATM   17  N   UNL     1       7.522  24.301  53.282  1.00  0.00    -0.327 N 
HETATM   18  H   UNL     1       8.330  24.915  53.258  1.00  0.00     0.169 HD
HETATM   19  O   UNL     1       5.226  24.235  52.838  1.00  0.00    -0.273 OA
BRANCH  17  20
HETATM   20  C   UNL     1       7.780  23.001  53.776  1.00  0.00     0.036 A 
HETATM   21  C   UNL     1       7.910  22.690  55.131  1.00  0.00     0.053 A 
HETATM   22  C   UNL     1       8.143  21.370  55.528  1.00  0.00     0.036 A 
HETATM   23  C   UNL     1       8.249  20.350  54.586  1.00  0.00     0.024 A 
HETATM   24 CL   UNL     1       8.292  21.001  57.203  1.00  0.00    -0.084 Cl
HETATM   25  C   UNL     1       8.126  20.652  53.233  1.00  0.00     0.004 A 
HETATM   26  C   UNL     1       7.894  21.971  52.832  1.00  0.00     0.029 A 
ENDBRANCH  17  20
ENDBRANCH  15  16
ENDBRANCH   1  15
TORSDOF 3
ENDMDL
MODEL 3
REMARK VINA RESULT:      -8.3      2.039      3.099
REMARK  3 active torsions:
REMARK  status: ('A' for Active; 'I' for Inactive)
REMARK    1  A    between atoms: C_6  and  N_7 
REMARK       I    between atoms: N_7  and  C_8 
REMARK    2  A    between atoms: C_8  and  C_9 
REMARK    3  A    between atoms: C_9  and  C_10 
ROOT
HETATM    1  C   UNL     1       7.295  25.616  56.968  1.00  0.00     0.286 C 
HETATM    2  N   UNL     1       6.262  25.271  55.893  1.00  0.00    -0.056 N 
HETATM    3  H   UNL     1       5.431  24.922  56.389  1.00  0.00     0.278 HD
HETATM    4  H   UNL     1       5.915  26.159  55.471  1.00  0.00     0.278 HD
HETATM    5  C   UNL     1       6.639  24.258  54.856  1.00  0.00     0.209 C 
HETATM    6  C   UNL     1       7.263  23.029  55.553  1.00  0.00     0.115 C 
HETATM    7  N   UNL     1       8.348  23.410  56.453  1.00  0.00    -0.353 N 
HETATM    8  C   UNL     1       8.337  24.522  57.250  1.00  0.00     0.249 C 
HETATM    9  O   UNL     1       9.175  24.645  58.138  1.00  0.00    -0.271 OA
HETATM   10  C   UNL     1       7.560  24.873  53.803  1.00  0.00     0.035 C 
HETATM   11  C   UNL     1       7.986  23.821  52.780  1.00  0.00     0.002 C 
HETATM   12  C   UNL     1       8.642  22.618  53.454  1.00  0.00     0.002 C 
HETATM   13  C   UNL     1       7.739  22.001  54.522  1.00  0.00     0.027 C 
HETATM   14  H   UNL     1       9.011  22.699  56.757  1.00  0.00     0.163 HD
ENDROOT
BRANCH   1  15
HETATM   15  C   UNL     1       8.005  26.949  56.692  1.00  0.00     0.146 C 
BRANCH  15  16
HETATM   16  C   UNL     1       7.325  28.059  57.456  1.00  0.00     0.224 C 
HETATM   17  N   UNL     1       8.184  29.006  57.960  1.00  0.00    -0.327 N 
HETATM   18  H   UNL     1       9.174  28.912  57.752  1.00  0.00     0.169 HD
HETATM   19  O   UNL     1       6.096  28.039  57.537  1.00  0.00    -0.273 OA
BRANCH  17  20
HETATM   20  C   UNL     1       7.854  30.115  58.774  1.00  0.00     0.036 A 
HETATM   21  C   UNL     1       8.500  30.426  59.972  1.00  0.00     0.053 A 
HETATM   22  C   UNL     1       8.120  31.558  60.700  1.00  0.00     0.036 A 
HETATM   23  C   UNL     1       7.098  32.387  60.247  1.00  0.00     0.024 A 
HETATM   24 CL   UNL     1       8.932  31.932  62.172  1.00  0.00    -0.084 Cl
HETATM   25  C   UNL     1       6.445  32.082  59.056  1.00  0.00     0.004 A 
HETATM   26  C   UNL     1       6.821  30.951  58.325  1.00  0.00     0.029 A 
ENDBRANCH  17  20
ENDBRANCH  15  16
ENDBRANCH   1  15
TORSDOF 3
ENDMDL
MODEL 4
REMARK VINA RESULT:      -8.2      5.859      8.461
REMARK  3 active torsions:
REMARK  status: ('A' for Active; 'I' for Inactive)
REMARK    1  A    between atoms: C_6  and  N_7 
REMARK       I    between atoms: N_7  and  C_8 
REMARK    2  A    between atoms: C_8  and  C_9 
REMARK    3  A    between atoms: C_9  and  C_10 
ROOT
HETATM    1  C   UNL     1       5.096  27.360  51.030  1.00  0.00     0.286 C 
HETATM    2  N   UNL     1       5.571  26.882  49.657  1.00  0.00    -0.056 N 
HETATM    3  H   UNL     1       6.347  27.499  49.384  1.00  0.00     0.278 HD
HETATM    4  H   UNL     1       6.047  25.962  49.774  1.00  0.00     0.278 HD
HETATM    5  C   UNL     1       4.577  26.869  48.536  1.00  0.00     0.209 C 
HETATM    6  C   UNL     1       3.825  28.218  48.511  1.00  0.00     0.115 C 
HETATM    7  N   UNL     1       3.261  28.547  49.818  1.00  0.00    -0.353 N 
HETATM    8  C   UNL     1       3.889  28.311  51.011  1.00  0.00     0.249 C 
HETATM    9  O   UNL     1       3.456  28.823  52.039  1.00  0.00    -0.271 OA
HETATM   10  C   UNL     1       3.639  25.668  48.653  1.00  0.00     0.035 C 
HETATM   11  C   UNL     1       2.593  25.692  47.540  1.00  0.00     0.002 C 
HETATM   12  C   UNL     1       1.813  27.005  47.531  1.00  0.00     0.002 C 
HETATM   13  C   UNL     1       2.739  28.216  47.430  1.00  0.00     0.027 C 
HETATM   14  H   UNL     1       2.527  29.249  49.878  1.00  0.00     0.163 HD
ENDROOT
BRANCH   1  15
HETATM   15  C   UNL     1       4.824  26.197  51.995  1.00  0.00     0.146 C 
BRANCH  15  16
HETATM   16  C   UNL     1       6.117  25.485  52.315  1.00  0.00     0.224 C 
HETATM   17  N   UNL     1       5.984  24.451  53.211  1.00  0.00    -0.327 N 
HETATM   18  H   UNL     1       5.052  24.226  53.546  1.00  0.00     0.169 HD
HETATM   19  O   UNL     1       7.142  25.860  51.745  1.00  0.00    -0.273 OA
BRANCH  17  20
HETATM   20  C   UNL     1       7.017  23.654  53.756  1.00  0.00     0.036 A 
HETATM   21  C   UNL     1       7.452  22.449  53.201  1.00  0.00     0.053 A 
HETATM   22  C   UNL     1       8.498  21.739  53.798  1.00  0.00     0.036 A 
HETATM   23  C   UNL     1       9.120  22.217  54.948  1.00  0.00     0.024 A 
HETATM   24 CL   UNL     1       9.028  20.259  53.095  1.00  0.00    -0.084 Cl
HETATM   25  C   UNL     1       8.689  23.415  55.512  1.00  0.00     0.004 A 
HETATM   26  C   UNL     1       7.643  24.127  54.919  1.00  0.00     0.029 A 
ENDBRANCH  17  20
ENDBRANCH  15  16
ENDBRANCH   1  15
TORSDOF 3
ENDMDL
MODEL 5
REMARK VINA RESULT:      -8.2      5.403      7.518
REMARK  3 active torsions:
REMARK  status: ('A' for Active; 'I' for Inactive)
REMARK    1  A    between atoms: C_6  and  N_7 
REMARK       I    between atoms: N_7  and  C_8 
REMARK    2  A    between atoms: C_8  and  C_9 
REMARK    3  A    between atoms: C_9  and  C_10 
ROOT
HETATM    1  C   UNL     1       5.959  27.069  54.504  1.00  0.00     0.286 C 
HETATM    2  N   UNL     1       5.196  25.806  54.100  1.00  0.00    -0.056 N 
HETATM    3  H   UNL     1       4.409  25.718  54.756  1.00  0.00     0.278 HD
HETATM    4  H   UNL     1       4.714  25.986  53.194  1.00  0.00     0.278 HD
HETATM    5  C   UNL     1       5.941  24.506  54.099  1.00  0.00     0.209 C 
HETATM    6  C   UNL     1       6.731  24.374  55.420  1.00  0.00     0.115 C 
HETATM    7  N   UNL     1       7.560  25.548  55.673  1.00  0.00    -0.353 N 
HETATM    8  C   UNL     1       7.178  26.836  55.410  1.00  0.00     0.249 C 
HETATM    9  O   UNL     1       7.831  27.771  55.863  1.00  0.00    -0.271 OA
HETATM   10  C   UNL     1       6.830  24.388  52.861  1.00  0.00     0.035 C 
HETATM   11  C   UNL     1       7.630  23.087  52.894  1.00  0.00     0.002 C 
HETATM   12  C   UNL     1       8.448  22.964  54.178  1.00  0.00     0.002 C 
HETATM   13  C   UNL     1       7.574  23.095  55.425  1.00  0.00     0.027 C 
HETATM   14  H   UNL     1       8.322  25.481  56.346  1.00  0.00     0.163 HD
ENDROOT
BRANCH   1  15
HETATM   15  C   UNL     1       6.369  27.918  53.292  1.00  0.00     0.146 C 
BRANCH  15  16
HETATM   16  C   UNL     1       5.326  27.801  52.208  1.00  0.00     0.224 C 
HETATM   17  N   UNL     1       5.819  27.389  50.992  1.00  0.00    -0.327 N 
HETATM   18  H   UNL     1       6.807  27.163  50.929  1.00  0.00     0.169 HD
HETATM   19  O   UNL     1       4.156  28.048  52.500  1.00  0.00    -0.273 OA
BRANCH  17  20
HETATM   20  C   UNL     1       5.104  27.258  49.778  1.00  0.00     0.036 A 
HETATM   21  C   UNL     1       4.409  26.109  49.399  1.00  0.00     0.053 A 
HETATM   22  C   UNL     1       3.710  26.079  48.189  1.00  0.00     0.036 A 
HETATM   23  C   UNL     1       3.695  27.188  47.346  1.00  0.00     0.024 A 
HETATM   24 CL   UNL     1       2.851  24.656  47.739  1.00  0.00    -0.084 Cl
HETATM   25  C   UNL     1       4.390  28.337  47.715  1.00  0.00     0.004 A 
HETATM   26  C   UNL     1       5.091  28.370  48.923  1.00  0.00     0.029 A 
ENDBRANCH  17  20
ENDBRANCH  15  16
ENDBRANCH   1  15
TORSDOF 3
ENDMDL
MODEL 6
REMARK VINA RESULT:      -8.2     10.722     13.805
REMARK  3 active torsions:
REMARK  status: ('A' for Active; 'I' for Inactive)
REMARK    1  A    between atoms: C_6  and  N_7 
REMARK       I    between atoms: N_7  and  C_8 
REMARK    2  A    between atoms: C_8  and  C_9 
REMARK    3  A    between atoms: C_9  and  C_10 
ROOT
HETATM    1  C   UNL     1       4.152  35.012  65.080  1.00  0.00     0.286 C 
HETATM    2  N   UNL     1       5.585  35.528  64.939  1.00  0.00    -0.056 N 
HETATM    3  H   UNL     1       5.516  36.485  64.568  1.00  0.00     0.278 HD
HETATM    4  H   UNL     1       5.975  35.684  65.893  1.00  0.00     0.278 HD
HETATM    5  C   UNL     1       6.524  34.760  64.060  1.00  0.00     0.209 C 
HETATM    6  C   UNL     1       5.825  34.456  62.716  1.00  0.00     0.115 C 
HETATM    7  N   UNL     1       4.525  33.823  62.914  1.00  0.00    -0.353 N 
HETATM    8  C   UNL     1       3.644  34.160  63.906  1.00  0.00     0.249 C 
HETATM    9  O   UNL     1       2.489  33.747  63.863  1.00  0.00    -0.271 OA
HETATM   10  C   UNL     1       7.025  33.500  64.766  1.00  0.00     0.035 C 
HETATM   11  C   UNL     1       7.937  32.693  63.844  1.00  0.00     0.002 C 
HETATM   12  C   UNL     1       7.242  32.350  62.528  1.00  0.00     0.002 C 
HETATM   13  C   UNL     1       6.722  33.599  61.817  1.00  0.00     0.027 C 
HETATM   14  H   UNL     1       4.090  33.330  62.136  1.00  0.00     0.163 HD
ENDROOT
BRANCH   1  15
HETATM   15  C   UNL     1       3.926  34.262  66.401  1.00  0.00     0.146 C 
BRANCH  15  16
HETATM   16  C   UNL     1       4.894  34.761  67.445  1.00  0.00     0.224 C 
HETATM   17  N   UNL     1       5.631  33.772  68.051  1.00  0.00    -0.327 N 
HETATM   18  H   UNL     1       5.502  32.816  67.731  1.00  0.00     0.169 HD
HETATM   19  O   UNL     1       4.960  35.975  67.640  1.00  0.00    -0.273 OA
BRANCH  17  20
HETATM   20  C   UNL     1       6.557  33.921  69.110  1.00  0.00     0.036 A 
HETATM   21  C   UNL     1       6.597  33.098  70.237  1.00  0.00     0.053 A 
HETATM   22  C   UNL     1       7.565  33.307  71.224  1.00  0.00     0.036 A 
HETATM   23  C   UNL     1       8.499  34.332  71.101  1.00  0.00     0.024 A 
HETATM   24 CL   UNL     1       7.605  32.279  72.604  1.00  0.00    -0.084 Cl
HETATM   25  C   UNL     1       8.464  35.160  69.982  1.00  0.00     0.004 A 
HETATM   26  C   UNL     1       7.497  34.955  68.994  1.00  0.00     0.029 A 
ENDBRANCH  17  20
ENDBRANCH  15  16
ENDBRANCH   1  15
TORSDOF 3
ENDMDL
MODEL 7
REMARK VINA RESULT:      -7.8      5.159      7.278
REMARK  3 active torsions:
REMARK  status: ('A' for Active; 'I' for Inactive)
REMARK    1  A    between atoms: C_6  and  N_7 
REMARK       I    between atoms: N_7  and  C_8 
REMARK    2  A    between atoms: C_8  and  C_9 
REMARK    3  A    between atoms: C_9  and  C_10 
ROOT
HETATM    1  C   UNL     1       5.433  27.118  50.844  1.00  0.00     0.286 C 
HETATM    2  N   UNL     1       5.549  27.209  49.322  1.00  0.00    -0.056 N 
HETATM    3  H   UNL     1       6.176  27.999  49.123  1.00  0.00     0.278 HD
HETATM    4  H   UNL     1       6.102  26.392  48.984  1.00  0.00     0.278 HD
HETATM    5  C   UNL     1       4.292  27.409  48.532  1.00  0.00     0.209 C 
HETATM    6  C   UNL     1       3.468  28.548  49.173  1.00  0.00     0.115 C 
HETATM    7  N   UNL     1       3.259  28.327  50.602  1.00  0.00    -0.353 N 
HETATM    8  C   UNL     1       4.202  27.812  51.450  1.00  0.00     0.249 C 
HETATM    9  O   UNL     1       4.030  27.874  52.663  1.00  0.00    -0.271 OA
HETATM   10  C   UNL     1       3.507  26.103  48.416  1.00  0.00     0.035 C 
HETATM   11  C   UNL     1       2.199  26.326  47.659  1.00  0.00     0.002 C 
HETATM   12  C   UNL     1       1.356  27.423  48.308  1.00  0.00     0.002 C 
HETATM   13  C   UNL     1       2.133  28.731  48.445  1.00  0.00     0.027 C 
HETATM   14  H   UNL     1       2.521  28.840  51.079  1.00  0.00     0.163 HD
ENDROOT
BRANCH   1  15
HETATM   15  C   UNL     1       5.516  25.672  51.354  1.00  0.00     0.146 C 
BRANCH  15  16
HETATM   16  C   UNL     1       6.575  25.567  52.424  1.00  0.00     0.224 C 
HETATM   17  N   UNL     1       6.100  25.715  53.706  1.00  0.00    -0.327 N 
HETATM   18  H   UNL     1       5.100  25.838  53.833  1.00  0.00     0.169 HD
HETATM   19  O   UNL     1       7.733  25.337  52.073  1.00  0.00    -0.273 OA
BRANCH  17  20
HETATM   20  C   UNL     1       6.855  25.739  54.901  1.00  0.00     0.036 A 
HETATM   21  C   UNL     1       7.270  26.908  55.542  1.00  0.00     0.053 A 
HETATM   22  C   UNL     1       7.995  26.834  56.735  1.00  0.00     0.036 A 
HETATM   23  C   UNL     1       8.314  25.603  57.301  1.00  0.00     0.024 A 
HETATM   24 CL   UNL     1       8.491  28.286  57.517  1.00  0.00    -0.084 Cl
HETATM   25  C   UNL     1       7.909  24.432  56.666  1.00  0.00     0.004 A 
HETATM   26  C   UNL     1       7.185  24.501  55.472  1.00  0.00     0.029 A 
ENDBRANCH  17  20
ENDBRANCH  15  16
ENDBRANCH   1  15
TORSDOF 3
ENDMDL
MODEL 8
REMARK VINA RESULT:      -7.7      6.292     11.043
REMARK  3 active torsions:
REMARK  status: ('A' for Active; 'I' for Inactive)
REMARK    1  A    between atoms: C_6  and  N_7 
REMARK       I    between atoms: N_7  and  C_8 
REMARK    2  A    between atoms: C_8  and  C_9 
REMARK    3  A    between atoms: C_9  and  C_10 
ROOT
HETATM    1  C   UNL     1       5.926  32.699  62.068  1.00  0.00     0.286 C 
HETATM    2  N   UNL     1       6.813  33.777  62.695  1.00  0.00    -0.056 N 
HETATM    3  H   UNL     1       7.650  33.296  63.050  1.00  0.00     0.278 HD
HETATM    4  H   UNL     1       7.202  34.370  61.931  1.00  0.00     0.278 HD
HETATM    5  C   UNL     1       6.241  34.593  63.813  1.00  0.00     0.209 C 
HETATM    6  C   UNL     1       5.571  33.649  64.837  1.00  0.00     0.115 C 
HETATM    7  N   UNL     1       4.619  32.746  64.197  1.00  0.00    -0.353 N 
HETATM    8  C   UNL     1       4.815  32.154  62.978  1.00  0.00     0.249 C 
HETATM    9  O   UNL     1       4.082  31.237  62.621  1.00  0.00    -0.271 OA
HETATM   10  C   UNL     1       5.288  35.660  63.277  1.00  0.00     0.035 C 
HETATM   11  C   UNL     1       4.665  36.452  64.426  1.00  0.00     0.002 C 
HETATM   12  C   UNL     1       3.962  35.533  65.424  1.00  0.00     0.002 C 
HETATM   13  C   UNL     1       4.900  34.450  65.957  1.00  0.00     0.027 C 
HETATM   14  H   UNL     1       3.922  32.274  64.770  1.00  0.00     0.163 HD
ENDROOT
BRANCH   1  15
HETATM   15  C   UNL     1       5.326  33.142  60.725  1.00  0.00     0.146 C 
BRANCH  15  16
HETATM   16  C   UNL     1       6.135  32.568  59.588  1.00  0.00     0.224 C 
HETATM   17  N   UNL     1       7.052  31.618  59.972  1.00  0.00    -0.327 N 
HETATM   18  H   UNL     1       7.085  31.354  60.952  1.00  0.00     0.169 HD
HETATM   19  O   UNL     1       5.896  32.964  58.448  1.00  0.00    -0.273 OA
BRANCH  17  20
HETATM   20  C   UNL     1       7.997  30.959  59.150  1.00  0.00     0.036 A 
HETATM   21  C   UNL     1       7.775  29.726  58.536  1.00  0.00     0.053 A 
HETATM   22  C   UNL     1       8.761  29.161  57.721  1.00  0.00     0.036 A 
HETATM   23  C   UNL     1       9.972  29.815  57.509  1.00  0.00     0.024 A 
HETATM   24 CL   UNL     1       8.469  27.642  56.964  1.00  0.00    -0.084 Cl
HETATM   25  C   UNL     1      10.203  31.043  58.122  1.00  0.00     0.004 A 
HETATM   26  C   UNL     1       9.221  31.610  58.939  1.00  0.00     0.029 A 
ENDBRANCH  17  20
ENDBRANCH  15  16
ENDBRANCH   1  15
TORSDOF 3
ENDMDL
MODEL 9
REMARK VINA RESULT:      -7.4      6.731     11.067
REMARK  3 active torsions:
REMARK  status: ('A' for Active; 'I' for Inactive)
REMARK    1  A    between atoms: C_6  and  N_7 
REMARK       I    between atoms: N_7  and  C_8 
REMARK    2  A    between atoms: C_8  and  C_9 
REMARK    3  A    between atoms: C_9  and  C_10 
ROOT
HETATM    1  C   UNL     1       3.606  33.835  62.248  1.00  0.00     0.286 C 
HETATM    2  N   UNL     1       4.130  32.527  62.843  1.00  0.00    -0.056 N 
HETATM    3  H   UNL     1       3.333  32.080  63.315  1.00  0.00     0.278 HD
HETATM    4  H   UNL     1       4.329  31.865  62.062  1.00  0.00     0.278 HD
HETATM    5  C   UNL     1       5.261  32.605  63.823  1.00  0.00     0.209 C 
HETATM    6  C   UNL     1       4.948  33.696  64.870  1.00  0.00     0.115 C 
HETATM    7  N   UNL     1       4.603  34.967  64.240  1.00  0.00    -0.353 N 
HETATM    8  C   UNL     1       3.844  35.087  63.107  1.00  0.00     0.249 C 
HETATM    9  O   UNL     1       3.409  36.186  62.777  1.00  0.00    -0.271 OA
HETATM   10  C   UNL     1       6.590  32.835  63.105  1.00  0.00     0.035 C 
HETATM   11  C   UNL     1       7.731  32.970  64.112  1.00  0.00     0.002 C 
HETATM   12  C   UNL     1       7.452  34.076  65.129  1.00  0.00     0.002 C 
HETATM   13  C   UNL     1       6.118  33.867  65.845  1.00  0.00     0.027 C 
HETATM   14  H   UNL     1       4.643  35.821  64.793  1.00  0.00     0.163 HD
ENDROOT
BRANCH   1  15
HETATM   15  C   UNL     1       4.120  34.079  60.822  1.00  0.00     0.146 C 
BRANCH  15  16
HETATM   16  C   UNL     1       4.518  32.767  60.191  1.00  0.00     0.224 C 
HETATM   17  N   UNL     1       5.829  32.713  59.778  1.00  0.00    -0.327 N 
HETATM   18  H   UNL     1       6.420  33.519  59.961  1.00  0.00     0.169 HD
HETATM   19  O   UNL     1       3.672  31.874  60.125  1.00  0.00    -0.273 OA
BRANCH  17  20
HETATM   20  C   UNL     1       6.468  31.655  59.091  1.00  0.00     0.036 A 
HETATM   21  C   UNL     1       6.034  31.141  57.868  1.00  0.00     0.053 A 
HETATM   22  C   UNL     1       6.744  30.107  57.251  1.00  0.00     0.036 A 
HETATM   23  C   UNL     1       7.887  29.575  57.841  1.00  0.00     0.024 A 
HETATM   24 CL   UNL     1       6.200  29.489  55.738  1.00  0.00    -0.084 Cl
HETATM   25  C   UNL     1       8.324  30.078  59.063  1.00  0.00     0.004 A 
HETATM   26  C   UNL     1       7.616  31.111  59.685  1.00  0.00     0.029 A 
ENDBRANCH  17  20
ENDBRANCH  15  16
ENDBRANCH   1  15
TORSDOF 3
ENDMDL
MODEL 10
REMARK VINA RESULT:      -7.3      6.440      9.014
REMARK  3 active torsions:
REMARK  status: ('A' for Active; 'I' for Inactive)
REMARK    1  A    between atoms: C_6  and  N_7 
REMARK       I    between atoms: N_7  and  C_8 
REMARK    2  A    between atoms: C_8  and  C_9 
REMARK    3  A    between atoms: C_9  and  C_10 
ROOT
HETATM    1  C   UNL     1       4.169  26.905  49.427  1.00  0.00     0.286 C 
HETATM    2  N   UNL     1       3.078  27.783  50.042  1.00  0.00    -0.056 N 
HETATM    3  H   UNL     1       2.235  27.199  50.108  1.00  0.00     0.278 HD
HETATM    4  H   UNL     1       3.315  27.950  51.044  1.00  0.00     0.278 HD
HETATM    5  C   UNL     1       2.709  29.047  49.328  1.00  0.00     0.209 C 
HETATM    6  C   UNL     1       2.503  28.739  47.828  1.00  0.00     0.115 C 
HETATM    7  N   UNL     1       3.647  28.033  47.259  1.00  0.00    -0.353 N 
HETATM    8  C   UNL     1       4.354  27.057  47.908  1.00  0.00     0.249 C 
HETATM    9  O   UNL     1       5.145  26.358  47.283  1.00  0.00    -0.271 OA
HETATM   10  C   UNL     1       3.753  30.137  49.572  1.00  0.00     0.035 C 
HETATM   11  C   UNL     1       3.400  31.404  48.796  1.00  0.00     0.002 C 
HETATM   12  C   UNL     1       3.234  31.120  47.304  1.00  0.00     0.002 C 
HETATM   13  C   UNL     1       2.203  30.021  47.045  1.00  0.00     0.027 C 
HETATM   14  H   UNL     1       3.763  28.013  46.247  1.00  0.00     0.163 HD
ENDROOT
BRANCH   1  15
HETATM   15  C   UNL     1       5.523  27.069  50.132  1.00  0.00     0.146 C 
BRANCH  15  16
HETATM   16  C   UNL     1       5.672  26.017  51.204  1.00  0.00     0.224 C 
HETATM   17  N   UNL     1       6.891  26.028  51.840  1.00  0.00    -0.327 N 
HETATM   18  H   UNL     1       7.560  26.746  51.577  1.00  0.00     0.169 HD
HETATM   19  O   UNL     1       4.712  25.280  51.431  1.00  0.00    -0.273 OA
BRANCH  17  20
HETATM   20  C   UNL     1       7.350  25.125  52.827  1.00  0.00     0.036 A 
HETATM   21  C   UNL     1       7.343  25.392  54.197  1.00  0.00     0.053 A 
HETATM   22  C   UNL     1       7.796  24.427  55.102  1.00  0.00     0.036 A 
HETATM   23  C   UNL     1       8.259  23.193  54.656  1.00  0.00     0.024 A 
HETATM   24 CL   UNL     1       7.773  24.770  56.789  1.00  0.00    -0.084 Cl
HETATM   25  C   UNL     1       8.274  22.919  53.291  1.00  0.00     0.004 A 
HETATM   26  C   UNL     1       7.823  23.881  52.382  1.00  0.00     0.029 A 
ENDBRANCH  17  20
ENDBRANCH  15  16
ENDBRANCH   1  15
TORSDOF 3
ENDMDL
