MODEL 1
REMARK VINA RESULT:      -9.4      0.000      0.000
REMARK  8 active torsions:
REMARK  status: ('A' for Active; 'I' for Inactive)
REMARK    1  A    between atoms: N_2  and  C_4 
REMARK    2  A    between atoms: N_2  and  C_10 
REMARK    3  A    between atoms: C_10  and  C_11 
REMARK    4  A    between atoms: C_12  and  N_13 
REMARK    5  A    between atoms: N_13  and  C_14 
REMARK    6  A    between atoms: C_14  and  C_15 
REMARK       I    between atoms: C_15  and  N_16 
REMARK    7  A    between atoms: N_16  and  N_17 
REMARK       I    between atoms: N_17  and  C_18 
REMARK    8  A    between atoms: C_18  and  C_19 
ROOT
HETATM    1  N   UNL     1       6.814  29.393  58.109  1.00  0.00    -0.284 NA
HETATM    2  H   UNL     1       5.947  29.947  58.159  1.00  0.00     0.128 HD
ENDROOT
BRANCH   1   3
HETATM    3  C   UNL     1       7.883  30.226  58.506  1.00  0.00     0.016 A 
HETATM    4  C   UNL     1       7.586  31.395  59.247  1.00  0.00    -0.011 A 
HETATM    5  C   UNL     1       8.617  32.294  59.580  1.00  0.00     0.011 A 
HETATM    6  C   UNL     1       9.929  32.047  59.187  1.00  0.00     0.001 A 
HETATM    7  C   UNL     1      10.222  30.910  58.447  1.00  0.00     0.002 A 
HETATM    8  C   UNL     1       9.208  30.015  58.097  1.00  0.00     0.024 A 
BRANCH   4   9
HETATM    9  C   UNL     1       6.175  31.731  59.678  1.00  0.00     0.275 C 
BRANCH   9  10
HETATM   10  N   UNL     1       6.064  32.674  60.869  1.00  0.00    -0.067 N 
HETATM   11  C   UNL     1       5.040  33.752  60.593  1.00  0.00     0.270 C 
HETATM   12  H   UNL     1       6.988  33.146  60.862  1.00  0.00     0.280 HD
BRANCH  10  13
HETATM   13  C   UNL     1       5.827  31.969  62.208  1.00  0.00     0.188 C 
HETATM   14  C   UNL     1       7.083  31.254  62.737  1.00  0.00     0.033 C 
HETATM   15  C   UNL     1       8.194  32.219  63.139  1.00  0.00     0.002 C 
HETATM   16  C   UNL     1       7.704  33.248  64.155  1.00  0.00     0.000 C 
HETATM   17  C   UNL     1       6.434  33.959  63.693  1.00  0.00     0.002 C 
HETATM   18  C   UNL     1       5.350  32.960  63.287  1.00  0.00     0.033 C 
ENDBRANCH  10  13
ENDBRANCH   9  10
ENDBRANCH   4   9
ENDBRANCH   1   3
BRANCH   1  19
HETATM   19  C   UNL     1       6.861  28.838  56.729  1.00  0.00     0.197 C 
BRANCH  19  20
HETATM   20  C   UNL     1       7.251  27.360  56.800  1.00  0.00     0.249 C 
HETATM   21  N   UNL     1       7.266  26.707  55.589  1.00  0.00    -0.266 N 
HETATM   22  H   UNL     1       6.798  27.059  54.750  1.00  0.00     0.190 HD
HETATM   23  O   UNL     1       7.562  26.812  57.860  1.00  0.00    -0.270 OA
BRANCH  21  24
HETATM   24  N   UNL     1       7.531  25.329  55.583  1.00  0.00    -0.263 N 
HETATM   25  C   UNL     1       7.602  24.710  54.348  1.00  0.00     0.270 C 
HETATM   26  O   UNL     1       7.525  25.349  53.302  1.00  0.00    -0.266 OA
HETATM   27  H   UNL     1       7.308  24.817  56.435  1.00  0.00     0.190 HD
BRANCH  25  28
HETATM   28  C   UNL     1       7.737  23.229  54.352  1.00  0.00     0.033 A 
HETATM   29  C   UNL     1       8.002  22.582  53.139  1.00  0.00     0.017 A 
HETATM   30  C   UNL     1       8.138  21.193  53.101  1.00  0.00     0.001 A 
HETATM   31  C   UNL     1       8.020  20.448  54.273  1.00  0.00     0.000 A 
HETATM   32  C   UNL     1       7.773  21.088  55.487  1.00  0.00     0.001 A 
HETATM   33  C   UNL     1       7.635  22.476  55.531  1.00  0.00     0.017 A 
ENDBRANCH  25  28
ENDBRANCH  21  24
ENDBRANCH  19  20
ENDBRANCH   1  19
TORSDOF 8
ENDMDL
MODEL 2
REMARK VINA RESULT:      -9.3      2.397     10.392
REMARK  8 active torsions:
REMARK  status: ('A' for Active; 'I' for Inactive)
REMARK    1  A    between atoms: N_2  and  C_4 
REMARK    2  A    between atoms: N_2  and  C_10 
REMARK    3  A    between atoms: C_10  and  C_11 
REMARK    4  A    between atoms: C_12  and  N_13 
REMARK    5  A    between atoms: N_13  and  C_14 
REMARK    6  A    between atoms: C_14  and  C_15 
REMARK       I    between atoms: C_15  and  N_16 
REMARK    7  A    between atoms: N_16  and  N_17 
REMARK       I    between atoms: N_17  and  C_18 
REMARK    8  A    between atoms: C_18  and  C_19 
ROOT
HETATM    1  N   UNL     1       7.994  28.555  58.101  1.00  0.00    -0.284 NA
HETATM    2  H   UNL     1       8.549  27.697  57.975  1.00  0.00     0.128 HD
ENDROOT
BRANCH   1   3
HETATM    3  C   UNL     1       6.930  28.521  57.172  1.00  0.00     0.016 A 
HETATM    4  C   UNL     1       6.399  27.262  56.803  1.00  0.00    -0.011 A 
HETATM    5  C   UNL     1       5.401  27.186  55.813  1.00  0.00     0.011 A 
HETATM    6  C   UNL     1       4.929  28.337  55.191  1.00  0.00     0.001 A 
HETATM    7  C   UNL     1       5.457  29.573  55.539  1.00  0.00     0.002 A 
HETATM    8  C   UNL     1       6.458  29.664  56.510  1.00  0.00     0.024 A 
BRANCH   4   9
HETATM    9  C   UNL     1       6.892  25.974  57.424  1.00  0.00     0.275 C 
BRANCH   9  10
HETATM   10  N   UNL     1       7.696  25.069  56.500  1.00  0.00    -0.067 N 
HETATM   11  C   UNL     1       8.935  24.564  57.204  1.00  0.00     0.270 C 
HETATM   12  H   UNL     1       8.027  25.734  55.776  1.00  0.00     0.280 HD
BRANCH  10  13
HETATM   13  C   UNL     1       6.881  23.939  55.863  1.00  0.00     0.188 C 
HETATM   14  C   UNL     1       6.355  24.297  54.463  1.00  0.00     0.033 C 
HETATM   15  C   UNL     1       7.466  24.438  53.426  1.00  0.00     0.002 C 
HETATM   16  C   UNL     1       8.335  23.185  53.360  1.00  0.00     0.000 C 
HETATM   17  C   UNL     1       8.851  22.764  54.734  1.00  0.00     0.002 C 
HETATM   18  C   UNL     1       7.712  22.646  55.747  1.00  0.00     0.033 C 
ENDBRANCH  10  13
ENDBRANCH   9  10
ENDBRANCH   4   9
ENDBRANCH   1   3
BRANCH   1  19
HETATM   19  C   UNL     1       8.959  29.683  57.988  1.00  0.00     0.197 C 
BRANCH  19  20
HETATM   20  C   UNL     1       8.543  30.792  58.957  1.00  0.00     0.249 C 
HETATM   21  N   UNL     1       7.835  30.363  60.056  1.00  0.00    -0.266 N 
HETATM   22  H   UNL     1       7.369  29.454  60.111  1.00  0.00     0.190 HD
HETATM   23  O   UNL     1       8.855  31.972  58.781  1.00  0.00    -0.270 OA
BRANCH  21  24
HETATM   24  N   UNL     1       7.346  31.330  60.947  1.00  0.00    -0.263 N 
HETATM   25  C   UNL     1       7.779  31.252  62.258  1.00  0.00     0.270 C 
HETATM   26  O   UNL     1       8.621  30.429  62.609  1.00  0.00    -0.266 OA
HETATM   27  H   UNL     1       6.472  31.788  60.691  1.00  0.00     0.190 HD
BRANCH  25  28
HETATM   28  C   UNL     1       7.147  32.187  63.226  1.00  0.00     0.033 A 
HETATM   29  C   UNL     1       5.750  32.237  63.289  1.00  0.00     0.017 A 
HETATM   30  C   UNL     1       5.118  33.101  64.186  1.00  0.00     0.001 A 
HETATM   31  C   UNL     1       5.879  33.909  65.029  1.00  0.00     0.000 A 
HETATM   32  C   UNL     1       7.271  33.852  64.984  1.00  0.00     0.001 A 
HETATM   33  C   UNL     1       7.909  32.992  64.087  1.00  0.00     0.017 A 
ENDBRANCH  25  28
ENDBRANCH  21  24
ENDBRANCH  19  20
ENDBRANCH   1  19
TORSDOF 8
ENDMDL
MODEL 3
REMARK VINA RESULT:      -9.2      3.133     10.808
REMARK  8 active torsions:
REMARK  status: ('A' for Active; 'I' for Inactive)
REMARK    1  A    between atoms: N_2  and  C_4 
REMARK    2  A    between atoms: N_2  and  C_10 
REMARK    3  A    between atoms: C_10  and  C_11 
REMARK    4  A    between atoms: C_12  and  N_13 
REMARK    5  A    between atoms: N_13  and  C_14 
REMARK    6  A    between atoms: C_14  and  C_15 
REMARK       I    between atoms: C_15  and  N_16 
REMARK    7  A    between atoms: N_16  and  N_17 
REMARK       I    between atoms: N_17  and  C_18 
REMARK    8  A    between atoms: C_18  and  C_19 
ROOT
HETATM    1  N   UNL     1       7.361  30.551  59.417  1.00  0.00    -0.284 NA
HETATM    2  H   UNL     1       7.643  30.220  60.351  1.00  0.00     0.128 HD
ENDROOT
BRANCH   1   3
HETATM    3  C   UNL     1       8.436  30.312  58.532  1.00  0.00     0.016 A 
HETATM    4  C   UNL     1       8.403  29.144  57.734  1.00  0.00    -0.011 A 
HETATM    5  C   UNL     1       9.500  28.828  56.909  1.00  0.00     0.011 A 
HETATM    6  C   UNL     1      10.619  29.654  56.869  1.00  0.00     0.001 A 
HETATM    7  C   UNL     1      10.662  30.793  57.662  1.00  0.00     0.002 A 
HETATM    8  C   UNL     1       9.587  31.112  58.496  1.00  0.00     0.024 A 
BRANCH   4   9
HETATM    9  C   UNL     1       7.226  28.194  57.756  1.00  0.00     0.275 C 
BRANCH   9  10
HETATM   10  N   UNL     1       7.377  26.947  56.894  1.00  0.00    -0.067 N 
HETATM   11  C   UNL     1       7.566  25.725  57.763  1.00  0.00     0.270 C 
HETATM   12  H   UNL     1       8.289  27.112  56.427  1.00  0.00     0.280 HD
BRANCH  10  13
HETATM   13  C   UNL     1       6.266  26.764  55.856  1.00  0.00     0.188 C 
HETATM   14  C   UNL     1       6.298  27.832  54.749  1.00  0.00     0.033 C 
HETATM   15  C   UNL     1       7.524  27.720  53.847  1.00  0.00     0.002 C 
HETATM   16  C   UNL     1       7.647  26.324  53.239  1.00  0.00     0.000 C 
HETATM   17  C   UNL     1       7.580  25.224  54.295  1.00  0.00     0.002 C 
HETATM   18  C   UNL     1       6.348  25.378  55.186  1.00  0.00     0.033 C 
ENDBRANCH  10  13
ENDBRANCH   9  10
ENDBRANCH   4   9
ENDBRANCH   1   3
BRANCH   1  19
HETATM   19  C   UNL     1       6.934  31.965  59.600  1.00  0.00     0.197 C 
BRANCH  19  20
HETATM   20  C   UNL     1       7.130  32.358  61.066  1.00  0.00     0.249 C 
HETATM   21  N   UNL     1       6.140  33.159  61.586  1.00  0.00    -0.266 N 
HETATM   22  H   UNL     1       5.481  33.691  61.012  1.00  0.00     0.190 HD
HETATM   23  O   UNL     1       8.084  31.953  61.734  1.00  0.00    -0.270 OA
BRANCH  21  24
HETATM   24  N   UNL     1       6.293  33.632  62.899  1.00  0.00    -0.263 N 
HETATM   25  C   UNL     1       5.588  32.971  63.888  1.00  0.00     0.270 C 
HETATM   26  O   UNL     1       4.928  31.963  63.646  1.00  0.00    -0.266 OA
HETATM   27  H   UNL     1       6.601  34.597  63.005  1.00  0.00     0.190 HD
BRANCH  25  28
HETATM   28  C   UNL     1       5.639  33.563  65.252  1.00  0.00     0.033 A 
HETATM   29  C   UNL     1       4.432  33.897  65.878  1.00  0.00     0.017 A 
HETATM   30  C   UNL     1       4.437  34.453  67.159  1.00  0.00     0.001 A 
HETATM   31  C   UNL     1       5.644  34.669  67.821  1.00  0.00     0.000 A 
HETATM   32  C   UNL     1       6.848  34.323  67.210  1.00  0.00     0.001 A 
HETATM   33  C   UNL     1       6.850  33.768  65.928  1.00  0.00     0.017 A 
ENDBRANCH  25  28
ENDBRANCH  21  24
ENDBRANCH  19  20
ENDBRANCH   1  19
TORSDOF 8
ENDMDL
MODEL 4
REMARK VINA RESULT:      -9.0      5.727      8.982
REMARK  8 active torsions:
REMARK  status: ('A' for Active; 'I' for Inactive)
REMARK    1  A    between atoms: N_2  and  C_4 
REMARK    2  A    between atoms: N_2  and  C_10 
REMARK    3  A    between atoms: C_10  and  C_11 
REMARK    4  A    between atoms: C_12  and  N_13 
REMARK    5  A    between atoms: N_13  and  C_14 
REMARK    6  A    between atoms: C_14  and  C_15 
REMARK       I    between atoms: C_15  and  N_16 
REMARK    7  A    between atoms: N_16  and  N_17 
REMARK       I    between atoms: N_17  and  C_18 
REMARK    8  A    between atoms: C_18  and  C_19 
ROOT
HETATM    1  N   UNL     1       5.778  24.821  52.522  1.00  0.00    -0.284 NA
HETATM    2  H   UNL     1       5.185  25.402  53.132  1.00  0.00     0.128 HD
ENDROOT
BRANCH   1   3
HETATM    3  C   UNL     1       6.671  24.101  53.346  1.00  0.00     0.016 A 
HETATM    4  C   UNL     1       6.623  24.320  54.743  1.00  0.00    -0.011 A 
HETATM    5  C   UNL     1       7.560  23.689  55.584  1.00  0.00     0.011 A 
HETATM    6  C   UNL     1       8.535  22.849  55.056  1.00  0.00     0.001 A 
HETATM    7  C   UNL     1       8.595  22.642  53.684  1.00  0.00     0.002 A 
HETATM    8  C   UNL     1       7.681  23.273  52.835  1.00  0.00     0.024 A 
BRANCH   4   9
HETATM    9  C   UNL     1       5.604  25.244  55.373  1.00  0.00     0.275 C 
BRANCH   9  10
HETATM   10  N   UNL     1       6.005  26.712  55.437  1.00  0.00    -0.067 N 
HETATM   11  C   UNL     1       5.083  27.548  54.578  1.00  0.00     0.270 C 
HETATM   12  H   UNL     1       6.924  26.710  54.955  1.00  0.00     0.280 HD
BRANCH  10  13
HETATM   13  C   UNL     1       6.142  27.263  56.860  1.00  0.00     0.188 C 
HETATM   14  C   UNL     1       7.266  26.583  57.659  1.00  0.00     0.033 C 
HETATM   15  C   UNL     1       8.658  26.899  57.118  1.00  0.00     0.002 C 
HETATM   16  C   UNL     1       8.902  28.404  57.038  1.00  0.00     0.000 C 
HETATM   17  C   UNL     1       7.789  29.131  56.287  1.00  0.00     0.002 C 
HETATM   18  C   UNL     1       6.412  28.781  56.849  1.00  0.00     0.033 C 
ENDBRANCH  10  13
ENDBRANCH   9  10
ENDBRANCH   4   9
ENDBRANCH   1   3
BRANCH   1  19
HETATM   19  C   UNL     1       6.373  25.755  51.527  1.00  0.00     0.197 C 
BRANCH  19  20
HETATM   20  C   UNL     1       5.259  26.608  50.918  1.00  0.00     0.249 C 
HETATM   21  N   UNL     1       4.383  25.922  50.109  1.00  0.00    -0.266 N 
HETATM   22  H   UNL     1       4.585  25.005  49.704  1.00  0.00     0.190 HD
HETATM   23  O   UNL     1       5.139  27.810  51.167  1.00  0.00    -0.270 OA
BRANCH  21  24
HETATM   24  N   UNL     1       3.384  26.652  49.446  1.00  0.00    -0.263 N 
HETATM   25  C   UNL     1       3.508  26.779  48.074  1.00  0.00     0.270 C 
HETATM   26  O   UNL     1       4.400  26.208  47.452  1.00  0.00    -0.266 OA
HETATM   27  H   UNL     1       2.854  27.317  50.007  1.00  0.00     0.190 HD
BRANCH  25  28
HETATM   28  C   UNL     1       2.530  27.673  47.397  1.00  0.00     0.033 A 
HETATM   29  C   UNL     1       1.272  27.154  47.067  1.00  0.00     0.017 A 
HETATM   30  C   UNL     1       0.326  27.961  46.432  1.00  0.00     0.001 A 
HETATM   31  C   UNL     1       0.628  29.288  46.134  1.00  0.00     0.000 A 
HETATM   32  C   UNL     1       1.873  29.816  46.475  1.00  0.00     0.001 A 
HETATM   33  C   UNL     1       2.824  29.014  47.108  1.00  0.00     0.017 A 
ENDBRANCH  25  28
ENDBRANCH  21  24
ENDBRANCH  19  20
ENDBRANCH   1  19
TORSDOF 8
ENDMDL
MODEL 5
REMARK VINA RESULT:      -8.9      2.112     10.702
REMARK  8 active torsions:
REMARK  status: ('A' for Active; 'I' for Inactive)
REMARK    1  A    between atoms: N_2  and  C_4 
REMARK    2  A    between atoms: N_2  and  C_10 
REMARK    3  A    between atoms: C_10  and  C_11 
REMARK    4  A    between atoms: C_12  and  N_13 
REMARK    5  A    between atoms: N_13  and  C_14 
REMARK    6  A    between atoms: C_14  and  C_15 
REMARK       I    between atoms: C_15  and  N_16 
REMARK    7  A    between atoms: N_16  and  N_17 
REMARK       I    between atoms: N_17  and  C_18 
REMARK    8  A    between atoms: C_18  and  C_19 
ROOT
HETATM    1  N   UNL     1       7.176  27.298  56.488  1.00  0.00    -0.284 NA
HETATM    2  H   UNL     1       7.961  26.639  56.386  1.00  0.00     0.128 HD
ENDROOT
BRANCH   1   3
HETATM    3  C   UNL     1       6.260  27.042  55.443  1.00  0.00     0.016 A 
HETATM    4  C   UNL     1       6.092  25.707  55.007  1.00  0.00    -0.011 A 
HETATM    5  C   UNL     1       5.257  25.428  53.908  1.00  0.00     0.011 A 
HETATM    6  C   UNL     1       4.592  26.454  53.243  1.00  0.00     0.001 A 
HETATM    7  C   UNL     1       4.766  27.768  53.659  1.00  0.00     0.002 A 
HETATM    8  C   UNL     1       5.602  28.061  54.739  1.00  0.00     0.024 A 
BRANCH   4   9
HETATM    9  C   UNL     1       6.810  24.552  55.672  1.00  0.00     0.275 C 
BRANCH   9  10
HETATM   10  N   UNL     1       7.616  23.659  54.738  1.00  0.00    -0.067 N 
HETATM   11  C   UNL     1       8.035  24.428  53.505  1.00  0.00     0.270 C 
HETATM   12  H   UNL     1       6.904  22.974  54.421  1.00  0.00     0.280 HD
BRANCH  10  13
HETATM   13  C   UNL     1       8.791  22.945  55.412  1.00  0.00     0.188 C 
HETATM   14  C   UNL     1       8.348  22.004  56.545  1.00  0.00     0.033 C 
HETATM   15  C   UNL     1       7.558  20.798  56.045  1.00  0.00     0.002 C 
HETATM   16  C   UNL     1       8.332  20.020  54.983  1.00  0.00     0.000 C 
HETATM   17  C   UNL     1       8.829  20.919  53.854  1.00  0.00     0.002 C 
HETATM   18  C   UNL     1       9.604  22.121  54.395  1.00  0.00     0.033 C 
ENDBRANCH  10  13
ENDBRANCH   9  10
ENDBRANCH   4   9
ENDBRANCH   1   3
BRANCH   1  19
HETATM   19  C   UNL     1       7.787  28.654  56.539  1.00  0.00     0.197 C 
BRANCH  19  20
HETATM   20  C   UNL     1       7.178  29.429  57.709  1.00  0.00     0.249 C 
HETATM   21  N   UNL     1       8.083  29.858  58.653  1.00  0.00    -0.266 N 
HETATM   22  H   UNL     1       9.027  29.475  58.747  1.00  0.00     0.190 HD
HETATM   23  O   UNL     1       5.973  29.681  57.776  1.00  0.00    -0.270 OA
BRANCH  21  24
HETATM   24  N   UNL     1       7.591  30.502  59.798  1.00  0.00    -0.263 N 
HETATM   25  C   UNL     1       8.060  31.778  60.049  1.00  0.00     0.270 C 
HETATM   26  O   UNL     1       8.803  32.358  59.261  1.00  0.00    -0.266 OA
HETATM   27  H   UNL     1       7.223  29.903  60.537  1.00  0.00     0.190 HD
BRANCH  25  28
HETATM   28  C   UNL     1       7.648  32.398  61.337  1.00  0.00     0.033 A 
HETATM   29  C   UNL     1       8.399  32.112  62.483  1.00  0.00     0.017 A 
HETATM   30  C   UNL     1       8.046  32.675  63.711  1.00  0.00     0.001 A 
HETATM   31  C   UNL     1       6.951  33.533  63.796  1.00  0.00     0.000 A 
HETATM   32  C   UNL     1       6.209  33.836  62.655  1.00  0.00     0.001 A 
HETATM   33  C   UNL     1       6.556  33.274  61.425  1.00  0.00     0.017 A 
ENDBRANCH  25  28
ENDBRANCH  21  24
ENDBRANCH  19  20
ENDBRANCH   1  19
TORSDOF 8
ENDMDL
MODEL 6
REMARK VINA RESULT:      -8.9      2.647     10.205
REMARK  8 active torsions:
REMARK  status: ('A' for Active; 'I' for Inactive)
REMARK    1  A    between atoms: N_2  and  C_4 
REMARK    2  A    between atoms: N_2  and  C_10 
REMARK    3  A    between atoms: C_10  and  C_11 
REMARK    4  A    between atoms: C_12  and  N_13 
REMARK    5  A    between atoms: N_13  and  C_14 
REMARK    6  A    between atoms: C_14  and  C_15 
REMARK       I    between atoms: C_15  and  N_16 
REMARK    7  A    between atoms: N_16  and  N_17 
REMARK       I    between atoms: N_17  and  C_18 
REMARK    8  A    between atoms: C_18  and  C_19 
ROOT
HETATM    1  N   UNL     1       6.836  29.788  58.203  1.00  0.00    -0.284 NA
HETATM    2  H   UNL     1       6.942  29.886  59.223  1.00  0.00     0.128 HD
ENDROOT
BRANCH   1   3
HETATM    3  C   UNL     1       8.125  29.842  57.628  1.00  0.00     0.016 A 
HETATM    4  C   UNL     1       8.386  29.051  56.484  1.00  0.00    -0.011 A 
HETATM    5  C   UNL     1       9.685  29.011  55.941  1.00  0.00     0.011 A 
HETATM    6  C   UNL     1      10.719  29.743  56.518  1.00  0.00     0.001 A 
HETATM    7  C   UNL     1      10.471  30.508  57.650  1.00  0.00     0.002 A 
HETATM    8  C   UNL     1       9.190  30.547  58.208  1.00  0.00     0.024 A 
BRANCH   4   9
HETATM    9  C   UNL     1       7.310  28.213  55.829  1.00  0.00     0.275 C 
BRANCH   9  10
HETATM   10  N   UNL     1       7.506  26.706  55.927  1.00  0.00    -0.067 N 
HETATM   11  C   UNL     1       7.629  26.283  57.373  1.00  0.00     0.270 C 
HETATM   12  H   UNL     1       8.448  26.580  55.509  1.00  0.00     0.280 HD
BRANCH  10  13
HETATM   13  C   UNL     1       6.462  25.887  55.162  1.00  0.00     0.188 C 
HETATM   14  C   UNL     1       6.405  26.239  53.665  1.00  0.00     0.033 C 
HETATM   15  C   UNL     1       7.666  25.834  52.907  1.00  0.00     0.002 C 
HETATM   16  C   UNL     1       7.978  24.350  53.090  1.00  0.00     0.000 C 
HETATM   17  C   UNL     1       8.007  23.941  54.561  1.00  0.00     0.002 C 
HETATM   18  C   UNL     1       6.734  24.375  55.288  1.00  0.00     0.033 C 
ENDBRANCH  10  13
ENDBRANCH   9  10
ENDBRANCH   4   9
ENDBRANCH   1   3
BRANCH   1  19
HETATM   19  C   UNL     1       5.865  30.838  57.792  1.00  0.00     0.197 C 
BRANCH  19  20
HETATM   20  C   UNL     1       5.511  31.692  59.012  1.00  0.00     0.249 C 
HETATM   21  N   UNL     1       6.542  31.879  59.905  1.00  0.00    -0.266 N 
HETATM   22  H   UNL     1       7.380  31.294  59.933  1.00  0.00     0.190 HD
HETATM   23  O   UNL     1       4.398  32.202  59.159  1.00  0.00    -0.270 OA
BRANCH  21  24
HETATM   24  N   UNL     1       6.272  32.580  61.090  1.00  0.00    -0.263 N 
HETATM   25  C   UNL     1       6.840  32.088  62.251  1.00  0.00     0.270 C 
HETATM   26  O   UNL     1       7.616  31.136  62.236  1.00  0.00    -0.266 OA
HETATM   27  H   UNL     1       5.433  33.159  61.098  1.00  0.00     0.190 HD
BRANCH  25  28
HETATM   28  C   UNL     1       6.434  32.747  63.522  1.00  0.00     0.033 A 
HETATM   29  C   UNL     1       7.436  33.136  64.419  1.00  0.00     0.017 A 
HETATM   30  C   UNL     1       7.097  33.759  65.622  1.00  0.00     0.001 A 
HETATM   31  C   UNL     1       5.759  34.004  65.928  1.00  0.00     0.000 A 
HETATM   32  C   UNL     1       4.758  33.633  65.031  1.00  0.00     0.001 A 
HETATM   33  C   UNL     1       5.090  33.008  63.828  1.00  0.00     0.017 A 
ENDBRANCH  25  28
ENDBRANCH  21  24
ENDBRANCH  19  20
ENDBRANCH   1  19
TORSDOF 8
ENDMDL
MODEL 7
REMARK VINA RESULT:      -8.8      2.942      5.002
REMARK  8 active torsions:
REMARK  status: ('A' for Active; 'I' for Inactive)
REMARK    1  A    between atoms: N_2  and  C_4 
REMARK    2  A    between atoms: N_2  and  C_10 
REMARK    3  A    between atoms: C_10  and  C_11 
REMARK    4  A    between atoms: C_12  and  N_13 
REMARK    5  A    between atoms: N_13  and  C_14 
REMARK    6  A    between atoms: C_14  and  C_15 
REMARK       I    between atoms: C_15  and  N_16 
REMARK    7  A    between atoms: N_16  and  N_17 
REMARK       I    between atoms: N_17  and  C_18 
REMARK    8  A    between atoms: C_18  and  C_19 
ROOT
HETATM    1  N   UNL     1       5.701  29.461  54.181  1.00  0.00    -0.284 NA
HETATM    2  H   UNL     1       5.990  28.837  54.948  1.00  0.00     0.128 HD
ENDROOT
BRANCH   1   3
HETATM    3  C   UNL     1       4.622  30.245  54.646  1.00  0.00     0.016 A 
HETATM    4  C   UNL     1       4.314  30.215  56.027  1.00  0.00    -0.011 A 
HETATM    5  C   UNL     1       3.189  30.911  56.509  1.00  0.00     0.011 A 
HETATM    6  C   UNL     1       2.374  31.631  55.641  1.00  0.00     0.001 A 
HETATM    7  C   UNL     1       2.664  31.651  54.283  1.00  0.00     0.002 A 
HETATM    8  C   UNL     1       3.769  30.954  53.788  1.00  0.00     0.024 A 
BRANCH   4   9
HETATM    9  C   UNL     1       5.146  29.428  57.015  1.00  0.00     0.275 C 
BRANCH   9  10
HETATM   10  N   UNL     1       6.450  30.088  57.442  1.00  0.00    -0.067 N 
HETATM   11  C   UNL     1       6.172  31.274  58.338  1.00  0.00     0.270 C 
HETATM   12  H   UNL     1       6.801  30.479  56.548  1.00  0.00     0.280 HD
BRANCH  10  13
HETATM   13  C   UNL     1       7.473  29.122  58.048  1.00  0.00     0.188 C 
HETATM   14  C   UNL     1       8.194  28.272  56.988  1.00  0.00     0.033 C 
HETATM   15  C   UNL     1       9.109  29.094  56.085  1.00  0.00     0.002 C 
HETATM   16  C   UNL     1      10.122  29.899  56.896  1.00  0.00     0.000 C 
HETATM   17  C   UNL     1       9.458  30.731  57.990  1.00  0.00     0.002 C 
HETATM   18  C   UNL     1       8.541  29.877  58.864  1.00  0.00     0.033 C 
ENDBRANCH  10  13
ENDBRANCH   9  10
ENDBRANCH   4   9
ENDBRANCH   1   3
BRANCH   1  19
HETATM   19  C   UNL     1       5.445  28.576  53.012  1.00  0.00     0.197 C 
BRANCH  19  20
HETATM   20  C   UNL     1       5.561  27.117  53.458  1.00  0.00     0.249 C 
HETATM   21  N   UNL     1       6.749  26.794  54.074  1.00  0.00    -0.266 N 
HETATM   22  H   UNL     1       7.597  27.361  54.003  1.00  0.00     0.190 HD
HETATM   23  O   UNL     1       4.643  26.308  53.309  1.00  0.00    -0.270 OA
BRANCH  21  24
HETATM   24  N   UNL     1       6.964  25.455  54.435  1.00  0.00    -0.263 N 
HETATM   25  C   UNL     1       7.681  24.674  53.546  1.00  0.00     0.270 C 
HETATM   26  O   UNL     1       8.183  25.150  52.530  1.00  0.00    -0.266 OA
HETATM   27  H   UNL     1       6.315  25.053  55.109  1.00  0.00     0.190 HD
BRANCH  25  28
HETATM   28  C   UNL     1       7.782  23.224  53.864  1.00  0.00     0.033 A 
HETATM   29  C   UNL     1       7.713  22.831  55.205  1.00  0.00     0.017 A 
HETATM   30  C   UNL     1       7.802  21.479  55.544  1.00  0.00     0.001 A 
HETATM   31  C   UNL     1       7.949  20.517  54.546  1.00  0.00     0.000 A 
HETATM   32  C   UNL     1       8.002  20.902  53.207  1.00  0.00     0.001 A 
HETATM   33  C   UNL     1       7.915  22.252  52.862  1.00  0.00     0.017 A 
ENDBRANCH  25  28
ENDBRANCH  21  24
ENDBRANCH  19  20
ENDBRANCH   1  19
TORSDOF 8
ENDMDL
MODEL 8
REMARK VINA RESULT:      -8.6      4.585      8.652
REMARK  8 active torsions:
REMARK  status: ('A' for Active; 'I' for Inactive)
REMARK    1  A    between atoms: N_2  and  C_4 
REMARK    2  A    between atoms: N_2  and  C_10 
REMARK    3  A    between atoms: C_10  and  C_11 
REMARK    4  A    between atoms: C_12  and  N_13 
REMARK    5  A    between atoms: N_13  and  C_14 
REMARK    6  A    between atoms: C_14  and  C_15 
REMARK       I    between atoms: C_15  and  N_16 
REMARK    7  A    between atoms: N_16  and  N_17 
REMARK       I    between atoms: N_17  and  C_18 
REMARK    8  A    between atoms: C_18  and  C_19 
ROOT
HETATM    1  N   UNL     1       4.679  27.276  56.175  1.00  0.00    -0.284 NA
HETATM    2  H   UNL     1       4.215  26.927  57.026  1.00  0.00     0.128 HD
ENDROOT
BRANCH   1   3
HETATM    3  C   UNL     1       6.060  27.386  56.450  1.00  0.00     0.016 A 
HETATM    4  C   UNL     1       6.799  26.199  56.667  1.00  0.00    -0.011 A 
HETATM    5  C   UNL     1       8.156  26.275  57.034  1.00  0.00     0.011 A 
HETATM    6  C   UNL     1       8.782  27.509  57.186  1.00  0.00     0.001 A 
HETATM    7  C   UNL     1       8.057  28.677  56.988  1.00  0.00     0.002 A 
HETATM    8  C   UNL     1       6.706  28.617  56.638  1.00  0.00     0.024 A 
BRANCH   4   9
HETATM    9  C   UNL     1       6.167  24.830  56.544  1.00  0.00     0.275 C 
BRANCH   9  10
HETATM   10  N   UNL     1       6.552  24.042  55.298  1.00  0.00    -0.067 N 
HETATM   11  C   UNL     1       6.079  24.760  54.054  1.00  0.00     0.270 C 
HETATM   12  H   UNL     1       5.961  23.194  55.383  1.00  0.00     0.280 HD
BRANCH  10  13
HETATM   13  C   UNL     1       8.034  23.663  55.229  1.00  0.00     0.188 C 
HETATM   14  C   UNL     1       8.414  22.553  56.225  1.00  0.00     0.033 C 
HETATM   15  C   UNL     1       7.781  21.206  55.889  1.00  0.00     0.002 C 
HETATM   16  C   UNL     1       8.109  20.772  54.462  1.00  0.00     0.000 C 
HETATM   17  C   UNL     1       7.786  21.857  53.438  1.00  0.00     0.002 C 
HETATM   18  C   UNL     1       8.427  23.192  53.815  1.00  0.00     0.033 C 
ENDBRANCH  10  13
ENDBRANCH   9  10
ENDBRANCH   4   9
ENDBRANCH   1   3
BRANCH   1  19
HETATM   19  C   UNL     1       3.959  28.525  55.804  1.00  0.00     0.197 C 
BRANCH  19  20
HETATM   20  C   UNL     1       3.813  28.581  54.281  1.00  0.00     0.249 C 
HETATM   21  N   UNL     1       3.894  27.362  53.648  1.00  0.00    -0.266 N 
HETATM   22  H   UNL     1       4.294  26.525  54.079  1.00  0.00     0.190 HD
HETATM   23  O   UNL     1       3.601  29.635  53.678  1.00  0.00    -0.270 OA
BRANCH  21  24
HETATM   24  N   UNL     1       3.855  27.341  52.246  1.00  0.00    -0.263 N 
HETATM   25  C   UNL     1       5.065  27.439  51.583  1.00  0.00     0.270 C 
HETATM   26  O   UNL     1       6.133  27.456  52.191  1.00  0.00    -0.266 OA
HETATM   27  H   UNL     1       2.974  27.607  51.809  1.00  0.00     0.190 HD
BRANCH  25  28
HETATM   28  C   UNL     1       5.007  27.562  50.102  1.00  0.00     0.033 A 
HETATM   29  C   UNL     1       5.371  28.782  49.521  1.00  0.00     0.017 A 
HETATM   30  C   UNL     1       5.331  28.938  48.133  1.00  0.00     0.001 A 
HETATM   31  C   UNL     1       4.938  27.874  47.323  1.00  0.00     0.000 A 
HETATM   32  C   UNL     1       4.590  26.651  47.895  1.00  0.00     0.001 A 
HETATM   33  C   UNL     1       4.626  26.490  49.282  1.00  0.00     0.017 A 
ENDBRANCH  25  28
ENDBRANCH  21  24
ENDBRANCH  19  20
ENDBRANCH   1  19
TORSDOF 8
ENDMDL
MODEL 9
REMARK VINA RESULT:      -8.6      6.592      9.845
REMARK  8 active torsions:
REMARK  status: ('A' for Active; 'I' for Inactive)
REMARK    1  A    between atoms: N_2  and  C_4 
REMARK    2  A    between atoms: N_2  and  C_10 
REMARK    3  A    between atoms: C_10  and  C_11 
REMARK    4  A    between atoms: C_12  and  N_13 
REMARK    5  A    between atoms: N_13  and  C_14 
REMARK    6  A    between atoms: C_14  and  C_15 
REMARK       I    between atoms: C_15  and  N_16 
REMARK    7  A    between atoms: N_16  and  N_17 
REMARK       I    between atoms: N_17  and  C_18 
REMARK    8  A    between atoms: C_18  and  C_19 
ROOT
HETATM    1  N   UNL     1       4.186  27.338  51.364  1.00  0.00    -0.284 NA
HETATM    2  H   UNL     1       3.848  27.505  50.405  1.00  0.00     0.128 HD
ENDROOT
BRANCH   1   3
HETATM    3  C   UNL     1       3.961  28.515  52.112  1.00  0.00     0.016 A 
HETATM    4  C   UNL     1       3.844  29.742  51.417  1.00  0.00    -0.011 A 
HETATM    5  C   UNL     1       3.711  30.945  52.137  1.00  0.00     0.011 A 
HETATM    6  C   UNL     1       3.694  30.942  53.528  1.00  0.00     0.001 A 
HETATM    7  C   UNL     1       3.823  29.741  54.214  1.00  0.00     0.002 A 
HETATM    8  C   UNL     1       3.970  28.541  53.514  1.00  0.00     0.024 A 
BRANCH   4   9
HETATM    9  C   UNL     1       3.883  29.812  49.906  1.00  0.00     0.275 C 
BRANCH   9  10
HETATM   10  N   UNL     1       2.825  28.987  49.186  1.00  0.00    -0.067 N 
HETATM   11  C   UNL     1       1.449  29.562  49.434  1.00  0.00     0.270 C 
HETATM   12  H   UNL     1       2.859  28.088  49.703  1.00  0.00     0.280 HD
BRANCH  10  13
HETATM   13  C   UNL     1       3.109  28.765  47.697  1.00  0.00     0.188 C 
HETATM   14  C   UNL     1       4.365  27.912  47.448  1.00  0.00     0.033 C 
HETATM   15  C   UNL     1       4.205  26.465  47.905  1.00  0.00     0.002 C 
HETATM   16  C   UNL     1       2.983  25.807  47.267  1.00  0.00     0.000 C 
HETATM   17  C   UNL     1       1.715  26.636  47.453  1.00  0.00     0.002 C 
HETATM   18  C   UNL     1       1.919  28.080  46.996  1.00  0.00     0.033 C 
ENDBRANCH  10  13
ENDBRANCH   9  10
ENDBRANCH   4   9
ENDBRANCH   1   3
BRANCH   1  19
HETATM   19  C   UNL     1       5.595  26.881  51.223  1.00  0.00     0.197 C 
BRANCH  19  20
HETATM   20  C   UNL     1       5.748  25.523  51.912  1.00  0.00     0.249 C 
HETATM   21  N   UNL     1       7.043  25.173  52.219  1.00  0.00    -0.266 N 
HETATM   22  H   UNL     1       7.864  25.611  51.793  1.00  0.00     0.190 HD
HETATM   23  O   UNL     1       4.779  24.818  52.201  1.00  0.00    -0.270 OA
BRANCH  21  24
HETATM   24  N   UNL     1       7.273  23.905  52.774  1.00  0.00    -0.263 N 
HETATM   25  C   UNL     1       7.547  23.854  54.128  1.00  0.00     0.270 C 
HETATM   26  O   UNL     1       7.504  24.861  54.832  1.00  0.00    -0.266 OA
HETATM   27  H   UNL     1       7.571  23.172  52.132  1.00  0.00     0.190 HD
BRANCH  25  28
HETATM   28  C   UNL     1       7.931  22.528  54.682  1.00  0.00     0.033 A 
HETATM   29  C   UNL     1       8.089  22.406  56.067  1.00  0.00     0.017 A 
HETATM   30  C   UNL     1       8.447  21.177  56.626  1.00  0.00     0.001 A 
HETATM   31  C   UNL     1       8.639  20.067  55.805  1.00  0.00     0.000 A 
HETATM   32  C   UNL     1       8.468  20.179  54.426  1.00  0.00     0.001 A 
HETATM   33  C   UNL     1       8.111  21.405  53.861  1.00  0.00     0.017 A 
ENDBRANCH  25  28
ENDBRANCH  21  24
ENDBRANCH  19  20
ENDBRANCH   1  19
TORSDOF 8
ENDMDL
MODEL 10
REMARK VINA RESULT:      -8.5      2.128      4.342
REMARK  8 active torsions:
REMARK  status: ('A' for Active; 'I' for Inactive)
REMARK    1  A    between atoms: N_2  and  C_4 
REMARK    2  A    between atoms: N_2  and  C_10 
REMARK    3  A    between atoms: C_10  and  C_11 
REMARK    4  A    between atoms: C_12  and  N_13 
REMARK    5  A    between atoms: N_13  and  C_14 
REMARK    6  A    between atoms: C_14  and  C_15 
REMARK       I    between atoms: C_15  and  N_16 
REMARK    7  A    between atoms: N_16  and  N_17 
REMARK       I    between atoms: N_17  and  C_18 
REMARK    8  A    between atoms: C_18  and  C_19 
ROOT
HETATM    1  N   UNL     1       6.344  31.563  60.563  1.00  0.00    -0.284 NA
HETATM    2  H   UNL     1       5.522  32.083  60.223  1.00  0.00     0.128 HD
ENDROOT
BRANCH   1   3
HETATM    3  C   UNL     1       6.629  32.013  61.871  1.00  0.00     0.016 A 
HETATM    4  C   UNL     1       5.548  32.378  62.708  1.00  0.00    -0.011 A 
HETATM    5  C   UNL     1       5.800  32.917  63.984  1.00  0.00     0.011 A 
HETATM    6  C   UNL     1       7.104  33.096  64.434  1.00  0.00     0.001 A 
HETATM    7  C   UNL     1       8.169  32.753  63.611  1.00  0.00     0.002 A 
HETATM    8  C   UNL     1       7.934  32.230  62.336  1.00  0.00     0.024 A 
BRANCH   4   9
HETATM    9  C   UNL     1       4.109  32.233  62.263  1.00  0.00     0.275 C 
BRANCH   9  10
HETATM   10  N   UNL     1       3.580  33.359  61.385  1.00  0.00    -0.067 N 
HETATM   11  C   UNL     1       3.302  32.852  59.988  1.00  0.00     0.270 C 
HETATM   12  H   UNL     1       4.406  33.982  61.306  1.00  0.00     0.280 HD
BRANCH  10  13
HETATM   13  C   UNL     1       2.389  34.114  61.983  1.00  0.00     0.188 C 
HETATM   14  C   UNL     1       2.642  34.583  63.427  1.00  0.00     0.033 C 
HETATM   15  C   UNL     1       3.716  35.663  63.524  1.00  0.00     0.002 C 
HETATM   16  C   UNL     1       3.394  36.857  62.629  1.00  0.00     0.000 C 
HETATM   17  C   UNL     1       3.095  36.440  61.191  1.00  0.00     0.002 C 
HETATM   18  C   UNL     1       2.026  35.350  61.136  1.00  0.00     0.033 C 
ENDBRANCH  10  13
ENDBRANCH   9  10
ENDBRANCH   4   9
ENDBRANCH   1   3
BRANCH   1  19
HETATM   19  C   UNL     1       7.401  31.756  59.533  1.00  0.00     0.197 C 
BRANCH  19  20
HETATM   20  C   UNL     1       8.001  30.394  59.176  1.00  0.00     0.249 C 
HETATM   21  N   UNL     1       7.281  29.668  58.255  1.00  0.00    -0.266 N 
HETATM   22  H   UNL     1       6.301  29.856  58.028  1.00  0.00     0.190 HD
HETATM   23  O   UNL     1       9.068  30.000  59.651  1.00  0.00    -0.270 OA
BRANCH  21  24
HETATM   24  N   UNL     1       7.721  28.374  57.941  1.00  0.00    -0.263 N 
HETATM   25  C   UNL     1       7.236  27.813  56.774  1.00  0.00     0.270 C 
HETATM   26  O   UNL     1       6.522  28.448  56.002  1.00  0.00    -0.266 OA
HETATM   27  H   UNL     1       8.062  27.806  58.716  1.00  0.00     0.190 HD
BRANCH  25  28
HETATM   28  C   UNL     1       7.591  26.390  56.520  1.00  0.00     0.033 A 
HETATM   29  C   UNL     1       7.311  25.849  55.260  1.00  0.00     0.017 A 
HETATM   30  C   UNL     1       7.630  24.519  54.982  1.00  0.00     0.001 A 
HETATM   31  C   UNL     1       8.238  23.729  55.956  1.00  0.00     0.000 A 
HETATM   32  C   UNL     1       8.534  24.266  57.208  1.00  0.00     0.001 A 
HETATM   33  C   UNL     1       8.216  25.596  57.493  1.00  0.00     0.017 A 
ENDBRANCH  25  28
ENDBRANCH  21  24
ENDBRANCH  19  20
ENDBRANCH   1  19
TORSDOF 8
ENDMDL
