MODEL 1
REMARK VINA RESULT:     -10.9      0.000      0.000
REMARK  6 active torsions:
REMARK  status: ('A' for Active; 'I' for Inactive)
REMARK    1  A    between atoms: C_5  and  C_6 
REMARK    2  A    between atoms: C_11  and  C_12 
REMARK       I    between atoms: C_12  and  N_13 
REMARK    3  A    between atoms: N_13  and  C_14 
REMARK    4  A    between atoms: C_16  and  C_17 
REMARK    5  A    between atoms: C_17  and  O_18 
REMARK    6  A    between atoms: C_25  and  C_26 
ROOT
HETATM    1  C   UNL     1       6.734  25.161  53.288  1.00  0.00     0.118 C 
HETATM    2  N   UNL     1       7.657  26.188  53.782  1.00  0.00    -0.366 N 
HETATM    3  C   UNL     1       7.228  27.247  54.498  1.00  0.00     0.123 A 
HETATM    4  N   UNL     1       5.916  27.625  54.478  1.00  0.00    -0.240 N 
HETATM    5  N   UNL     1       5.610  28.600  55.353  1.00  0.00    -0.165 NA
HETATM    6  C   UNL     1       6.811  28.912  55.899  1.00  0.00     0.148 A 
HETATM    7  C   UNL     1       7.855  28.113  55.352  1.00  0.00     0.089 A 
HETATM    8  C   UNL     1       4.908  26.900  53.732  1.00  0.00     0.221 C 
HETATM    9  C   UNL     1       5.278  25.410  53.739  1.00  0.00     0.066 C 
HETATM   10  H   UNL     1       8.634  25.895  53.826  1.00  0.00     0.161 HD
ENDROOT
BRANCH   6  11
HETATM   11  C   UNL     1       6.950  29.917  56.968  1.00  0.00     0.276 C 
HETATM   12  N   UNL     1       8.048  29.667  57.769  1.00  0.00    -0.322 N 
HETATM   13  H   UNL     1       8.533  28.805  57.530  1.00  0.00     0.169 HD
HETATM   14  O   UNL     1       6.162  30.850  57.073  1.00  0.00    -0.266 OA
BRANCH  12  15
HETATM   15  C   UNL     1       8.566  30.454  58.810  1.00  0.00     0.035 A 
HETATM   16  C   UNL     1       8.043  30.467  60.106  1.00  0.00     0.039 A 
HETATM   17  C   UNL     1       8.588  31.295  61.104  1.00  0.00    -0.028 A 
HETATM   18  C   UNL     1       9.685  32.104  60.781  1.00  0.00     0.010 A 
HETATM   19  C   UNL     1      10.212  32.099  59.491  1.00  0.00     0.003 A 
HETATM   20  C   UNL     1       9.651  31.282  58.508  1.00  0.00     0.029 A 
BRANCH  17  21
HETATM   21  C   UNL     1       7.988  31.271  62.494  1.00  0.00     0.147 C 
HETATM   22  C   UNL     1       8.046  32.644  63.153  1.00  0.00     0.044 C 
BRANCH  21  23
HETATM   23  O   UNL     1       6.628  30.836  62.449  1.00  0.00    -0.391 OA
HETATM   24  H   UNL     1       6.645  29.868  62.373  1.00  0.00     0.210 HD
ENDBRANCH  21  23
ENDBRANCH  17  21
ENDBRANCH  12  15
ENDBRANCH   6  11
BRANCH   8  25
HETATM   25  C   UNL     1       4.773  27.468  52.339  1.00  0.00     0.409 C 
HETATM   26  F   UNL     1       5.801  28.283  52.016  1.00  0.00    -0.169 F 
HETATM   27  F   UNL     1       4.670  26.530  51.375  1.00  0.00    -0.169 F 
HETATM   28  F   UNL     1       3.644  28.222  52.263  1.00  0.00    -0.169 F 
ENDBRANCH   8  25
BRANCH   1  29
HETATM   29  C   UNL     1       7.205  23.796  53.762  1.00  0.00    -0.035 A 
HETATM   30  C   UNL     1       7.718  22.852  52.855  1.00  0.00     0.010 A 
HETATM   31  C   UNL     1       8.163  21.603  53.292  1.00  0.00     0.007 A 
HETATM   32  C   UNL     1       8.101  21.267  54.646  1.00  0.00    -0.062 A 
HETATM   33  C   UNL     1       8.611  19.938  55.121  1.00  0.00     0.048 C 
HETATM   34  C   UNL     1       7.612  22.210  55.559  1.00  0.00     0.007 A 
HETATM   35  C   UNL     1       7.164  23.460  55.122  1.00  0.00     0.010 A 
ENDBRANCH   1  29
TORSDOF 6
ENDMDL
MODEL 2
REMARK VINA RESULT:     -10.4      1.663      2.314
REMARK  6 active torsions:
REMARK  status: ('A' for Active; 'I' for Inactive)
REMARK    1  A    between atoms: C_5  and  C_6 
REMARK    2  A    between atoms: C_11  and  C_12 
REMARK       I    between atoms: C_12  and  N_13 
REMARK    3  A    between atoms: N_13  and  C_14 
REMARK    4  A    between atoms: C_16  and  C_17 
REMARK    5  A    between atoms: C_17  and  O_18 
REMARK    6  A    between atoms: C_25  and  C_26 
ROOT
HETATM    1  C   UNL     1       6.445  26.228  53.981  1.00  0.00     0.118 C 
HETATM    2  N   UNL     1       7.541  27.169  54.235  1.00  0.00    -0.366 N 
HETATM    3  C   UNL     1       7.477  28.090  55.218  1.00  0.00     0.123 A 
HETATM    4  N   UNL     1       6.280  28.452  55.765  1.00  0.00    -0.240 N 
HETATM    5  N   UNL     1       6.386  29.266  56.832  1.00  0.00    -0.165 NA
HETATM    6  C   UNL     1       7.719  29.495  56.913  1.00  0.00     0.148 A 
HETATM    7  C   UNL     1       8.429  28.809  55.888  1.00  0.00     0.089 A 
HETATM    8  C   UNL     1       5.026  27.850  55.363  1.00  0.00     0.221 C 
HETATM    9  C   UNL     1       5.288  26.384  54.993  1.00  0.00     0.066 C 
HETATM   10  H   UNL     1       8.443  26.883  53.851  1.00  0.00     0.161 HD
ENDROOT
BRANCH   6  11
HETATM   11  C   UNL     1       8.312  30.310  57.989  1.00  0.00     0.276 C 
HETATM   12  N   UNL     1       7.418  30.528  59.020  1.00  0.00    -0.322 N 
HETATM   13  H   UNL     1       6.491  30.150  58.837  1.00  0.00     0.169 HD
HETATM   14  O   UNL     1       9.470  30.705  57.926  1.00  0.00    -0.266 OA
BRANCH  12  15
HETATM   15  C   UNL     1       7.647  31.158  60.254  1.00  0.00     0.035 A 
HETATM   16  C   UNL     1       6.905  32.248  60.717  1.00  0.00     0.039 A 
HETATM   17  C   UNL     1       7.196  32.855  61.953  1.00  0.00    -0.028 A 
HETATM   18  C   UNL     1       8.240  32.336  62.729  1.00  0.00     0.010 A 
HETATM   19  C   UNL     1       8.987  31.250  62.274  1.00  0.00     0.003 A 
HETATM   20  C   UNL     1       8.695  30.667  61.040  1.00  0.00     0.029 A 
BRANCH  17  21
HETATM   21  C   UNL     1       6.361  34.033  62.412  1.00  0.00     0.147 C 
HETATM   22  C   UNL     1       5.192  34.292  61.469  1.00  0.00     0.044 C 
BRANCH  21  23
HETATM   23  O   UNL     1       5.855  33.810  63.728  1.00  0.00    -0.391 OA
HETATM   24  H   UNL     1       5.014  33.334  63.629  1.00  0.00     0.210 HD
ENDBRANCH  21  23
ENDBRANCH  17  21
ENDBRANCH  12  15
ENDBRANCH   6  11
BRANCH   8  25
HETATM   25  C   UNL     1       4.399  28.640  54.238  1.00  0.00     0.409 C 
HETATM   26  F   UNL     1       3.629  29.654  54.691  1.00  0.00    -0.169 F 
HETATM   27  F   UNL     1       5.292  29.155  53.369  1.00  0.00    -0.169 F 
HETATM   28  F   UNL     1       3.581  27.829  53.514  1.00  0.00    -0.169 F 
ENDBRANCH   8  25
BRANCH   1  29
HETATM   29  C   UNL     1       6.987  24.808  54.016  1.00  0.00    -0.035 A 
HETATM   30  C   UNL     1       7.016  24.075  55.216  1.00  0.00     0.010 A 
HETATM   31  C   UNL     1       7.501  22.766  55.246  1.00  0.00     0.007 A 
HETATM   32  C   UNL     1       7.972  22.162  54.079  1.00  0.00    -0.062 A 
HETATM   33  C   UNL     1       8.461  20.744  54.105  1.00  0.00     0.048 C 
HETATM   34  C   UNL     1       7.926  22.878  52.876  1.00  0.00     0.007 A 
HETATM   35  C   UNL     1       7.442  24.189  52.845  1.00  0.00     0.010 A 
ENDBRANCH   1  29
TORSDOF 6
ENDMDL
MODEL 3
REMARK VINA RESULT:     -10.3      1.308      1.913
REMARK  6 active torsions:
REMARK  status: ('A' for Active; 'I' for Inactive)
REMARK    1  A    between atoms: C_5  and  C_6 
REMARK    2  A    between atoms: C_11  and  C_12 
REMARK       I    between atoms: C_12  and  N_13 
REMARK    3  A    between atoms: N_13  and  C_14 
REMARK    4  A    between atoms: C_16  and  C_17 
REMARK    5  A    between atoms: C_17  and  O_18 
REMARK    6  A    between atoms: C_25  and  C_26 
ROOT
HETATM    1  C   UNL     1       6.900  24.866  52.870  1.00  0.00     0.118 C 
HETATM    2  N   UNL     1       7.606  26.016  53.445  1.00  0.00    -0.366 N 
HETATM    3  C   UNL     1       6.948  27.096  53.912  1.00  0.00     0.123 A 
HETATM    4  N   UNL     1       5.660  27.351  53.539  1.00  0.00    -0.240 N 
HETATM    5  N   UNL     1       5.086  28.374  54.198  1.00  0.00    -0.165 NA
HETATM    6  C   UNL     1       6.095  28.845  54.972  1.00  0.00     0.148 A 
HETATM    7  C   UNL     1       7.290  28.095  54.783  1.00  0.00     0.089 A 
HETATM    8  C   UNL     1       4.913  26.468  52.666  1.00  0.00     0.221 C 
HETATM    9  C   UNL     1       5.365  25.026  52.933  1.00  0.00     0.066 C 
HETATM   10  H   UNL     1       8.559  25.818  53.751  1.00  0.00     0.161 HD
ENDROOT
BRANCH   6  11
HETATM   11  C   UNL     1       5.903  29.958  55.919  1.00  0.00     0.276 C 
HETATM   12  N   UNL     1       6.588  29.750  57.101  1.00  0.00    -0.322 N 
HETATM   13  H   UNL     1       7.051  28.844  57.145  1.00  0.00     0.169 HD
HETATM   14  O   UNL     1       5.219  30.932  55.629  1.00  0.00    -0.266 OA
BRANCH  12  15
HETATM   15  C   UNL     1       6.737  30.625  58.188  1.00  0.00     0.035 A 
HETATM   16  C   UNL     1       7.723  30.483  59.169  1.00  0.00     0.039 A 
HETATM   17  C   UNL     1       7.809  31.378  60.251  1.00  0.00    -0.028 A 
HETATM   18  C   UNL     1       6.893  32.435  60.325  1.00  0.00     0.010 A 
HETATM   19  C   UNL     1       5.905  32.583  59.353  1.00  0.00     0.003 A 
HETATM   20  C   UNL     1       5.824  31.680  58.292  1.00  0.00     0.029 A 
BRANCH  17  21
HETATM   21  C   UNL     1       8.896  31.182  61.287  1.00  0.00     0.147 C 
HETATM   22  C   UNL     1       8.633  32.010  62.539  1.00  0.00     0.044 C 
BRANCH  21  23
HETATM   23  O   UNL     1       9.002  29.807  61.655  1.00  0.00    -0.391 OA
HETATM   24  H   UNL     1       9.865  29.495  61.335  1.00  0.00     0.210 HD
ENDBRANCH  21  23
ENDBRANCH  17  21
ENDBRANCH  12  15
ENDBRANCH   6  11
BRANCH   8  25
HETATM   25  C   UNL     1       5.086  26.883  51.224  1.00  0.00     0.409 C 
HETATM   26  F   UNL     1       5.451  25.850  50.433  1.00  0.00    -0.169 F 
HETATM   27  F   UNL     1       3.987  27.449  50.683  1.00  0.00    -0.169 F 
HETATM   28  F   UNL     1       6.078  27.808  51.133  1.00  0.00    -0.169 F 
ENDBRANCH   8  25
BRANCH   1  29
HETATM   29  C   UNL     1       7.328  23.602  53.597  1.00  0.00    -0.035 A 
HETATM   30  C   UNL     1       7.237  23.508  54.998  1.00  0.00     0.010 A 
HETATM   31  C   UNL     1       7.617  22.342  55.665  1.00  0.00     0.007 A 
HETATM   32  C   UNL     1       8.101  21.246  54.949  1.00  0.00    -0.062 A 
HETATM   33  C   UNL     1       8.478  19.981  55.663  1.00  0.00     0.048 C 
HETATM   34  C   UNL     1       8.174  21.324  53.552  1.00  0.00     0.007 A 
HETATM   35  C   UNL     1       7.796  22.492  52.883  1.00  0.00     0.010 A 
ENDBRANCH   1  29
TORSDOF 6
ENDMDL
MODEL 4
REMARK VINA RESULT:      -9.9      1.163      1.470
REMARK  6 active torsions:
REMARK  status: ('A' for Active; 'I' for Inactive)
REMARK    1  A    between atoms: C_5  and  C_6 
REMARK    2  A    between atoms: C_11  and  C_12 
REMARK       I    between atoms: C_12  and  N_13 
REMARK    3  A    between atoms: N_13  and  C_14 
REMARK    4  A    between atoms: C_16  and  C_17 
REMARK    5  A    between atoms: C_17  and  O_18 
REMARK    6  A    between atoms: C_25  and  C_26 
ROOT
HETATM    1  C   UNL     1       6.799  25.203  53.278  1.00  0.00     0.118 C 
HETATM    2  N   UNL     1       7.569  26.242  53.969  1.00  0.00    -0.366 N 
HETATM    3  C   UNL     1       6.969  27.226  54.670  1.00  0.00     0.123 A 
HETATM    4  N   UNL     1       5.655  27.534  54.467  1.00  0.00    -0.240 N 
HETATM    5  N   UNL     1       5.157  28.430  55.339  1.00  0.00    -0.165 NA
HETATM    6  C   UNL     1       6.238  28.768  56.083  1.00  0.00     0.148 A 
HETATM    7  C   UNL     1       7.402  28.065  55.661  1.00  0.00     0.089 A 
HETATM    8  C   UNL     1       4.820  26.807  53.532  1.00  0.00     0.221 C 
HETATM    9  C   UNL     1       5.279  25.343  53.509  1.00  0.00     0.066 C 
HETATM   10  H   UNL     1       8.544  26.000  54.148  1.00  0.00     0.161 HD
ENDROOT
BRANCH   6  11
HETATM   11  C   UNL     1       6.149  29.704  57.218  1.00  0.00     0.276 C 
HETATM   12  N   UNL     1       7.381  29.924  57.802  1.00  0.00    -0.322 N 
HETATM   13  H   UNL     1       8.126  29.359  57.398  1.00  0.00     0.169 HD
HETATM   14  O   UNL     1       5.081  30.208  57.547  1.00  0.00    -0.266 OA
BRANCH  12  15
HETATM   15  C   UNL     1       7.714  30.826  58.825  1.00  0.00     0.035 A 
HETATM   16  C   UNL     1       6.772  31.574  59.536  1.00  0.00     0.039 A 
HETATM   17  C   UNL     1       7.166  32.482  60.536  1.00  0.00    -0.028 A 
HETATM   18  C   UNL     1       8.530  32.616  60.824  1.00  0.00     0.010 A 
HETATM   19  C   UNL     1       9.477  31.875  60.118  1.00  0.00     0.003 A 
HETATM   20  C   UNL     1       9.071  30.989  59.120  1.00  0.00     0.029 A 
BRANCH  17  21
HETATM   21  C   UNL     1       6.106  33.267  61.280  1.00  0.00     0.147 C 
HETATM   22  C   UNL     1       4.943  32.377  61.705  1.00  0.00     0.044 C 
BRANCH  21  23
HETATM   23  O   UNL     1       6.660  33.890  62.440  1.00  0.00    -0.391 OA
HETATM   24  H   UNL     1       6.101  34.659  62.640  1.00  0.00     0.210 HD
ENDBRANCH  21  23
ENDBRANCH  17  21
ENDBRANCH  12  15
ENDBRANCH   6  11
BRANCH   8  25
HETATM   25  C   UNL     1       4.863  27.460  52.170  1.00  0.00     0.409 C 
HETATM   26  F   UNL     1       5.958  28.236  52.008  1.00  0.00    -0.169 F 
HETATM   27  F   UNL     1       4.821  26.586  51.144  1.00  0.00    -0.169 F 
HETATM   28  F   UNL     1       3.786  28.277  52.023  1.00  0.00    -0.169 F 
ENDBRANCH   8  25
BRANCH   1  29
HETATM   29  C   UNL     1       7.278  23.836  53.739  1.00  0.00    -0.035 A 
HETATM   30  C   UNL     1       7.252  23.483  55.101  1.00  0.00     0.010 A 
HETATM   31  C   UNL     1       7.679  22.223  55.523  1.00  0.00     0.007 A 
HETATM   32  C   UNL     1       8.146  21.289  54.596  1.00  0.00    -0.062 A 
HETATM   33  C   UNL     1       8.573  19.923  55.047  1.00  0.00     0.048 C 
HETATM   34  C   UNL     1       8.154  21.625  53.237  1.00  0.00     0.007 A 
HETATM   35  C   UNL     1       7.728  22.887  52.812  1.00  0.00     0.010 A 
ENDBRANCH   1  29
TORSDOF 6
ENDMDL
MODEL 5
REMARK VINA RESULT:      -9.7      2.598      3.138
REMARK  6 active torsions:
REMARK  status: ('A' for Active; 'I' for Inactive)
REMARK    1  A    between atoms: C_5  and  C_6 
REMARK    2  A    between atoms: C_11  and  C_12 
REMARK       I    between atoms: C_12  and  N_13 
REMARK    3  A    between atoms: N_13  and  C_14 
REMARK    4  A    between atoms: C_16  and  C_17 
REMARK    5  A    between atoms: C_17  and  O_18 
REMARK    6  A    between atoms: C_25  and  C_26 
ROOT
HETATM    1  C   UNL     1       6.835  24.842  52.995  1.00  0.00     0.118 C 
HETATM    2  N   UNL     1       7.651  25.948  53.507  1.00  0.00    -0.366 N 
HETATM    3  C   UNL     1       7.098  27.042  54.069  1.00  0.00     0.123 A 
HETATM    4  N   UNL     1       5.787  27.357  53.854  1.00  0.00    -0.240 N 
HETATM    5  N   UNL     1       5.338  28.386  54.596  1.00  0.00    -0.165 NA
HETATM    6  C   UNL     1       6.448  28.797  55.255  1.00  0.00     0.148 A 
HETATM    7  C   UNL     1       7.581  28.004  54.914  1.00  0.00     0.089 A 
HETATM    8  C   UNL     1       4.907  26.526  53.057  1.00  0.00     0.221 C 
HETATM    9  C   UNL     1       5.326  25.061  53.241  1.00  0.00     0.066 C 
HETATM   10  H   UNL     1       8.624  25.705  53.695  1.00  0.00     0.161 HD
ENDROOT
BRANCH   6  11
HETATM   11  C   UNL     1       6.416  29.892  56.241  1.00  0.00     0.276 C 
HETATM   12  N   UNL     1       5.301  30.693  56.083  1.00  0.00    -0.322 N 
HETATM   13  H   UNL     1       4.730  30.436  55.280  1.00  0.00     0.169 HD
HETATM   14  O   UNL     1       7.295  30.016  57.086  1.00  0.00    -0.266 OA
BRANCH  12  15
HETATM   15  C   UNL     1       4.870  31.757  56.890  1.00  0.00     0.035 A 
HETATM   16  C   UNL     1       4.325  31.592  58.166  1.00  0.00     0.039 A 
HETATM   17  C   UNL     1       3.887  32.695  58.921  1.00  0.00    -0.028 A 
HETATM   18  C   UNL     1       4.019  33.979  58.376  1.00  0.00     0.010 A 
HETATM   19  C   UNL     1       4.560  34.154  57.103  1.00  0.00     0.003 A 
HETATM   20  C   UNL     1       4.978  33.048  56.361  1.00  0.00     0.029 A 
BRANCH  17  21
HETATM   21  C   UNL     1       3.306  32.463  60.300  1.00  0.00     0.147 C 
HETATM   22  C   UNL     1       4.263  32.919  61.395  1.00  0.00     0.044 C 
BRANCH  21  23
HETATM   23  O   UNL     1       2.067  33.157  60.449  1.00  0.00    -0.391 OA
HETATM   24  H   UNL     1       1.864  33.559  59.589  1.00  0.00     0.210 HD
ENDBRANCH  21  23
ENDBRANCH  17  21
ENDBRANCH  12  15
ENDBRANCH   6  11
BRANCH   8  25
HETATM   25  C   UNL     1       4.929  26.970  51.613  1.00  0.00     0.409 C 
HETATM   26  F   UNL     1       4.871  25.927  50.756  1.00  0.00    -0.169 F 
HETATM   27  F   UNL     1       3.938  27.826  51.291  1.00  0.00    -0.169 F 
HETATM   28  F   UNL     1       6.096  27.617  51.354  1.00  0.00    -0.169 F 
ENDBRANCH   8  25
BRANCH   1  29
HETATM   29  C   UNL     1       7.290  23.544  53.643  1.00  0.00    -0.035 A 
HETATM   30  C   UNL     1       7.237  23.375  55.038  1.00  0.00     0.010 A 
HETATM   31  C   UNL     1       7.643  22.178  55.631  1.00  0.00     0.007 A 
HETATM   32  C   UNL     1       8.115  21.125  54.845  1.00  0.00    -0.062 A 
HETATM   33  C   UNL     1       8.518  19.827  55.480  1.00  0.00     0.048 C 
HETATM   34  C   UNL     1       8.150  21.278  53.453  1.00  0.00     0.007 A 
HETATM   35  C   UNL     1       7.746  22.477  52.857  1.00  0.00     0.010 A 
ENDBRANCH   1  29
TORSDOF 6
ENDMDL
MODEL 6
REMARK VINA RESULT:      -9.6      4.488      9.011
REMARK  6 active torsions:
REMARK  status: ('A' for Active; 'I' for Inactive)
REMARK    1  A    between atoms: C_5  and  C_6 
REMARK    2  A    between atoms: C_11  and  C_12 
REMARK       I    between atoms: C_12  and  N_13 
REMARK    3  A    between atoms: N_13  and  C_14 
REMARK    4  A    between atoms: C_16  and  C_17 
REMARK    5  A    between atoms: C_17  and  O_18 
REMARK    6  A    between atoms: C_25  and  C_26 
ROOT
HETATM    1  C   UNL     1       6.569  25.407  55.191  1.00  0.00     0.118 C 
HETATM    2  N   UNL     1       5.250  25.610  54.584  1.00  0.00    -0.366 N 
HETATM    3  C   UNL     1       4.946  26.728  53.894  1.00  0.00     0.123 A 
HETATM    4  N   UNL     1       5.684  27.867  54.042  1.00  0.00    -0.240 N 
HETATM    5  N   UNL     1       5.358  28.851  53.184  1.00  0.00    -0.165 NA
HETATM    6  C   UNL     1       4.301  28.334  52.511  1.00  0.00     0.148 A 
HETATM    7  C   UNL     1       3.987  27.021  52.963  1.00  0.00     0.089 A 
HETATM    8  C   UNL     1       6.848  27.935  54.902  1.00  0.00     0.221 C 
HETATM    9  C   UNL     1       7.543  26.567  54.887  1.00  0.00     0.066 C 
HETATM   10  H   UNL     1       4.710  24.754  54.446  1.00  0.00     0.161 HD
ENDROOT
BRANCH   6  11
HETATM   11  C   UNL     1       3.637  29.060  51.413  1.00  0.00     0.276 C 
HETATM   12  N   UNL     1       3.671  28.347  50.231  1.00  0.00    -0.322 N 
HETATM   13  H   UNL     1       4.199  27.479  50.298  1.00  0.00     0.169 HD
HETATM   14  O   UNL     1       3.121  30.157  51.594  1.00  0.00    -0.266 OA
BRANCH  12  15
HETATM   15  C   UNL     1       3.056  28.656  49.007  1.00  0.00     0.035 A 
HETATM   16  C   UNL     1       1.930  27.992  48.515  1.00  0.00     0.039 A 
HETATM   17  C   UNL     1       1.371  28.329  47.269  1.00  0.00    -0.028 A 
HETATM   18  C   UNL     1       1.955  29.363  46.526  1.00  0.00     0.010 A 
HETATM   19  C   UNL     1       3.080  30.031  47.009  1.00  0.00     0.003 A 
HETATM   20  C   UNL     1       3.631  29.675  48.241  1.00  0.00     0.029 A 
BRANCH  17  21
HETATM   21  C   UNL     1       0.148  27.581  46.780  1.00  0.00     0.147 C 
HETATM   22  C   UNL     1      -0.941  28.535  46.304  1.00  0.00     0.044 C 
BRANCH  21  23
HETATM   23  O   UNL     1       0.490  26.698  45.711  1.00  0.00    -0.391 OA
HETATM   24  H   UNL     1      -0.116  26.897  44.978  1.00  0.00     0.210 HD
ENDBRANCH  21  23
ENDBRANCH  17  21
ENDBRANCH  12  15
ENDBRANCH   6  11
BRANCH   8  25
HETATM   25  C   UNL     1       6.453  28.381  56.290  1.00  0.00     0.409 C 
HETATM   26  F   UNL     1       5.163  28.094  56.572  1.00  0.00    -0.169 F 
HETATM   27  F   UNL     1       7.217  27.857  57.270  1.00  0.00    -0.169 F 
HETATM   28  F   UNL     1       6.578  29.732  56.387  1.00  0.00    -0.169 F 
ENDBRANCH   8  25
BRANCH   1  29
HETATM   29  C   UNL     1       7.149  24.091  54.697  1.00  0.00    -0.035 A 
HETATM   30  C   UNL     1       7.352  23.014  55.579  1.00  0.00     0.010 A 
HETATM   31  C   UNL     1       7.872  21.801  55.124  1.00  0.00     0.007 A 
HETATM   32  C   UNL     1       8.205  21.638  53.778  1.00  0.00    -0.062 A 
HETATM   33  C   UNL     1       8.732  20.323  53.282  1.00  0.00     0.048 C 
HETATM   34  C   UNL     1       7.985  22.698  52.889  1.00  0.00     0.007 A 
HETATM   35  C   UNL     1       7.467  23.914  53.344  1.00  0.00     0.010 A 
ENDBRANCH   1  29
TORSDOF 6
ENDMDL
MODEL 7
REMARK VINA RESULT:      -9.5      2.862      4.418
REMARK  6 active torsions:
REMARK  status: ('A' for Active; 'I' for Inactive)
REMARK    1  A    between atoms: C_5  and  C_6 
REMARK    2  A    between atoms: C_11  and  C_12 
REMARK       I    between atoms: C_12  and  N_13 
REMARK    3  A    between atoms: N_13  and  C_14 
REMARK    4  A    between atoms: C_16  and  C_17 
REMARK    5  A    between atoms: C_17  and  O_18 
REMARK    6  A    between atoms: C_25  and  C_26 
ROOT
HETATM    1  C   UNL     1       5.470  26.172  54.040  1.00  0.00     0.118 C 
HETATM    2  N   UNL     1       4.826  27.140  54.933  1.00  0.00    -0.366 N 
HETATM    3  C   UNL     1       5.515  27.799  55.887  1.00  0.00     0.123 A 
HETATM    4  N   UNL     1       6.724  27.341  56.325  1.00  0.00    -0.240 N 
HETATM    5  N   UNL     1       7.360  28.178  57.165  1.00  0.00    -0.165 NA
HETATM    6  C   UNL     1       6.467  29.184  57.331  1.00  0.00     0.148 A 
HETATM    7  C   UNL     1       5.280  28.956  56.579  1.00  0.00     0.089 A 
HETATM    8  C   UNL     1       7.356  26.160  55.773  1.00  0.00     0.221 C 
HETATM    9  C   UNL     1       6.992  26.066  54.285  1.00  0.00     0.066 C 
HETATM   10  H   UNL     1       3.936  27.506  54.591  1.00  0.00     0.161 HD
ENDROOT
BRANCH   6  11
HETATM   11  C   UNL     1       6.766  30.373  58.149  1.00  0.00     0.276 C 
HETATM   12  N   UNL     1       7.365  30.034  59.348  1.00  0.00    -0.322 N 
HETATM   13  H   UNL     1       7.438  29.029  59.493  1.00  0.00     0.169 HD
HETATM   14  O   UNL     1       6.506  31.502  57.752  1.00  0.00    -0.266 OA
BRANCH  12  15
HETATM   15  C   UNL     1       7.890  30.886  60.332  1.00  0.00     0.035 A 
HETATM   16  C   UNL     1       7.104  31.599  61.240  1.00  0.00     0.039 A 
HETATM   17  C   UNL     1       7.686  32.459  62.191  1.00  0.00    -0.028 A 
HETATM   18  C   UNL     1       9.081  32.580  62.224  1.00  0.00     0.010 A 
HETATM   19  C   UNL     1       9.873  31.873  61.320  1.00  0.00     0.003 A 
HETATM   20  C   UNL     1       9.280  31.035  60.375  1.00  0.00     0.029 A 
BRANCH  17  21
HETATM   21  C   UNL     1       6.790  33.208  63.155  1.00  0.00     0.147 C 
HETATM   22  C   UNL     1       7.483  33.447  64.492  1.00  0.00     0.044 C 
BRANCH  21  23
HETATM   23  O   UNL     1       6.397  34.466  62.606  1.00  0.00    -0.391 OA
HETATM   24  H   UNL     1       6.534  34.410  61.646  1.00  0.00     0.210 HD
ENDBRANCH  21  23
ENDBRANCH  17  21
ENDBRANCH  12  15
ENDBRANCH   6  11
BRANCH   8  25
HETATM   25  C   UNL     1       6.954  24.932  56.557  1.00  0.00     0.409 C 
HETATM   26  F   UNL     1       6.633  23.893  55.754  1.00  0.00    -0.169 F 
HETATM   27  F   UNL     1       7.894  24.508  57.425  1.00  0.00    -0.169 F 
HETATM   28  F   UNL     1       5.845  25.206  57.294  1.00  0.00    -0.169 F 
ENDBRANCH   8  25
BRANCH   1  29
HETATM   29  C   UNL     1       5.195  26.563  52.597  1.00  0.00    -0.035 A 
HETATM   30  C   UNL     1       5.017  27.910  52.234  1.00  0.00     0.010 A 
HETATM   31  C   UNL     1       4.779  28.270  50.907  1.00  0.00     0.007 A 
HETATM   32  C   UNL     1       4.707  27.292  49.913  1.00  0.00    -0.062 A 
HETATM   33  C   UNL     1       4.484  27.682  48.481  1.00  0.00     0.048 C 
HETATM   34  C   UNL     1       4.905  25.950  50.262  1.00  0.00     0.007 A 
HETATM   35  C   UNL     1       5.143  25.588  51.592  1.00  0.00     0.010 A 
ENDBRANCH   1  29
TORSDOF 6
ENDMDL
MODEL 8
REMARK VINA RESULT:      -9.4      4.251      7.578
REMARK  6 active torsions:
REMARK  status: ('A' for Active; 'I' for Inactive)
REMARK    1  A    between atoms: C_5  and  C_6 
REMARK    2  A    between atoms: C_11  and  C_12 
REMARK       I    between atoms: C_12  and  N_13 
REMARK    3  A    between atoms: N_13  and  C_14 
REMARK    4  A    between atoms: C_16  and  C_17 
REMARK    5  A    between atoms: C_17  and  O_18 
REMARK    6  A    between atoms: C_25  and  C_26 
ROOT
HETATM    1  C   UNL     1       6.553  25.096  55.560  1.00  0.00     0.118 C 
HETATM    2  N   UNL     1       5.366  25.573  54.844  1.00  0.00    -0.366 N 
HETATM    3  C   UNL     1       5.268  26.837  54.387  1.00  0.00     0.123 A 
HETATM    4  N   UNL     1       6.066  27.828  54.881  1.00  0.00    -0.240 N 
HETATM    5  N   UNL     1       5.961  28.999  54.228  1.00  0.00    -0.165 NA
HETATM    6  C   UNL     1       4.982  28.760  53.322  1.00  0.00     0.148 A 
HETATM    7  C   UNL     1       4.493  27.426  53.425  1.00  0.00     0.089 A 
HETATM    8  C   UNL     1       7.085  27.580  55.882  1.00  0.00     0.221 C 
HETATM    9  C   UNL     1       7.656  26.174  55.655  1.00  0.00     0.066 C 
HETATM   10  H   UNL     1       4.784  24.833  54.448  1.00  0.00     0.161 HD
ENDROOT
BRANCH   6  11
HETATM   11  C   UNL     1       4.560  29.770  52.335  1.00  0.00     0.276 C 
HETATM   12  N   UNL     1       5.467  29.887  51.300  1.00  0.00    -0.322 N 
HETATM   13  H   UNL     1       6.297  29.312  51.424  1.00  0.00     0.169 HD
HETATM   14  O   UNL     1       3.510  30.388  52.465  1.00  0.00    -0.266 OA
BRANCH  12  15
HETATM   15  C   UNL     1       5.361  30.656  50.130  1.00  0.00     0.035 A 
HETATM   16  C   UNL     1       5.927  31.925  49.982  1.00  0.00     0.039 A 
HETATM   17  C   UNL     1       5.767  32.660  48.793  1.00  0.00    -0.028 A 
HETATM   18  C   UNL     1       5.037  32.090  47.742  1.00  0.00     0.010 A 
HETATM   19  C   UNL     1       4.468  30.825  47.881  1.00  0.00     0.003 A 
HETATM   20  C   UNL     1       4.624  30.114  49.072  1.00  0.00     0.029 A 
BRANCH  17  21
HETATM   21  C   UNL     1       6.401  34.030  48.680  1.00  0.00     0.147 C 
HETATM   22  C   UNL     1       7.664  33.995  47.827  1.00  0.00     0.044 C 
BRANCH  21  23
HETATM   23  O   UNL     1       5.485  34.966  48.112  1.00  0.00    -0.391 OA
HETATM   24  H   UNL     1       5.234  35.580  48.821  1.00  0.00     0.210 HD
ENDBRANCH  21  23
ENDBRANCH  17  21
ENDBRANCH  12  15
ENDBRANCH   6  11
BRANCH   8  25
HETATM   25  C   UNL     1       6.517  27.770  57.269  1.00  0.00     0.409 C 
HETATM   26  F   UNL     1       7.049  26.908  58.163  1.00  0.00    -0.169 F 
HETATM   27  F   UNL     1       6.673  29.018  57.756  1.00  0.00    -0.169 F 
HETATM   28  F   UNL     1       5.179  27.529  57.250  1.00  0.00    -0.169 F 
ENDBRANCH   8  25
BRANCH   1  29
HETATM   29  C   UNL     1       7.090  23.854  54.868  1.00  0.00    -0.035 A 
HETATM   30  C   UNL     1       7.400  22.695  55.602  1.00  0.00     0.010 A 
HETATM   31  C   UNL     1       7.880  21.549  54.964  1.00  0.00     0.007 A 
HETATM   32  C   UNL     1       8.067  21.538  53.581  1.00  0.00    -0.062 A 
HETATM   33  C   UNL     1       8.550  20.295  52.892  1.00  0.00     0.048 C 
HETATM   34  C   UNL     1       7.739  22.681  52.841  1.00  0.00     0.007 A 
HETATM   35  C   UNL     1       7.260  23.829  53.478  1.00  0.00     0.010 A 
ENDBRANCH   1  29
TORSDOF 6
ENDMDL
MODEL 9
REMARK VINA RESULT:      -9.4      2.684      4.000
REMARK  6 active torsions:
REMARK  status: ('A' for Active; 'I' for Inactive)
REMARK    1  A    between atoms: C_5  and  C_6 
REMARK    2  A    between atoms: C_11  and  C_12 
REMARK       I    between atoms: C_12  and  N_13 
REMARK    3  A    between atoms: N_13  and  C_14 
REMARK    4  A    between atoms: C_16  and  C_17 
REMARK    5  A    between atoms: C_17  and  O_18 
REMARK    6  A    between atoms: C_25  and  C_26 
ROOT
HETATM    1  C   UNL     1       6.372  27.703  55.574  1.00  0.00     0.118 C 
HETATM    2  N   UNL     1       7.429  28.638  55.970  1.00  0.00    -0.366 N 
HETATM    3  C   UNL     1       7.217  29.611  56.880  1.00  0.00     0.123 A 
HETATM    4  N   UNL     1       5.952  30.021  57.189  1.00  0.00    -0.240 N 
HETATM    5  N   UNL     1       5.889  30.888  58.216  1.00  0.00    -0.165 NA
HETATM    6  C   UNL     1       7.192  31.100  58.520  1.00  0.00     0.148 A 
HETATM    7  C   UNL     1       8.054  30.350  57.671  1.00  0.00     0.089 A 
HETATM    8  C   UNL     1       4.772  29.418  56.602  1.00  0.00     0.221 C 
HETATM    9  C   UNL     1       5.060  27.930  56.357  1.00  0.00     0.066 C 
HETATM   10  H   UNL     1       8.377  28.319  55.766  1.00  0.00     0.161 HD
ENDROOT
BRANCH   6  11
HETATM   11  C   UNL     1       7.607  31.962  59.642  1.00  0.00     0.276 C 
HETATM   12  N   UNL     1       6.648  32.009  60.636  1.00  0.00    -0.322 N 
HETATM   13  H   UNL     1       5.798  31.500  60.401  1.00  0.00     0.169 HD
HETATM   14  O   UNL     1       8.693  32.530  59.642  1.00  0.00    -0.266 OA
BRANCH  12  15
HETATM   15  C   UNL     1       6.725  32.627  61.894  1.00  0.00     0.035 A 
HETATM   16  C   UNL     1       5.812  33.583  62.345  1.00  0.00     0.039 A 
HETATM   17  C   UNL     1       5.953  34.188  63.608  1.00  0.00    -0.028 A 
HETATM   18  C   UNL     1       7.025  33.803  64.422  1.00  0.00     0.010 A 
HETATM   19  C   UNL     1       7.943  32.851  63.979  1.00  0.00     0.003 A 
HETATM   20  C   UNL     1       7.796  32.270  62.719  1.00  0.00     0.029 A 
BRANCH  17  21
HETATM   21  C   UNL     1       4.935  35.217  64.052  1.00  0.00     0.147 C 
HETATM   22  C   UNL     1       3.526  34.838  63.613  1.00  0.00     0.044 C 
BRANCH  21  23
HETATM   23  O   UNL     1       4.954  35.365  65.472  1.00  0.00    -0.391 OA
HETATM   24  H   UNL     1       5.316  36.247  65.658  1.00  0.00     0.210 HD
ENDBRANCH  21  23
ENDBRANCH  17  21
ENDBRANCH  12  15
ENDBRANCH   6  11
BRANCH   8  25
HETATM   25  C   UNL     1       4.372  30.156  55.347  1.00  0.00     0.409 C 
HETATM   26  F   UNL     1       4.690  29.472  54.226  1.00  0.00    -0.169 F 
HETATM   27  F   UNL     1       3.059  30.459  55.287  1.00  0.00    -0.169 F 
HETATM   28  F   UNL     1       5.042  31.338  55.281  1.00  0.00    -0.169 F 
ENDBRANCH   8  25
BRANCH   1  29
HETATM   29  C   UNL     1       6.864  26.278  55.774  1.00  0.00    -0.035 A 
HETATM   30  C   UNL     1       6.451  25.244  54.916  1.00  0.00     0.010 A 
HETATM   31  C   UNL     1       6.913  23.938  55.092  1.00  0.00     0.007 A 
HETATM   32  C   UNL     1       7.794  23.636  56.132  1.00  0.00    -0.062 A 
HETATM   33  C   UNL     1       8.317  22.240  56.299  1.00  0.00     0.048 C 
HETATM   34  C   UNL     1       8.227  24.665  56.977  1.00  0.00     0.007 A 
HETATM   35  C   UNL     1       7.764  25.973  56.804  1.00  0.00     0.010 A 
ENDBRANCH   1  29
TORSDOF 6
ENDMDL
MODEL 10
REMARK VINA RESULT:      -9.3      3.015      3.924
REMARK  6 active torsions:
REMARK  status: ('A' for Active; 'I' for Inactive)
REMARK    1  A    between atoms: C_5  and  C_6 
REMARK    2  A    between atoms: C_11  and  C_12 
REMARK       I    between atoms: C_12  and  N_13 
REMARK    3  A    between atoms: N_13  and  C_14 
REMARK    4  A    between atoms: C_16  and  C_17 
REMARK    5  A    between atoms: C_17  and  O_18 
REMARK    6  A    between atoms: C_25  and  C_26 
ROOT
HETATM    1  C   UNL     1       6.839  24.795  52.917  1.00  0.00     0.118 C 
HETATM    2  N   UNL     1       7.628  25.928  53.412  1.00  0.00    -0.366 N 
HETATM    3  C   UNL     1       7.048  27.029  53.932  1.00  0.00     0.123 A 
HETATM    4  N   UNL     1       5.737  27.317  53.682  1.00  0.00    -0.240 N 
HETATM    5  N   UNL     1       5.259  28.360  54.386  1.00  0.00    -0.165 NA
HETATM    6  C   UNL     1       6.349  28.806  55.055  1.00  0.00     0.148 A 
HETATM    7  C   UNL     1       7.500  28.021  54.758  1.00  0.00     0.089 A 
HETATM    8  C   UNL     1       4.886  26.451  52.893  1.00  0.00     0.221 C 
HETATM    9  C   UNL     1       5.322  24.998  53.126  1.00  0.00     0.066 C 
HETATM   10  H   UNL     1       8.601  25.705  53.627  1.00  0.00     0.161 HD
ENDROOT
BRANCH   6  11
HETATM   11  C   UNL     1       6.281  29.928  56.008  1.00  0.00     0.276 C 
HETATM   12  N   UNL     1       5.288  30.828  55.672  1.00  0.00    -0.322 N 
HETATM   13  H   UNL     1       4.819  30.604  54.797  1.00  0.00     0.169 HD
HETATM   14  O   UNL     1       7.033  29.991  56.974  1.00  0.00    -0.266 OA
BRANCH  12  15
HETATM   15  C   UNL     1       4.851  31.953  56.390  1.00  0.00     0.035 A 
HETATM   16  C   UNL     1       4.981  33.265  55.929  1.00  0.00     0.039 A 
HETATM   17  C   UNL     1       4.546  34.356  56.704  1.00  0.00    -0.028 A 
HETATM   18  C   UNL     1       3.959  34.105  57.951  1.00  0.00     0.010 A 
HETATM   19  C   UNL     1       3.826  32.799  58.419  1.00  0.00     0.003 A 
HETATM   20  C   UNL     1       4.275  31.728  57.645  1.00  0.00     0.029 A 
BRANCH  17  21
HETATM   21  C   UNL     1       4.707  35.760  56.160  1.00  0.00     0.147 C 
HETATM   22  C   UNL     1       4.570  36.807  57.259  1.00  0.00     0.044 C 
BRANCH  21  23
HETATM   23  O   UNL     1       5.979  35.915  55.529  1.00  0.00    -0.391 OA
HETATM   24  H   UNL     1       5.886  36.632  54.881  1.00  0.00     0.210 HD
ENDBRANCH  21  23
ENDBRANCH  17  21
ENDBRANCH  12  15
ENDBRANCH   6  11
BRANCH   8  25
HETATM   25  C   UNL     1       4.930  26.854  51.437  1.00  0.00     0.409 C 
HETATM   26  F   UNL     1       3.891  27.647  51.093  1.00  0.00    -0.169 F 
HETATM   27  F   UNL     1       6.067  27.484  51.080  1.00  0.00    -0.169 F 
HETATM   28  F   UNL     1       4.843  25.745  50.655  1.00  0.00    -0.169 F 
ENDBRANCH   8  25
BRANCH   1  29
HETATM   29  C   UNL     1       7.300  23.523  53.610  1.00  0.00    -0.035 A 
HETATM   30  C   UNL     1       7.187  23.378  55.004  1.00  0.00     0.010 A 
HETATM   31  C   UNL     1       7.598  22.204  55.638  1.00  0.00     0.007 A 
HETATM   32  C   UNL     1       8.136  21.152  54.896  1.00  0.00    -0.062 A 
HETATM   33  C   UNL     1       8.546  19.878  55.574  1.00  0.00     0.048 C 
HETATM   34  C   UNL     1       8.231  21.280  53.504  1.00  0.00     0.007 A 
HETATM   35  C   UNL     1       7.822  22.456  52.867  1.00  0.00     0.010 A 
ENDBRANCH   1  29
TORSDOF 6
ENDMDL
