MODEL 1
REMARK VINA RESULT:      -9.2      0.000      0.000
REMARK  2 active torsions:
REMARK  status: ('A' for Active; 'I' for Inactive)
REMARK    1  A    between atoms: C_6  and  N_7 
REMARK    2  A    between atoms: N_7  and  C_8 
ROOT
HETATM    1  C   UNL     1       7.535  27.196  57.590  1.00  0.00     0.093 C 
HETATM    2  C   UNL     1       7.663  26.035  56.652  1.00  0.00     0.125 A 
HETATM    3  N   UNL     1       7.885  24.834  57.191  1.00  0.00    -0.226 NA
HETATM    4  C   UNL     1       7.961  23.857  56.277  1.00  0.00     0.114 A 
HETATM    5  C   UNL     1       7.824  23.997  54.895  1.00  0.00     0.053 A 
HETATM    6  C   UNL     1       7.597  25.308  54.422  1.00  0.00     0.143 A 
HETATM    7  N   UNL     1       7.518  26.302  55.341  1.00  0.00    -0.215 NA
HETATM    8  S   UNL     1       8.260  22.235  56.771  1.00  0.00    -0.073 SA
HETATM    9  C   UNL     1       8.210  21.722  55.184  1.00  0.00    -0.008 A 
HETATM   10  C   UNL     1       7.965  22.719  54.279  1.00  0.00    -0.028 A 
HETATM   11  C   UNL     1       7.941  22.173  52.897  1.00  0.00     0.041 C 
HETATM   12  C   UNL     1       7.873  20.633  53.139  1.00  0.00     0.010 C 
HETATM   13  C   UNL     1       8.392  20.380  54.585  1.00  0.00     0.047 C 
ENDROOT
BRANCH   6  14
HETATM   14  N   UNL     1       7.436  25.572  53.054  1.00  0.00    -0.340 N 
HETATM   15  H   UNL     1       8.155  25.160  52.480  1.00  0.00     0.167 HD
BRANCH  14  16
HETATM   16  C   UNL     1       6.524  26.370  52.338  1.00  0.00     0.036 A 
HETATM   17  C   UNL     1       5.902  25.814  51.204  1.00  0.00     0.069 A 
HETATM   18  C   UNL     1       4.990  26.574  50.501  1.00  0.00     0.107 A 
HETATM   19  C   UNL     1       4.668  27.854  50.881  1.00  0.00     0.105 A 
HETATM   20  O   UNL     1       4.316  26.179  49.388  1.00  0.00    -0.323 OA
HETATM   21  O   UNL     1       3.755  28.428  50.056  1.00  0.00    -0.323 OA
HETATM   22  C   UNL     1       5.239  28.436  51.988  1.00  0.00     0.042 A 
HETATM   23  C   UNL     1       3.535  27.361  49.111  1.00  0.00     0.352 A 
HETATM   24  C   UNL     1       6.168  27.681  52.719  1.00  0.00     0.032 A 
ENDBRANCH  14  16
ENDBRANCH   6  14
TORSDOF 2
ENDMDL
MODEL 2
REMARK VINA RESULT:      -9.2      4.311      6.683
REMARK  2 active torsions:
REMARK  status: ('A' for Active; 'I' for Inactive)
REMARK    1  A    between atoms: C_6  and  N_7 
REMARK    2  A    between atoms: N_7  and  C_8 
ROOT
HETATM    1  C   UNL     1       4.594  29.341  53.903  1.00  0.00     0.093 C 
HETATM    2  C   UNL     1       5.419  28.159  54.311  1.00  0.00     0.125 A 
HETATM    3  N   UNL     1       5.217  27.015  53.654  1.00  0.00    -0.226 NA
HETATM    4  C   UNL     1       6.016  26.023  54.072  1.00  0.00     0.114 A 
HETATM    5  C   UNL     1       6.985  26.101  55.073  1.00  0.00     0.053 A 
HETATM    6  C   UNL     1       7.119  27.354  55.713  1.00  0.00     0.143 A 
HETATM    7  N   UNL     1       6.315  28.362  55.295  1.00  0.00    -0.215 NA
HETATM    8  S   UNL     1       5.896  24.460  53.360  1.00  0.00    -0.073 SA
HETATM    9  C   UNL     1       7.108  23.893  54.358  1.00  0.00    -0.008 A 
HETATM   10  C   UNL     1       7.620  24.833  55.211  1.00  0.00    -0.028 A 
HETATM   11  C   UNL     1       8.687  24.240  56.059  1.00  0.00     0.041 C 
HETATM   12  C   UNL     1       8.972  22.880  55.349  1.00  0.00     0.010 C 
HETATM   13  C   UNL     1       7.718  22.550  54.485  1.00  0.00     0.047 C 
ENDROOT
BRANCH   6  14
HETATM   14  N   UNL     1       8.066  27.556  56.729  1.00  0.00    -0.340 N 
HETATM   15  H   UNL     1       8.287  26.716  57.241  1.00  0.00     0.167 HD
BRANCH  14  16
HETATM   16  C   UNL     1       8.694  28.711  57.230  1.00  0.00     0.036 A 
HETATM   17  C   UNL     1       8.104  29.364  58.329  1.00  0.00     0.069 A 
HETATM   18  C   UNL     1       8.716  30.487  58.847  1.00  0.00     0.107 A 
HETATM   19  C   UNL     1       9.886  30.980  58.325  1.00  0.00     0.105 A 
HETATM   20  O   UNL     1       8.265  31.225  59.897  1.00  0.00    -0.323 OA
HETATM   21  O   UNL     1      10.320  32.090  58.975  1.00  0.00    -0.323 OA
HETATM   22  C   UNL     1      10.507  30.370  57.261  1.00  0.00     0.042 A 
HETATM   23  C   UNL     1       9.288  32.241  59.972  1.00  0.00     0.352 A 
HETATM   24  C   UNL     1       9.904  29.226  56.719  1.00  0.00     0.032 A 
ENDBRANCH  14  16
ENDBRANCH   6  14
TORSDOF 2
ENDMDL
MODEL 3
REMARK VINA RESULT:      -9.1      3.637      6.965
REMARK  2 active torsions:
REMARK  status: ('A' for Active; 'I' for Inactive)
REMARK    1  A    between atoms: C_6  and  N_7 
REMARK    2  A    between atoms: N_7  and  C_8 
ROOT
HETATM    1  C   UNL     1       4.671  26.373  49.887  1.00  0.00     0.093 C 
HETATM    2  C   UNL     1       5.220  26.601  51.262  1.00  0.00     0.125 A 
HETATM    3  N   UNL     1       4.602  27.506  52.025  1.00  0.00    -0.226 NA
HETATM    4  C   UNL     1       5.149  27.624  53.243  1.00  0.00     0.114 A 
HETATM    5  C   UNL     1       6.241  26.910  53.738  1.00  0.00     0.053 A 
HETATM    6  C   UNL     1       6.829  25.980  52.852  1.00  0.00     0.143 A 
HETATM    7  N   UNL     1       6.281  25.854  51.619  1.00  0.00    -0.215 NA
HETATM    8  S   UNL     1       4.506  28.754  54.372  1.00  0.00    -0.073 SA
HETATM    9  C   UNL     1       5.651  28.306  55.501  1.00  0.00    -0.008 A 
HETATM   10  C   UNL     1       6.506  27.326  55.075  1.00  0.00    -0.028 A 
HETATM   11  C   UNL     1       7.488  26.994  56.140  1.00  0.00     0.041 C 
HETATM   12  C   UNL     1       6.879  27.691  57.397  1.00  0.00     0.010 C 
HETATM   13  C   UNL     1       5.906  28.790  56.876  1.00  0.00     0.047 C 
ENDROOT
BRANCH   6  14
HETATM   14  N   UNL     1       7.927  25.198  53.240  1.00  0.00    -0.340 N 
HETATM   15  H   UNL     1       8.812  25.670  53.136  1.00  0.00     0.167 HD
BRANCH  14  16
HETATM   16  C   UNL     1       8.043  23.858  53.657  1.00  0.00     0.036 A 
HETATM   17  C   UNL     1       8.275  23.605  55.022  1.00  0.00     0.069 A 
HETATM   18  C   UNL     1       8.372  22.297  55.452  1.00  0.00     0.107 A 
HETATM   19  C   UNL     1       8.241  21.239  54.588  1.00  0.00     0.105 A 
HETATM   20  O   UNL     1       8.599  21.896  56.732  1.00  0.00    -0.323 OA
HETATM   21  O   UNL     1       8.371  20.039  55.210  1.00  0.00    -0.323 OA
HETATM   22  C   UNL     1       8.000  21.435  53.249  1.00  0.00     0.042 A 
HETATM   23  C   UNL     1       8.598  20.462  56.570  1.00  0.00     0.352 A 
HETATM   24  C   UNL     1       7.896  22.756  52.789  1.00  0.00     0.032 A 
ENDBRANCH  14  16
ENDBRANCH   6  14
TORSDOF 2
ENDMDL
MODEL 4
REMARK VINA RESULT:      -9.1      3.401      5.774
REMARK  2 active torsions:
REMARK  status: ('A' for Active; 'I' for Inactive)
REMARK    1  A    between atoms: C_6  and  N_7 
REMARK    2  A    between atoms: N_7  and  C_8 
ROOT
HETATM    1  C   UNL     1       5.062  26.512  50.558  1.00  0.00     0.093 C 
HETATM    2  C   UNL     1       5.647  26.032  51.850  1.00  0.00     0.125 A 
HETATM    3  N   UNL     1       6.266  24.849  51.840  1.00  0.00    -0.226 NA
HETATM    4  C   UNL     1       6.776  24.516  53.034  1.00  0.00     0.114 A 
HETATM    5  C   UNL     1       6.718  25.272  54.205  1.00  0.00     0.053 A 
HETATM    6  C   UNL     1       6.037  26.507  54.115  1.00  0.00     0.143 A 
HETATM    7  N   UNL     1       5.518  26.852  52.911  1.00  0.00    -0.215 NA
HETATM    8  S   UNL     1       7.599  23.016  53.232  1.00  0.00    -0.073 SA
HETATM    9  C   UNL     1       7.876  23.359  54.842  1.00  0.00    -0.008 A 
HETATM   10  C   UNL     1       7.384  24.569  55.251  1.00  0.00    -0.028 A 
HETATM   11  C   UNL     1       7.674  24.788  56.692  1.00  0.00     0.041 C 
HETATM   12  C   UNL     1       8.714  23.668  57.006  1.00  0.00     0.010 C 
HETATM   13  C   UNL     1       8.553  22.580  55.903  1.00  0.00     0.047 C 
ENDROOT
BRANCH   6  14
HETATM   14  N   UNL     1       5.920  27.357  55.224  1.00  0.00    -0.340 N 
HETATM   15  H   UNL     1       4.965  27.580  55.459  1.00  0.00     0.167 HD
BRANCH  14  16
HETATM   16  C   UNL     1       6.872  28.031  56.012  1.00  0.00     0.036 A 
HETATM   17  C   UNL     1       8.014  28.551  55.374  1.00  0.00     0.069 A 
HETATM   18  C   UNL     1       8.949  29.232  56.127  1.00  0.00     0.107 A 
HETATM   19  C   UNL     1       8.792  29.423  57.477  1.00  0.00     0.105 A 
HETATM   20  O   UNL     1      10.100  29.783  55.657  1.00  0.00    -0.323 OA
HETATM   21  O   UNL     1       9.822  30.113  58.030  1.00  0.00    -0.323 OA
HETATM   22  C   UNL     1       7.688  28.946  58.143  1.00  0.00     0.042 A 
HETATM   23  C   UNL     1      10.649  30.340  56.870  1.00  0.00     0.352 A 
HETATM   24  C   UNL     1       6.723  28.251  57.398  1.00  0.00     0.032 A 
ENDBRANCH  14  16
ENDBRANCH   6  14
TORSDOF 2
ENDMDL
MODEL 5
REMARK VINA RESULT:      -8.8      1.696      2.281
REMARK  2 active torsions:
REMARK  status: ('A' for Active; 'I' for Inactive)
REMARK    1  A    between atoms: C_6  and  N_7 
REMARK    2  A    between atoms: N_7  and  C_8 
ROOT
HETATM    1  C   UNL     1       5.436  28.343  57.331  1.00  0.00     0.093 C 
HETATM    2  C   UNL     1       5.938  27.209  56.491  1.00  0.00     0.125 A 
HETATM    3  N   UNL     1       6.908  26.448  57.006  1.00  0.00    -0.226 NA
HETATM    4  C   UNL     1       7.274  25.448  56.192  1.00  0.00     0.114 A 
HETATM    5  C   UNL     1       6.743  25.160  54.935  1.00  0.00     0.053 A 
HETATM    6  C   UNL     1       5.726  26.027  54.476  1.00  0.00     0.143 A 
HETATM    7  N   UNL     1       5.349  27.041  55.293  1.00  0.00    -0.215 NA
HETATM    8  S   UNL     1       8.524  24.364  56.668  1.00  0.00    -0.073 SA
HETATM    9  C   UNL     1       8.367  23.524  55.234  1.00  0.00    -0.008 A 
HETATM   10  C   UNL     1       7.399  24.014  54.399  1.00  0.00    -0.028 A 
HETATM   11  C   UNL     1       7.332  23.210  53.151  1.00  0.00     0.041 C 
HETATM   12  C   UNL     1       8.181  21.950  53.510  1.00  0.00     0.010 C 
HETATM   13  C   UNL     1       9.096  22.348  54.707  1.00  0.00     0.047 C 
ENDROOT
BRANCH   6  14
HETATM   14  N   UNL     1       5.110  25.833  53.230  1.00  0.00    -0.340 N 
HETATM   15  H   UNL     1       4.601  24.965  53.167  1.00  0.00     0.167 HD
BRANCH  14  16
HETATM   16  C   UNL     1       5.141  26.564  52.028  1.00  0.00     0.036 A 
HETATM   17  C   UNL     1       5.519  27.919  52.084  1.00  0.00     0.069 A 
HETATM   18  C   UNL     1       5.574  28.647  50.913  1.00  0.00     0.107 A 
HETATM   19  C   UNL     1       5.277  28.085  49.696  1.00  0.00     0.105 A 
HETATM   20  O   UNL     1       5.915  29.960  50.808  1.00  0.00    -0.323 OA
HETATM   21  O   UNL     1       5.389  28.970  48.672  1.00  0.00    -0.323 OA
HETATM   22  C   UNL     1       4.915  26.763  49.588  1.00  0.00     0.042 A 
HETATM   23  C   UNL     1       5.794  30.157  49.383  1.00  0.00     0.352 A 
HETATM   24  C   UNL     1       4.854  26.003  50.766  1.00  0.00     0.032 A 
ENDBRANCH  14  16
ENDBRANCH   6  14
TORSDOF 2
ENDMDL
MODEL 6
REMARK VINA RESULT:      -8.6      1.940      2.624
REMARK  2 active torsions:
REMARK  status: ('A' for Active; 'I' for Inactive)
REMARK    1  A    between atoms: C_6  and  N_7 
REMARK    2  A    between atoms: N_7  and  C_8 
ROOT
HETATM    1  C   UNL     1       4.192  28.901  56.052  1.00  0.00     0.093 C 
HETATM    2  C   UNL     1       4.976  27.821  55.373  1.00  0.00     0.125 A 
HETATM    3  N   UNL     1       5.365  26.785  56.120  1.00  0.00    -0.226 NA
HETATM    4  C   UNL     1       6.039  25.861  55.420  1.00  0.00     0.114 A 
HETATM    5  C   UNL     1       6.334  25.899  54.057  1.00  0.00     0.053 A 
HETATM    6  C   UNL     1       5.885  27.040  53.356  1.00  0.00     0.143 A 
HETATM    7  N   UNL     1       5.202  27.979  54.055  1.00  0.00    -0.215 NA
HETATM    8  S   UNL     1       6.642  24.454  56.209  1.00  0.00    -0.073 SA
HETATM    9  C   UNL     1       7.284  23.901  54.771  1.00  0.00    -0.008 A 
HETATM   10  C   UNL     1       7.060  24.725  53.701  1.00  0.00    -0.028 A 
HETATM   11  C   UNL     1       7.666  24.157  52.469  1.00  0.00     0.041 C 
HETATM   12  C   UNL     1       8.001  22.694  52.897  1.00  0.00     0.010 C 
HETATM   13  C   UNL     1       8.059  22.680  54.453  1.00  0.00     0.047 C 
ENDROOT
BRANCH   6  14
HETATM   14  N   UNL     1       6.116  27.187  51.980  1.00  0.00    -0.340 N 
HETATM   15  H   UNL     1       7.094  27.252  51.743  1.00  0.00     0.167 HD
BRANCH  14  16
HETATM   16  C   UNL     1       5.252  27.353  50.881  1.00  0.00     0.036 A 
HETATM   17  C   UNL     1       4.847  26.205  50.175  1.00  0.00     0.069 A 
HETATM   18  C   UNL     1       3.984  26.346  49.107  1.00  0.00     0.107 A 
HETATM   19  C   UNL     1       3.505  27.573  48.720  1.00  0.00     0.105 A 
HETATM   20  O   UNL     1       3.511  25.335  48.328  1.00  0.00    -0.323 OA
HETATM   21  O   UNL     1       2.674  27.493  47.649  1.00  0.00    -0.323 OA
HETATM   22  C   UNL     1       3.862  28.721  49.385  1.00  0.00     0.042 A 
HETATM   23  C   UNL     1       2.681  26.072  47.405  1.00  0.00     0.352 A 
HETATM   24  C   UNL     1       4.736  28.602  50.475  1.00  0.00     0.032 A 
ENDBRANCH  14  16
ENDBRANCH   6  14
TORSDOF 2
ENDMDL
MODEL 7
REMARK VINA RESULT:      -8.6      8.119     11.427
REMARK  2 active torsions:
REMARK  status: ('A' for Active; 'I' for Inactive)
REMARK    1  A    between atoms: C_6  and  N_7 
REMARK    2  A    between atoms: N_7  and  C_8 
ROOT
HETATM    1  C   UNL     1       3.288  33.650  58.080  1.00  0.00     0.093 C 
HETATM    2  C   UNL     1       4.189  33.533  59.271  1.00  0.00     0.125 A 
HETATM    3  N   UNL     1       3.992  34.391  60.275  1.00  0.00    -0.226 NA
HETATM    4  C   UNL     1       4.829  34.193  61.303  1.00  0.00     0.114 A 
HETATM    5  C   UNL     1       5.820  33.215  61.394  1.00  0.00     0.053 A 
HETATM    6  C   UNL     1       5.954  32.360  60.278  1.00  0.00     0.143 A 
HETATM    7  N   UNL     1       5.110  32.552  59.234  1.00  0.00    -0.215 NA
HETATM    8  S   UNL     1       4.746  35.210  62.690  1.00  0.00    -0.073 SA
HETATM    9  C   UNL     1       6.000  34.371  63.403  1.00  0.00    -0.008 A 
HETATM   10  C   UNL     1       6.486  33.338  62.648  1.00  0.00    -0.028 A 
HETATM   11  C   UNL     1       7.596  32.651  63.359  1.00  0.00     0.041 C 
HETATM   12  C   UNL     1       7.480  33.221  64.807  1.00  0.00     0.010 C 
HETATM   13  C   UNL     1       6.681  34.554  64.705  1.00  0.00     0.047 C 
ENDROOT
BRANCH   6  14
HETATM   14  N   UNL     1       6.909  31.332  60.258  1.00  0.00    -0.340 N 
HETATM   15  H   UNL     1       6.768  30.641  60.978  1.00  0.00     0.167 HD
BRANCH  14  16
HETATM   16  C   UNL     1       8.073  31.128  59.492  1.00  0.00     0.036 A 
HETATM   17  C   UNL     1       8.132  29.991  58.665  1.00  0.00     0.069 A 
HETATM   18  C   UNL     1       9.256  29.784  57.892  1.00  0.00     0.107 A 
HETATM   19  C   UNL     1      10.314  30.659  57.903  1.00  0.00     0.105 A 
HETATM   20  O   UNL     1       9.461  28.734  57.051  1.00  0.00    -0.323 OA
HETATM   21  O   UNL     1      11.319  30.272  57.076  1.00  0.00    -0.323 OA
HETATM   22  C   UNL     1      10.298  31.790  58.685  1.00  0.00     0.042 A 
HETATM   23  C   UNL     1      10.773  29.051  56.538  1.00  0.00     0.352 A 
HETATM   24  C   UNL     1       9.164  32.022  59.477  1.00  0.00     0.032 A 
ENDBRANCH  14  16
ENDBRANCH   6  14
TORSDOF 2
ENDMDL
MODEL 8
REMARK VINA RESULT:      -8.5      8.078     11.110
REMARK  2 active torsions:
REMARK  status: ('A' for Active; 'I' for Inactive)
REMARK    1  A    between atoms: C_6  and  N_7 
REMARK    2  A    between atoms: N_7  and  C_8 
ROOT
HETATM    1  C   UNL     1       7.223  33.532  65.170  1.00  0.00     0.093 C 
HETATM    2  C   UNL     1       6.702  33.389  63.773  1.00  0.00     0.125 A 
HETATM    3  N   UNL     1       5.829  34.305  63.348  1.00  0.00    -0.226 NA
HETATM    4  C   UNL     1       5.438  34.107  62.081  1.00  0.00     0.114 A 
HETATM    5  C   UNL     1       5.859  33.084  61.231  1.00  0.00     0.053 A 
HETATM    6  C   UNL     1       6.778  32.161  61.776  1.00  0.00     0.143 A 
HETATM    7  N   UNL     1       7.180  32.355  63.056  1.00  0.00    -0.215 NA
HETATM    8  S   UNL     1       4.300  35.174  61.353  1.00  0.00    -0.073 SA
HETATM    9  C   UNL     1       4.360  34.299  59.933  1.00  0.00    -0.008 A 
HETATM   10  C   UNL     1       5.214  33.230  59.968  1.00  0.00    -0.028 A 
HETATM   11  C   UNL     1       5.201  32.511  58.667  1.00  0.00     0.041 C 
HETATM   12  C   UNL     1       4.459  33.514  57.729  1.00  0.00     0.010 C 
HETATM   13  C   UNL     1       3.646  34.474  58.648  1.00  0.00     0.047 C 
ENDROOT
BRANCH   6  14
HETATM   14  N   UNL     1       7.279  31.094  61.013  1.00  0.00    -0.340 N 
HETATM   15  H   UNL     1       6.903  30.199  61.284  1.00  0.00     0.167 HD
BRANCH  14  16
HETATM   16  C   UNL     1       8.265  31.019  60.012  1.00  0.00     0.036 A 
HETATM   17  C   UNL     1       8.215  29.939  59.111  1.00  0.00     0.069 A 
HETATM   18  C   UNL     1       9.162  29.859  58.110  1.00  0.00     0.107 A 
HETATM   19  C   UNL     1      10.145  30.806  57.966  1.00  0.00     0.105 A 
HETATM   20  O   UNL     1       9.247  28.877  57.173  1.00  0.00    -0.323 OA
HETATM   21  O   UNL     1      10.975  30.541  56.924  1.00  0.00    -0.323 OA
HETATM   22  C   UNL     1      10.228  31.885  58.813  1.00  0.00     0.042 A 
HETATM   23  C   UNL     1      10.400  29.316  56.424  1.00  0.00     0.352 A 
HETATM   24  C   UNL     1       9.275  31.989  59.837  1.00  0.00     0.032 A 
ENDBRANCH  14  16
ENDBRANCH   6  14
TORSDOF 2
ENDMDL
MODEL 9
REMARK VINA RESULT:      -8.5      1.472      3.715
REMARK  2 active torsions:
REMARK  status: ('A' for Active; 'I' for Inactive)
REMARK    1  A    between atoms: C_6  and  N_7 
REMARK    2  A    between atoms: N_7  and  C_8 
ROOT
HETATM    1  C   UNL     1       8.359  21.180  53.038  1.00  0.00     0.093 C 
HETATM    2  C   UNL     1       7.922  22.404  53.782  1.00  0.00     0.125 A 
HETATM    3  N   UNL     1       8.582  22.708  54.903  1.00  0.00    -0.226 NA
HETATM    4  C   UNL     1       8.135  23.830  55.485  1.00  0.00     0.114 A 
HETATM    5  C   UNL     1       7.104  24.651  55.027  1.00  0.00     0.053 A 
HETATM    6  C   UNL     1       6.464  24.241  53.837  1.00  0.00     0.143 A 
HETATM    7  N   UNL     1       6.910  23.108  53.241  1.00  0.00    -0.215 NA
HETATM    8  S   UNL     1       8.847  24.381  56.952  1.00  0.00    -0.073 SA
HETATM    9  C   UNL     1       7.809  25.689  56.985  1.00  0.00    -0.008 A 
HETATM   10  C   UNL     1       6.942  25.745  55.927  1.00  0.00    -0.028 A 
HETATM   11  C   UNL     1       6.059  26.935  56.040  1.00  0.00     0.041 C 
HETATM   12  C   UNL     1       6.756  27.773  57.157  1.00  0.00     0.010 C 
HETATM   13  C   UNL     1       7.659  26.791  57.962  1.00  0.00     0.047 C 
ENDROOT
BRANCH   6  14
HETATM   14  N   UNL     1       5.419  24.991  53.276  1.00  0.00    -0.340 N 
HETATM   15  H   UNL     1       4.505  24.695  53.583  1.00  0.00     0.167 HD
BRANCH  14  16
HETATM   16  C   UNL     1       5.391  26.008  52.305  1.00  0.00     0.036 A 
HETATM   17  C   UNL     1       5.028  25.662  50.990  1.00  0.00     0.069 A 
HETATM   18  C   UNL     1       4.975  26.650  50.027  1.00  0.00     0.107 A 
HETATM   19  C   UNL     1       5.262  27.960  50.319  1.00  0.00     0.105 A 
HETATM   20  O   UNL     1       4.649  26.469  48.719  1.00  0.00    -0.323 OA
HETATM   21  O   UNL     1       5.155  28.771  49.234  1.00  0.00    -0.323 OA
HETATM   22  C   UNL     1       5.609  28.351  51.590  1.00  0.00     0.042 A 
HETATM   23  C   UNL     1       4.765  27.819  48.222  1.00  0.00     0.352 A 
HETATM   24  C   UNL     1       5.667  27.364  52.585  1.00  0.00     0.032 A 
ENDBRANCH  14  16
ENDBRANCH   6  14
TORSDOF 2
ENDMDL
MODEL 10
REMARK VINA RESULT:      -8.1      4.220      6.979
REMARK  2 active torsions:
REMARK  status: ('A' for Active; 'I' for Inactive)
REMARK    1  A    between atoms: C_6  and  N_7 
REMARK    2  A    between atoms: N_7  and  C_8 
ROOT
HETATM    1  C   UNL     1      11.138  29.879  57.220  1.00  0.00     0.093 C 
HETATM    2  C   UNL     1       9.646  29.823  57.098  1.00  0.00     0.125 A 
HETATM    3  N   UNL     1       8.933  30.561  57.953  1.00  0.00    -0.226 NA
HETATM    4  C   UNL     1       7.611  30.464  57.751  1.00  0.00     0.114 A 
HETATM    5  C   UNL     1       6.973  29.704  56.771  1.00  0.00     0.053 A 
HETATM    6  C   UNL     1       7.813  28.953  55.919  1.00  0.00     0.143 A 
HETATM    7  N   UNL     1       9.151  29.047  56.116  1.00  0.00    -0.215 NA
HETATM    8  S   UNL     1       6.519  31.327  58.764  1.00  0.00    -0.073 SA
HETATM    9  C   UNL     1       5.219  30.708  57.920  1.00  0.00    -0.008 A 
HETATM   10  C   UNL     1       5.563  29.877  56.888  1.00  0.00    -0.028 A 
HETATM   11  C   UNL     1       4.347  29.373  56.198  1.00  0.00     0.041 C 
HETATM   12  C   UNL     1       3.224  30.299  56.763  1.00  0.00     0.010 C 
HETATM   13  C   UNL     1       3.761  30.896  58.098  1.00  0.00     0.047 C 
ENDROOT
BRANCH   6  14
HETATM   14  N   UNL     1       7.286  28.158  54.891  1.00  0.00    -0.340 N 
HETATM   15  H   UNL     1       6.648  28.655  54.289  1.00  0.00     0.167 HD
BRANCH  14  16
HETATM   16  C   UNL     1       7.401  26.788  54.591  1.00  0.00     0.036 A 
HETATM   17  C   UNL     1       7.373  25.870  55.659  1.00  0.00     0.069 A 
HETATM   18  C   UNL     1       7.464  24.521  55.384  1.00  0.00     0.107 A 
HETATM   19  C   UNL     1       7.575  24.050  54.099  1.00  0.00     0.105 A 
HETATM   20  O   UNL     1       7.457  23.519  56.304  1.00  0.00    -0.323 OA
HETATM   21  O   UNL     1       7.654  22.695  54.046  1.00  0.00    -0.323 OA
HETATM   22  C   UNL     1       7.594  24.905  53.023  1.00  0.00     0.042 A 
HETATM   23  C   UNL     1       7.579  22.364  55.448  1.00  0.00     0.352 A 
HETATM   24  C   UNL     1       7.500  26.281  53.278  1.00  0.00     0.032 A 
ENDBRANCH  14  16
ENDBRANCH   6  14
TORSDOF 2
ENDMDL
