MODEL 1
REMARK VINA RESULT:      -9.6      0.000      0.000
REMARK  5 active torsions:
REMARK  status: ('A' for Active; 'I' for Inactive)
REMARK    1  A    between atoms: C_2  and  C_3 
REMARK    2  A    between atoms: C_3  and  O_4 
REMARK    3  A    between atoms: O_4  and  C_5 
REMARK    4  A    between atoms: C_8  and  C_9 
REMARK    5  A    between atoms: C_15  and  C_16 
ROOT
HETATM    1  C   UNL     1       5.650  25.255  55.824  1.00  0.00     0.066 C 
HETATM    2  C   UNL     1       7.034  25.037  56.327  1.00  0.00     0.028 A 
HETATM    3  C   UNL     1       7.668  25.926  57.157  1.00  0.00     0.133 A 
HETATM    4  N   UNL     1       8.909  25.435  57.402  1.00  0.00    -0.261 N 
HETATM    5  H   UNL     1       9.652  25.823  57.974  1.00  0.00     0.191 HD
HETATM    6  N   UNL     1       9.145  24.285  56.759  1.00  0.00    -0.172 NA
HETATM    7  C   UNL     1       8.013  24.024  56.075  1.00  0.00     0.098 A 
HETATM    8  N   UNL     1       7.096  27.106  57.559  1.00  0.00    -0.312 N 
HETATM    9  C   UNL     1       5.744  27.398  57.202  1.00  0.00     0.224 C 
HETATM   10  O   UNL     1       5.345  28.514  57.494  1.00  0.00    -0.273 OA
HETATM   11  C   UNL     1       4.883  26.290  56.654  1.00  0.00     0.117 C 
HETATM   12  H   UNL     1       7.609  27.820  58.063  1.00  0.00     0.170 HD
ENDROOT
BRANCH   1  13
HETATM   13  C   UNL     1       5.724  25.639  54.357  1.00  0.00    -0.049 A 
HETATM   14  C   UNL     1       4.970  24.885  53.437  1.00  0.00     0.010 A 
HETATM   15  C   UNL     1       4.931  25.222  52.079  1.00  0.00     0.037 A 
HETATM   16  C   UNL     1       5.640  26.326  51.616  1.00  0.00     0.069 A 
HETATM   17  C   UNL     1       6.413  27.065  52.510  1.00  0.00     0.037 A 
HETATM   18  C   UNL     1       6.445  26.739  53.869  1.00  0.00     0.010 A 
BRANCH  16  19
HETATM   19  O   UNL     1       5.667  26.765  50.322  1.00  0.00    -0.348 OA
BRANCH  19  20
HETATM   20  C   UNL     1       4.406  27.112  49.751  1.00  0.00     0.202 C 
BRANCH  20  21
HETATM   21  C   UNL     1       4.287  26.379  48.449  1.00  0.00    -0.011 C 
HETATM   22  C   UNL     1       3.313  25.509  48.150  1.00  0.00     0.009 C 
ENDBRANCH  20  21
ENDBRANCH  19  20
ENDBRANCH  16  19
ENDBRANCH   1  13
BRANCH   7  23
HETATM   23  C   UNL     1       7.948  22.870  55.176  1.00  0.00    -0.005 A 
HETATM   24  C   UNL     1       8.035  23.007  53.786  1.00  0.00     0.014 A 
HETATM   25  C   UNL     1       8.006  21.880  52.959  1.00  0.00     0.001 A 
HETATM   26  C   UNL     1       7.876  20.607  53.512  1.00  0.00     0.000 A 
HETATM   27  C   UNL     1       7.765  20.458  54.892  1.00  0.00     0.001 A 
HETATM   28  C   UNL     1       7.799  21.583  55.718  1.00  0.00     0.014 A 
ENDBRANCH   7  23
TORSDOF 5
ENDMDL
MODEL 2
REMARK VINA RESULT:      -8.8      2.265      5.877
REMARK  5 active torsions:
REMARK  status: ('A' for Active; 'I' for Inactive)
REMARK    1  A    between atoms: C_2  and  C_3 
REMARK    2  A    between atoms: C_3  and  O_4 
REMARK    3  A    between atoms: O_4  and  C_5 
REMARK    4  A    between atoms: C_8  and  C_9 
REMARK    5  A    between atoms: C_15  and  C_16 
ROOT
HETATM    1  C   UNL     1       7.378  27.479  54.472  1.00  0.00     0.066 C 
HETATM    2  C   UNL     1       5.934  27.839  54.531  1.00  0.00     0.028 A 
HETATM    3  C   UNL     1       5.266  28.023  55.715  1.00  0.00     0.133 A 
HETATM    4  N   UNL     1       3.977  28.318  55.409  1.00  0.00    -0.261 N 
HETATM    5  H   UNL     1       3.199  28.517  56.030  1.00  0.00     0.191 HD
HETATM    6  N   UNL     1       3.746  28.311  54.091  1.00  0.00    -0.172 NA
HETATM    7  C   UNL     1       4.930  28.003  53.525  1.00  0.00     0.098 A 
HETATM    8  N   UNL     1       5.861  27.851  56.939  1.00  0.00    -0.312 N 
HETATM    9  C   UNL     1       7.260  27.575  57.017  1.00  0.00     0.224 C 
HETATM   10  O   UNL     1       7.692  27.318  58.129  1.00  0.00    -0.273 OA
HETATM   11  C   UNL     1       8.108  27.771  55.787  1.00  0.00     0.117 C 
HETATM   12  H   UNL     1       5.339  27.859  57.807  1.00  0.00     0.170 HD
ENDROOT
BRANCH   1  13
HETATM   13  C   UNL     1       7.496  26.021  54.064  1.00  0.00    -0.049 A 
HETATM   14  C   UNL     1       7.053  25.042  54.974  1.00  0.00     0.010 A 
HETATM   15  C   UNL     1       7.064  23.683  54.642  1.00  0.00     0.037 A 
HETATM   16  C   UNL     1       7.510  23.276  53.389  1.00  0.00     0.069 A 
HETATM   17  C   UNL     1       7.978  24.231  52.488  1.00  0.00     0.037 A 
HETATM   18  C   UNL     1       7.958  25.591  52.811  1.00  0.00     0.010 A 
BRANCH  16  19
HETATM   19  O   UNL     1       7.552  21.985  52.942  1.00  0.00    -0.348 OA
BRANCH  19  20
HETATM   20  C   UNL     1       8.657  21.201  53.392  1.00  0.00     0.202 C 
BRANCH  20  21
HETATM   21  C   UNL     1       8.147  20.280  54.459  1.00  0.00    -0.011 C 
HETATM   22  C   UNL     1       8.509  20.332  55.748  1.00  0.00     0.009 C 
ENDBRANCH  20  21
ENDBRANCH  19  20
ENDBRANCH  16  19
ENDBRANCH   1  13
BRANCH   7  23
HETATM   23  C   UNL     1       5.025  27.819  52.076  1.00  0.00    -0.005 A 
HETATM   24  C   UNL     1       4.836  26.570  51.472  1.00  0.00     0.014 A 
HETATM   25  C   UNL     1       4.898  26.437  50.082  1.00  0.00     0.001 A 
HETATM   26  C   UNL     1       5.164  27.547  49.282  1.00  0.00     0.000 A 
HETATM   27  C   UNL     1       5.378  28.791  49.871  1.00  0.00     0.001 A 
HETATM   28  C   UNL     1       5.310  28.925  51.259  1.00  0.00     0.014 A 
ENDBRANCH   7  23
TORSDOF 5
ENDMDL
MODEL 3
REMARK VINA RESULT:      -8.7      2.555      5.564
REMARK  5 active torsions:
REMARK  status: ('A' for Active; 'I' for Inactive)
REMARK    1  A    between atoms: C_2  and  C_3 
REMARK    2  A    between atoms: C_3  and  O_4 
REMARK    3  A    between atoms: O_4  and  C_5 
REMARK    4  A    between atoms: C_8  and  C_9 
REMARK    5  A    between atoms: C_15  and  C_16 
ROOT
HETATM    1  C   UNL     1       7.542  27.733  55.359  1.00  0.00     0.066 C 
HETATM    2  C   UNL     1       6.095  28.082  55.412  1.00  0.00     0.028 A 
HETATM    3  C   UNL     1       5.513  28.658  56.512  1.00  0.00     0.133 A 
HETATM    4  N   UNL     1       4.196  28.822  56.232  1.00  0.00    -0.261 N 
HETATM    5  H   UNL     1       3.461  29.218  56.809  1.00  0.00     0.191 HD
HETATM    6  N   UNL     1       3.865  28.362  55.019  1.00  0.00    -0.172 NA
HETATM    7  C   UNL     1       5.012  27.885  54.497  1.00  0.00     0.098 A 
HETATM    8  N   UNL     1       6.204  28.921  57.668  1.00  0.00    -0.312 N 
HETATM    9  C   UNL     1       7.614  28.697  57.719  1.00  0.00     0.224 C 
HETATM   10  O   UNL     1       8.138  28.840  58.811  1.00  0.00    -0.273 OA
HETATM   11  C   UNL     1       8.359  28.464  56.430  1.00  0.00     0.117 C 
HETATM   12  H   UNL     1       5.750  29.224  58.521  1.00  0.00     0.170 HD
ENDROOT
BRANCH   1  13
HETATM   13  C   UNL     1       7.678  26.224  55.466  1.00  0.00    -0.049 A 
HETATM   14  C   UNL     1       7.512  25.634  56.733  1.00  0.00     0.010 A 
HETATM   15  C   UNL     1       7.553  24.245  56.900  1.00  0.00     0.037 A 
HETATM   16  C   UNL     1       7.752  23.418  55.799  1.00  0.00     0.069 A 
HETATM   17  C   UNL     1       7.946  23.990  54.542  1.00  0.00     0.037 A 
HETATM   18  C   UNL     1       7.894  25.376  54.370  1.00  0.00     0.010 A 
BRANCH  16  19
HETATM   19  O   UNL     1       7.793  22.052  55.830  1.00  0.00    -0.348 OA
BRANCH  19  20
HETATM   20  C   UNL     1       8.909  21.443  55.181  1.00  0.00     0.202 C 
BRANCH  20  21
HETATM   21  C   UNL     1       8.373  20.366  54.286  1.00  0.00    -0.011 C 
HETATM   22  C   UNL     1       8.074  20.529  52.991  1.00  0.00     0.009 C 
ENDBRANCH  20  21
ENDBRANCH  19  20
ENDBRANCH  16  19
ENDBRANCH   1  13
BRANCH   7  23
HETATM   23  C   UNL     1       5.004  27.215  53.196  1.00  0.00    -0.005 A 
HETATM   24  C   UNL     1       5.222  27.912  52.001  1.00  0.00     0.014 A 
HETATM   25  C   UNL     1       5.244  27.234  50.778  1.00  0.00     0.001 A 
HETATM   26  C   UNL     1       5.033  25.857  50.735  1.00  0.00     0.000 A 
HETATM   27  C   UNL     1       4.791  25.155  51.913  1.00  0.00     0.001 A 
HETATM   28  C   UNL     1       4.775  25.830  53.135  1.00  0.00     0.014 A 
ENDBRANCH   7  23
TORSDOF 5
ENDMDL
MODEL 4
REMARK VINA RESULT:      -8.3      3.157      6.178
REMARK  5 active torsions:
REMARK  status: ('A' for Active; 'I' for Inactive)
REMARK    1  A    between atoms: C_2  and  C_3 
REMARK    2  A    between atoms: C_3  and  O_4 
REMARK    3  A    between atoms: O_4  and  C_5 
REMARK    4  A    between atoms: C_8  and  C_9 
REMARK    5  A    between atoms: C_15  and  C_16 
ROOT
HETATM    1  C   UNL     1       6.795  27.562  53.353  1.00  0.00     0.066 C 
HETATM    2  C   UNL     1       5.818  26.439  53.351  1.00  0.00     0.028 A 
HETATM    3  C   UNL     1       4.489  26.615  53.059  1.00  0.00     0.133 A 
HETATM    4  N   UNL     1       3.888  25.403  53.167  1.00  0.00    -0.261 N 
HETATM    5  H   UNL     1       2.915  25.153  53.021  1.00  0.00     0.191 HD
HETATM    6  N   UNL     1       4.737  24.438  53.542  1.00  0.00    -0.172 NA
HETATM    7  C   UNL     1       5.930  25.050  53.679  1.00  0.00     0.098 A 
HETATM    8  N   UNL     1       3.944  27.844  52.786  1.00  0.00    -0.312 N 
HETATM    9  C   UNL     1       4.790  28.990  52.688  1.00  0.00     0.224 C 
HETATM   10  O   UNL     1       4.222  30.063  52.561  1.00  0.00    -0.273 OA
HETATM   11  C   UNL     1       6.280  28.787  52.589  1.00  0.00     0.117 C 
HETATM   12  H   UNL     1       2.946  27.993  52.699  1.00  0.00     0.170 HD
ENDROOT
BRANCH   1  13
HETATM   13  C   UNL     1       7.147  27.893  54.793  1.00  0.00    -0.049 A 
HETATM   14  C   UNL     1       8.422  28.428  55.056  1.00  0.00     0.010 A 
HETATM   15  C   UNL     1       8.794  28.824  56.345  1.00  0.00     0.037 A 
HETATM   16  C   UNL     1       7.893  28.698  57.398  1.00  0.00     0.069 A 
HETATM   17  C   UNL     1       6.637  28.144  57.158  1.00  0.00     0.037 A 
HETATM   18  C   UNL     1       6.258  27.758  55.869  1.00  0.00     0.010 A 
BRANCH  16  19
HETATM   19  O   UNL     1       8.130  29.065  58.693  1.00  0.00    -0.348 OA
BRANCH  19  20
HETATM   20  C   UNL     1       7.801  30.410  59.035  1.00  0.00     0.202 C 
BRANCH  20  21
HETATM   21  C   UNL     1       9.070  31.089  59.454  1.00  0.00    -0.011 C 
HETATM   22  C   UNL     1       9.982  31.589  58.609  1.00  0.00     0.009 C 
ENDBRANCH  20  21
ENDBRANCH  19  20
ENDBRANCH  16  19
ENDBRANCH   1  13
BRANCH   7  23
HETATM   23  C   UNL     1       7.087  24.301  54.173  1.00  0.00    -0.005 A 
HETATM   24  C   UNL     1       7.598  24.490  55.462  1.00  0.00     0.014 A 
HETATM   25  C   UNL     1       8.682  23.731  55.914  1.00  0.00     0.001 A 
HETATM   26  C   UNL     1       9.275  22.787  55.077  1.00  0.00     0.000 A 
HETATM   27  C   UNL     1       8.792  22.606  53.784  1.00  0.00     0.001 A 
HETATM   28  C   UNL     1       7.706  23.359  53.335  1.00  0.00     0.014 A 
ENDBRANCH   7  23
TORSDOF 5
ENDMDL
MODEL 5
REMARK VINA RESULT:      -7.9      2.077      2.776
REMARK  5 active torsions:
REMARK  status: ('A' for Active; 'I' for Inactive)
REMARK    1  A    between atoms: C_2  and  C_3 
REMARK    2  A    between atoms: C_3  and  O_4 
REMARK    3  A    between atoms: O_4  and  C_5 
REMARK    4  A    between atoms: C_8  and  C_9 
REMARK    5  A    between atoms: C_15  and  C_16 
ROOT
HETATM    1  C   UNL     1       4.796  27.494  54.281  1.00  0.00     0.066 C 
HETATM    2  C   UNL     1       6.164  27.687  54.835  1.00  0.00     0.028 A 
HETATM    3  C   UNL     1       6.618  28.903  55.277  1.00  0.00     0.133 A 
HETATM    4  N   UNL     1       7.898  28.729  55.694  1.00  0.00    -0.261 N 
HETATM    5  H   UNL     1       8.545  29.407  56.084  1.00  0.00     0.191 HD
HETATM    6  N   UNL     1       8.327  27.472  55.527  1.00  0.00    -0.172 NA
HETATM    7  C   UNL     1       7.286  26.811  54.985  1.00  0.00     0.098 A 
HETATM    8  N   UNL     1       5.867  30.049  55.207  1.00  0.00    -0.312 N 
HETATM    9  C   UNL     1       4.512  29.983  54.760  1.00  0.00     0.224 C 
HETATM   10  O   UNL     1       3.946  31.053  54.612  1.00  0.00    -0.273 OA
HETATM   11  C   UNL     1       3.845  28.635  54.660  1.00  0.00     0.117 C 
HETATM   12  H   UNL     1       6.245  30.966  55.411  1.00  0.00     0.170 HD
ENDROOT
BRANCH   1  13
HETATM   13  C   UNL     1       4.905  27.318  52.776  1.00  0.00    -0.049 A 
HETATM   14  C   UNL     1       4.834  26.011  52.257  1.00  0.00     0.010 A 
HETATM   15  C   UNL     1       4.856  25.774  50.878  1.00  0.00     0.037 A 
HETATM   16  C   UNL     1       4.941  26.842  49.990  1.00  0.00     0.069 A 
HETATM   17  C   UNL     1       5.040  28.139  50.490  1.00  0.00     0.037 A 
HETATM   18  C   UNL     1       5.007  28.381  51.867  1.00  0.00     0.010 A 
BRANCH  16  19
HETATM   19  O   UNL     1       4.953  26.741  48.627  1.00  0.00    -0.348 OA
BRANCH  19  20
HETATM   20  C   UNL     1       3.894  27.408  47.940  1.00  0.00     0.202 C 
BRANCH  20  21
HETATM   21  C   UNL     1       3.077  26.357  47.251  1.00  0.00    -0.011 C 
HETATM   22  C   UNL     1       3.040  25.065  47.604  1.00  0.00     0.009 C 
ENDBRANCH  20  21
ENDBRANCH  19  20
ENDBRANCH  16  19
ENDBRANCH   1  13
BRANCH   7  23
HETATM   23  C   UNL     1       7.435  25.412  54.581  1.00  0.00    -0.005 A 
HETATM   24  C   UNL     1       7.882  25.051  53.304  1.00  0.00     0.014 A 
HETATM   25  C   UNL     1       8.047  23.705  52.965  1.00  0.00     0.001 A 
HETATM   26  C   UNL     1       7.753  22.706  53.891  1.00  0.00     0.000 A 
HETATM   27  C   UNL     1       7.285  23.050  55.157  1.00  0.00     0.001 A 
HETATM   28  C   UNL     1       7.126  24.394  55.498  1.00  0.00     0.014 A 
ENDBRANCH   7  23
TORSDOF 5
ENDMDL
MODEL 6
REMARK VINA RESULT:      -7.8      2.224      4.623
REMARK  5 active torsions:
REMARK  status: ('A' for Active; 'I' for Inactive)
REMARK    1  A    between atoms: C_2  and  C_3 
REMARK    2  A    between atoms: C_3  and  O_4 
REMARK    3  A    between atoms: O_4  and  C_5 
REMARK    4  A    between atoms: C_8  and  C_9 
REMARK    5  A    between atoms: C_15  and  C_16 
ROOT
HETATM    1  C   UNL     1       8.482  23.802  53.872  1.00  0.00     0.066 C 
HETATM    2  C   UNL     1       8.046  23.803  55.295  1.00  0.00     0.028 A 
HETATM    3  C   UNL     1       7.678  22.660  55.957  1.00  0.00     0.133 A 
HETATM    4  N   UNL     1       7.323  23.019  57.217  1.00  0.00    -0.261 N 
HETATM    5  H   UNL     1       7.000  22.438  57.983  1.00  0.00     0.191 HD
HETATM    6  N   UNL     1       7.408  24.339  57.419  1.00  0.00    -0.172 NA
HETATM    7  C   UNL     1       7.835  24.850  56.248  1.00  0.00     0.098 A 
HETATM    8  N   UNL     1       7.640  21.429  55.352  1.00  0.00    -0.312 N 
HETATM    9  C   UNL     1       8.102  21.284  54.008  1.00  0.00     0.224 C 
HETATM   10  O   UNL     1       7.928  20.188  53.500  1.00  0.00    -0.273 OA
HETATM   11  C   UNL     1       8.892  22.407  53.387  1.00  0.00     0.117 C 
HETATM   12  H   UNL     1       7.246  20.610  55.800  1.00  0.00     0.170 HD
ENDROOT
BRANCH   1  13
HETATM   13  C   UNL     1       7.369  24.397  53.026  1.00  0.00    -0.049 A 
HETATM   14  C   UNL     1       6.040  24.198  53.446  1.00  0.00     0.010 A 
HETATM   15  C   UNL     1       4.966  24.774  52.760  1.00  0.00     0.037 A 
HETATM   16  C   UNL     1       5.200  25.568  51.642  1.00  0.00     0.069 A 
HETATM   17  C   UNL     1       6.509  25.751  51.197  1.00  0.00     0.037 A 
HETATM   18  C   UNL     1       7.585  25.187  51.888  1.00  0.00     0.010 A 
BRANCH  16  19
HETATM   19  O   UNL     1       4.240  26.198  50.901  1.00  0.00    -0.348 OA
BRANCH  19  20
HETATM   20  C   UNL     1       4.696  26.877  49.731  1.00  0.00     0.202 C 
BRANCH  20  21
HETATM   21  C   UNL     1       3.709  26.595  48.638  1.00  0.00    -0.011 C 
HETATM   22  C   UNL     1       3.312  25.371  48.266  1.00  0.00     0.009 C 
ENDBRANCH  20  21
ENDBRANCH  19  20
ENDBRANCH  16  19
ENDBRANCH   1  13
BRANCH   7  23
HETATM   23  C   UNL     1       7.955  26.299  56.079  1.00  0.00    -0.005 A 
HETATM   24  C   UNL     1       8.631  27.101  57.007  1.00  0.00     0.014 A 
HETATM   25  C   UNL     1       8.759  28.476  56.797  1.00  0.00     0.001 A 
HETATM   26  C   UNL     1       8.200  29.068  55.665  1.00  0.00     0.000 A 
HETATM   27  C   UNL     1       7.505  28.287  54.746  1.00  0.00     0.001 A 
HETATM   28  C   UNL     1       7.382  26.912  54.953  1.00  0.00     0.014 A 
ENDBRANCH   7  23
TORSDOF 5
ENDMDL
MODEL 7
REMARK VINA RESULT:      -7.6     11.044     14.358
REMARK  5 active torsions:
REMARK  status: ('A' for Active; 'I' for Inactive)
REMARK    1  A    between atoms: C_2  and  C_3 
REMARK    2  A    between atoms: C_3  and  O_4 
REMARK    3  A    between atoms: O_4  and  C_5 
REMARK    4  A    between atoms: C_8  and  C_9 
REMARK    5  A    between atoms: C_15  and  C_16 
ROOT
HETATM    1  C   UNL     1       5.861  35.463  62.370  1.00  0.00     0.066 C 
HETATM    2  C   UNL     1       5.233  34.395  61.545  1.00  0.00     0.028 A 
HETATM    3  C   UNL     1       3.953  34.489  61.063  1.00  0.00     0.133 A 
HETATM    4  N   UNL     1       3.695  33.347  60.376  1.00  0.00    -0.261 N 
HETATM    5  H   UNL     1       2.852  33.070  59.884  1.00  0.00     0.191 HD
HETATM    6  N   UNL     1       4.722  32.489  60.400  1.00  0.00    -0.172 NA
HETATM    7  C   UNL     1       5.678  33.100  61.127  1.00  0.00     0.098 A 
HETATM    8  N   UNL     1       3.131  35.554  61.335  1.00  0.00    -0.312 N 
HETATM    9  C   UNL     1       3.640  36.676  62.057  1.00  0.00     0.224 C 
HETATM   10  O   UNL     1       2.822  37.529  62.363  1.00  0.00    -0.273 OA
HETATM   11  C   UNL     1       5.129  36.804  62.246  1.00  0.00     0.117 C 
HETATM   12  H   UNL     1       2.149  35.564  61.090  1.00  0.00     0.170 HD
ENDROOT
BRANCH   1  13
HETATM   13  C   UNL     1       5.932  34.983  63.809  1.00  0.00    -0.049 A 
HETATM   14  C   UNL     1       7.093  34.303  64.223  1.00  0.00     0.010 A 
HETATM   15  C   UNL     1       7.263  33.892  65.550  1.00  0.00     0.037 A 
HETATM   16  C   UNL     1       6.275  34.161  66.492  1.00  0.00     0.069 A 
HETATM   17  C   UNL     1       5.107  34.808  66.091  1.00  0.00     0.037 A 
HETATM   18  C   UNL     1       4.940  35.230  64.769  1.00  0.00     0.010 A 
BRANCH  16  19
HETATM   19  O   UNL     1       6.331  33.828  67.817  1.00  0.00    -0.348 OA
BRANCH  19  20
HETATM   20  C   UNL     1       5.851  34.813  68.732  1.00  0.00     0.202 C 
BRANCH  20  21
HETATM   21  C   UNL     1       6.893  34.980  69.796  1.00  0.00    -0.011 C 
HETATM   22  C   UNL     1       8.213  34.876  69.594  1.00  0.00     0.009 C 
ENDBRANCH  20  21
ENDBRANCH  19  20
ENDBRANCH  16  19
ENDBRANCH   1  13
BRANCH   7  23
HETATM   23  C   UNL     1       6.925  32.400  61.436  1.00  0.00    -0.005 A 
HETATM   24  C   UNL     1       7.000  31.424  62.437  1.00  0.00     0.014 A 
HETATM   25  C   UNL     1       8.200  30.749  62.681  1.00  0.00     0.001 A 
HETATM   26  C   UNL     1       9.340  31.052  61.939  1.00  0.00     0.000 A 
HETATM   27  C   UNL     1       9.285  32.037  60.956  1.00  0.00     0.001 A 
HETATM   28  C   UNL     1       8.086  32.707  60.708  1.00  0.00     0.014 A 
ENDBRANCH   7  23
TORSDOF 5
ENDMDL
MODEL 8
REMARK VINA RESULT:      -7.4      9.074     12.421
REMARK  5 active torsions:
REMARK  status: ('A' for Active; 'I' for Inactive)
REMARK    1  A    between atoms: C_2  and  C_3 
REMARK    2  A    between atoms: C_3  and  O_4 
REMARK    3  A    between atoms: O_4  and  C_5 
REMARK    4  A    between atoms: C_8  and  C_9 
REMARK    5  A    between atoms: C_15  and  C_16 
ROOT
HETATM    1  C   UNL     1       5.763  34.681  63.164  1.00  0.00     0.066 C 
HETATM    2  C   UNL     1       4.296  34.427  63.156  1.00  0.00     0.028 A 
HETATM    3  C   UNL     1       3.600  34.081  64.286  1.00  0.00     0.133 A 
HETATM    4  N   UNL     1       2.304  33.907  63.923  1.00  0.00    -0.261 N 
HETATM    5  H   UNL     1       1.505  33.650  64.495  1.00  0.00     0.191 HD
HETATM    6  N   UNL     1       2.106  34.090  62.612  1.00  0.00    -0.172 NA
HETATM    7  C   UNL     1       3.319  34.396  62.111  1.00  0.00     0.098 A 
HETATM    8  N   UNL     1       4.202  33.899  65.505  1.00  0.00    -0.312 N 
HETATM    9  C   UNL     1       5.593  34.181  65.659  1.00  0.00     0.224 C 
HETATM   10  O   UNL     1       6.082  33.884  66.737  1.00  0.00    -0.273 OA
HETATM   11  C   UNL     1       6.303  34.948  64.573  1.00  0.00     0.117 C 
HETATM   12  H   UNL     1       3.712  33.519  66.306  1.00  0.00     0.170 HD
ENDROOT
BRANCH   1  13
HETATM   13  C   UNL     1       6.460  33.506  62.499  1.00  0.00    -0.049 A 
HETATM   14  C   UNL     1       6.533  33.491  61.093  1.00  0.00     0.010 A 
HETATM   15  C   UNL     1       7.219  32.480  60.411  1.00  0.00     0.037 A 
HETATM   16  C   UNL     1       7.853  31.467  61.123  1.00  0.00     0.069 A 
HETATM   17  C   UNL     1       7.766  31.454  62.514  1.00  0.00     0.037 A 
HETATM   18  C   UNL     1       7.091  32.469  63.200  1.00  0.00     0.010 A 
BRANCH  16  19
HETATM   19  O   UNL     1       8.567  30.439  60.575  1.00  0.00    -0.348 OA
BRANCH  19  20
HETATM   20  C   UNL     1       8.245  30.101  59.226  1.00  0.00     0.202 C 
BRANCH  20  21
HETATM   21  C   UNL     1       9.478  30.321  58.403  1.00  0.00    -0.011 C 
HETATM   22  C   UNL     1      10.176  31.464  58.366  1.00  0.00     0.009 C 
ENDBRANCH  20  21
ENDBRANCH  19  20
ENDBRANCH  16  19
ENDBRANCH   1  13
BRANCH   7  23
HETATM   23  C   UNL     1       3.494  34.575  60.669  1.00  0.00    -0.005 A 
HETATM   24  C   UNL     1       3.838  35.812  60.111  1.00  0.00     0.014 A 
HETATM   25  C   UNL     1       4.033  35.940  58.733  1.00  0.00     0.001 A 
HETATM   26  C   UNL     1       3.871  34.837  57.896  1.00  0.00     0.000 A 
HETATM   27  C   UNL     1       3.505  33.606  58.434  1.00  0.00     0.001 A 
HETATM   28  C   UNL     1       3.316  33.477  59.811  1.00  0.00     0.014 A 
ENDBRANCH   7  23
TORSDOF 5
ENDMDL
MODEL 9
REMARK VINA RESULT:      -7.3      3.531      7.062
REMARK  5 active torsions:
REMARK  status: ('A' for Active; 'I' for Inactive)
REMARK    1  A    between atoms: C_2  and  C_3 
REMARK    2  A    between atoms: C_3  and  O_4 
REMARK    3  A    between atoms: O_4  and  C_5 
REMARK    4  A    between atoms: C_8  and  C_9 
REMARK    5  A    between atoms: C_15  and  C_16 
ROOT
HETATM    1  C   UNL     1       6.832  27.957  54.778  1.00  0.00     0.066 C 
HETATM    2  C   UNL     1       7.352  27.086  55.868  1.00  0.00     0.028 A 
HETATM    3  C   UNL     1       6.990  25.769  55.998  1.00  0.00     0.133 A 
HETATM    4  N   UNL     1       7.625  25.283  57.095  1.00  0.00    -0.261 N 
HETATM    5  H   UNL     1       7.595  24.350  57.493  1.00  0.00     0.191 HD
HETATM    6  N   UNL     1       8.363  26.210  57.716  1.00  0.00    -0.172 NA
HETATM    7  C   UNL     1       8.202  27.335  56.992  1.00  0.00     0.098 A 
HETATM    8  N   UNL     1       6.090  25.159  55.163  1.00  0.00    -0.312 N 
HETATM    9  C   UNL     1       5.573  25.868  54.035  1.00  0.00     0.224 C 
HETATM   10  O   UNL     1       4.691  25.303  53.409  1.00  0.00    -0.273 OA
HETATM   11  C   UNL     1       6.242  27.151  53.616  1.00  0.00     0.117 C 
HETATM   12  H   UNL     1       5.725  24.229  55.335  1.00  0.00     0.170 HD
ENDROOT
BRANCH   1  13
HETATM   13  C   UNL     1       5.823  28.924  55.373  1.00  0.00    -0.049 A 
HETATM   14  C   UNL     1       4.544  28.429  55.696  1.00  0.00     0.010 A 
HETATM   15  C   UNL     1       3.585  29.240  56.312  1.00  0.00     0.037 A 
HETATM   16  C   UNL     1       3.888  30.562  56.625  1.00  0.00     0.069 A 
HETATM   17  C   UNL     1       5.140  31.073  56.286  1.00  0.00     0.037 A 
HETATM   18  C   UNL     1       6.105  30.262  55.681  1.00  0.00     0.010 A 
BRANCH  16  19
HETATM   19  O   UNL     1       3.046  31.444  57.241  1.00  0.00    -0.348 OA
BRANCH  19  20
HETATM   20  C   UNL     1       3.650  32.342  58.173  1.00  0.00     0.202 C 
BRANCH  20  21
HETATM   21  C   UNL     1       3.509  31.733  59.535  1.00  0.00    -0.011 C 
HETATM   22  C   UNL     1       3.524  32.423  60.684  1.00  0.00     0.009 C 
ENDBRANCH  20  21
ENDBRANCH  19  20
ENDBRANCH  16  19
ENDBRANCH   1  13
BRANCH   7  23
HETATM   23  C   UNL     1       8.806  28.591  57.441  1.00  0.00    -0.005 A 
HETATM   24  C   UNL     1      10.000  29.077  56.894  1.00  0.00     0.014 A 
HETATM   25  C   UNL     1      10.530  30.298  57.321  1.00  0.00     0.001 A 
HETATM   26  C   UNL     1       9.882  31.038  58.308  1.00  0.00     0.000 A 
HETATM   27  C   UNL     1       8.706  30.556  58.877  1.00  0.00     0.001 A 
HETATM   28  C   UNL     1       8.173  29.339  58.447  1.00  0.00     0.014 A 
ENDBRANCH   7  23
TORSDOF 5
ENDMDL
MODEL 10
REMARK VINA RESULT:      -7.1     10.663     13.837
REMARK  5 active torsions:
REMARK  status: ('A' for Active; 'I' for Inactive)
REMARK    1  A    between atoms: C_2  and  C_3 
REMARK    2  A    between atoms: C_3  and  O_4 
REMARK    3  A    between atoms: O_4  and  C_5 
REMARK    4  A    between atoms: C_8  and  C_9 
REMARK    5  A    between atoms: C_15  and  C_16 
ROOT
HETATM    1  C   UNL     1       4.428  33.971  64.730  1.00  0.00     0.066 C 
HETATM    2  C   UNL     1       5.709  33.368  64.269  1.00  0.00     0.028 A 
HETATM    3  C   UNL     1       6.837  33.342  65.049  1.00  0.00     0.133 A 
HETATM    4  N   UNL     1       7.816  32.744  64.323  1.00  0.00    -0.261 N 
HETATM    5  H   UNL     1       8.779  32.552  64.579  1.00  0.00     0.191 HD
HETATM    6  N   UNL     1       7.408  32.397  63.096  1.00  0.00    -0.172 NA
HETATM    7  C   UNL     1       6.119  32.784  63.028  1.00  0.00     0.098 A 
HETATM    8  N   UNL     1       6.892  33.907  66.298  1.00  0.00    -0.312 N 
HETATM    9  C   UNL     1       5.709  34.455  66.881  1.00  0.00     0.224 C 
HETATM   10  O   UNL     1       5.859  35.042  67.940  1.00  0.00    -0.273 OA
HETATM   11  C   UNL     1       4.376  34.141  66.252  1.00  0.00     0.117 C 
HETATM   12  H   UNL     1       7.755  34.003  66.818  1.00  0.00     0.170 HD
ENDROOT
BRANCH   1  13
HETATM   13  C   UNL     1       4.226  35.288  64.001  1.00  0.00    -0.049 A 
HETATM   14  C   UNL     1       5.052  36.373  64.353  1.00  0.00     0.010 A 
HETATM   15  C   UNL     1       4.974  37.596  63.678  1.00  0.00     0.037 A 
HETATM   16  C   UNL     1       4.071  37.756  62.631  1.00  0.00     0.069 A 
HETATM   17  C   UNL     1       3.227  36.701  62.290  1.00  0.00     0.037 A 
HETATM   18  C   UNL     1       3.311  35.473  62.954  1.00  0.00     0.010 A 
BRANCH  16  19
HETATM   19  O   UNL     1       3.914  38.892  61.886  1.00  0.00    -0.348 OA
BRANCH  19  20
HETATM   20  C   UNL     1       4.995  39.822  61.925  1.00  0.00     0.202 C 
BRANCH  20  21
HETATM   21  C   UNL     1       5.992  39.394  60.891  1.00  0.00    -0.011 C 
HETATM   22  C   UNL     1       7.266  39.070  61.147  1.00  0.00     0.009 C 
ENDBRANCH  20  21
ENDBRANCH  19  20
ENDBRANCH  16  19
ENDBRANCH   1  13
BRANCH   7  23
HETATM   23  C   UNL     1       5.373  32.637  61.777  1.00  0.00    -0.005 A 
HETATM   24  C   UNL     1       4.080  32.103  61.743  1.00  0.00     0.014 A 
HETATM   25  C   UNL     1       3.382  32.011  60.535  1.00  0.00     0.001 A 
HETATM   26  C   UNL     1       3.975  32.439  59.348  1.00  0.00     0.000 A 
HETATM   27  C   UNL     1       5.270  32.951  59.364  1.00  0.00     0.001 A 
HETATM   28  C   UNL     1       5.964  33.048  60.571  1.00  0.00     0.014 A 
ENDBRANCH   7  23
TORSDOF 5
ENDMDL
