MODEL 1
REMARK VINA RESULT:      -9.0      0.000      0.000
REMARK  7 active torsions:
REMARK  status: ('A' for Active; 'I' for Inactive)
REMARK    1  A    between atoms: C_3  and  N_4 
REMARK       I    between atoms: N_4  and  C_5 
REMARK       I    between atoms: C_5  and  N_6 
REMARK    2  A    between atoms: N_6  and  C_7 
REMARK    3  A    between atoms: C_7  and  C_8 
REMARK    4  A    between atoms: C_8  and  N_9 
REMARK    5  A    between atoms: C_23  and  N_24 
REMARK       I    between atoms: N_24  and  C_25 
REMARK    6  A    between atoms: C_25  and  C_26 
REMARK    7  A    between atoms: C_26  and  O_27 
ROOT
HETATM    1  N   UNL     1       6.681  29.302  55.415  1.00  0.00    -0.308 N 
HETATM    2  C   UNL     1       5.945  28.188  55.167  1.00  0.00     0.320 C 
HETATM    3  N   UNL     1       6.508  26.981  55.417  1.00  0.00    -0.340 N 
HETATM    4  O   UNL     1       4.840  28.301  54.634  1.00  0.00    -0.247 OA
HETATM    5  H   UNL     1       6.267  30.125  54.995  1.00  0.00     0.170 HD
HETATM    6  H   UNL     1       7.510  27.022  55.560  1.00  0.00     0.164 HD
ENDROOT
BRANCH   1   7
HETATM    7  C   UNL     1       7.874  29.515  56.142  1.00  0.00     0.044 A 
HETATM    8  C   UNL     1       7.795  29.931  57.499  1.00  0.00    -0.008 A 
HETATM    9  C   UNL     1       6.455  30.228  58.137  1.00  0.00     0.053 C 
HETATM   10  C   UNL     1       8.991  30.089  58.250  1.00  0.00     0.043 A 
HETATM   11  C   UNL     1      10.223  29.869  57.627  1.00  0.00     0.030 A 
HETATM   12  C   UNL     1      10.290  29.452  56.301  1.00  0.00     0.005 A 
HETATM   13  C   UNL     1       9.123  29.259  55.569  1.00  0.00     0.030 A 
BRANCH  10  14
HETATM   14  N   UNL     1       8.911  30.436  59.617  1.00  0.00    -0.325 N 
HETATM   15  C   UNL     1       9.079  31.683  60.204  1.00  0.00     0.245 C 
HETATM   16  O   UNL     1       9.264  32.749  59.630  1.00  0.00    -0.271 OA
HETATM   17  H   UNL     1       8.730  29.699  60.292  1.00  0.00     0.169 HD
BRANCH  15  18
HETATM   18  C   UNL     1       8.925  31.609  61.728  1.00  0.00     0.270 C 
BRANCH  18  19
HETATM   19  O   UNL     1       7.697  30.994  62.125  1.00  0.00    -0.387 OA
HETATM   20  C   UNL     1       6.617  31.925  62.116  1.00  0.00     0.202 C 
ENDBRANCH  18  19
ENDBRANCH  15  18
ENDBRANCH  10  14
ENDBRANCH   1   7
BRANCH   3  21
HETATM   21  C   UNL     1       5.990  25.638  55.139  1.00  0.00     0.163 C 
BRANCH  21  22
HETATM   22  C   UNL     1       6.277  24.920  53.773  1.00  0.00     0.143 C 
HETATM   23  C   UNL     1       4.955  24.775  52.971  1.00  0.00     0.041 C 
HETATM   24  C   UNL     1       5.193  25.463  51.629  1.00  0.00     0.003 C 
HETATM   25  C   UNL     1       6.251  26.508  51.930  1.00  0.00     0.003 C 
HETATM   26  C   UNL     1       7.198  25.784  52.879  1.00  0.00     0.041 C 
BRANCH  22  27
HETATM   27  N   UNL     1       6.900  23.545  54.006  1.00  0.00    -0.061 N 
HETATM   28  H   UNL     1       6.066  22.917  54.013  1.00  0.00     0.281 HD
HETATM   29  C   UNL     1       7.589  23.256  55.325  1.00  0.00     0.236 C 
HETATM   30  C   UNL     1       8.888  22.565  54.948  1.00  0.00     0.029 C 
HETATM   31  C   UNL     1       8.587  21.919  53.613  1.00  0.00     0.029 C 
HETATM   32  C   UNL     1       7.775  22.984  52.907  1.00  0.00     0.236 C 
ENDBRANCH  22  27
ENDBRANCH  21  22
ENDBRANCH   3  21
TORSDOF 7
ENDMDL
MODEL 2
REMARK VINA RESULT:      -8.8      1.462      2.420
REMARK  7 active torsions:
REMARK  status: ('A' for Active; 'I' for Inactive)
REMARK    1  A    between atoms: C_3  and  N_4 
REMARK       I    between atoms: N_4  and  C_5 
REMARK       I    between atoms: C_5  and  N_6 
REMARK    2  A    between atoms: N_6  and  C_7 
REMARK    3  A    between atoms: C_7  and  C_8 
REMARK    4  A    between atoms: C_8  and  N_9 
REMARK    5  A    between atoms: C_23  and  N_24 
REMARK       I    between atoms: N_24  and  C_25 
REMARK    6  A    between atoms: C_25  and  C_26 
REMARK    7  A    between atoms: C_26  and  O_27 
ROOT
HETATM    1  N   UNL     1       7.319  28.902  54.849  1.00  0.00    -0.308 N 
HETATM    2  C   UNL     1       6.931  27.677  54.406  1.00  0.00     0.320 C 
HETATM    3  N   UNL     1       7.722  26.615  54.690  1.00  0.00    -0.340 N 
HETATM    4  O   UNL     1       5.937  27.584  53.685  1.00  0.00    -0.247 OA
HETATM    5  H   UNL     1       6.792  29.644  54.405  1.00  0.00     0.170 HD
HETATM    6  H   UNL     1       8.645  26.872  55.018  1.00  0.00     0.164 HD
ENDROOT
BRANCH   1   7
HETATM    7  C   UNL     1       8.284  29.312  55.795  1.00  0.00     0.044 A 
HETATM    8  C   UNL     1       7.863  29.676  57.103  1.00  0.00    -0.008 A 
HETATM    9  C   UNL     1       6.393  29.709  57.458  1.00  0.00     0.053 C 
HETATM   10  C   UNL     1       8.838  30.032  58.074  1.00  0.00     0.043 A 
HETATM   11  C   UNL     1      10.187  30.054  57.713  1.00  0.00     0.030 A 
HETATM   12  C   UNL     1      10.592  29.687  56.432  1.00  0.00     0.005 A 
HETATM   13  C   UNL     1       9.648  29.301  55.486  1.00  0.00     0.030 A 
BRANCH  10  14
HETATM   14  N   UNL     1       8.426  30.328  59.393  1.00  0.00    -0.325 N 
HETATM   15  C   UNL     1       8.507  31.535  60.074  1.00  0.00     0.245 C 
HETATM   16  O   UNL     1       8.895  32.608  59.629  1.00  0.00    -0.271 OA
HETATM   17  H   UNL     1       8.035  29.579  59.956  1.00  0.00     0.169 HD
BRANCH  15  18
HETATM   18  C   UNL     1       7.959  31.410  61.501  1.00  0.00     0.270 C 
BRANCH  18  19
HETATM   19  O   UNL     1       8.690  32.203  62.439  1.00  0.00    -0.387 OA
HETATM   20  C   UNL     1       7.886  32.565  63.559  1.00  0.00     0.202 C 
ENDBRANCH  18  19
ENDBRANCH  15  18
ENDBRANCH  10  14
ENDBRANCH   1   7
BRANCH   3  21
HETATM   21  C   UNL     1       7.603  25.223  54.246  1.00  0.00     0.163 C 
BRANCH  21  22
HETATM   22  C   UNL     1       7.667  24.033  55.268  1.00  0.00     0.143 C 
HETATM   23  C   UNL     1       9.061  24.006  55.953  1.00  0.00     0.041 C 
HETATM   24  C   UNL     1       8.801  24.099  57.454  1.00  0.00     0.003 C 
HETATM   25  C   UNL     1       7.480  24.836  57.556  1.00  0.00     0.003 C 
HETATM   26  C   UNL     1       6.657  24.241  56.421  1.00  0.00     0.041 C 
BRANCH  22  27
HETATM   27  N   UNL     1       7.405  22.702  54.565  1.00  0.00    -0.061 N 
HETATM   28  H   UNL     1       6.371  22.725  54.418  1.00  0.00     0.281 HD
HETATM   29  C   UNL     1       7.642  21.407  55.314  1.00  0.00     0.236 C 
HETATM   30  C   UNL     1       8.393  20.518  54.336  1.00  0.00     0.029 C 
HETATM   31  C   UNL     1       7.970  21.029  52.976  1.00  0.00     0.029 C 
HETATM   32  C   UNL     1       7.971  22.530  53.173  1.00  0.00     0.236 C 
ENDBRANCH  22  27
ENDBRANCH  21  22
ENDBRANCH   3  21
TORSDOF 7
ENDMDL
MODEL 3
REMARK VINA RESULT:      -8.2      2.443      4.289
REMARK  7 active torsions:
REMARK  status: ('A' for Active; 'I' for Inactive)
REMARK    1  A    between atoms: C_3  and  N_4 
REMARK       I    between atoms: N_4  and  C_5 
REMARK       I    between atoms: C_5  and  N_6 
REMARK    2  A    between atoms: N_6  and  C_7 
REMARK    3  A    between atoms: C_7  and  C_8 
REMARK    4  A    between atoms: C_8  and  N_9 
REMARK    5  A    between atoms: C_23  and  N_24 
REMARK       I    between atoms: N_24  and  C_25 
REMARK    6  A    between atoms: C_25  and  C_26 
REMARK    7  A    between atoms: C_26  and  O_27 
ROOT
HETATM    1  N   UNL     1       8.707  30.737  58.571  1.00  0.00    -0.308 N 
HETATM    2  C   UNL     1       8.973  29.592  57.889  1.00  0.00     0.320 C 
HETATM    3  N   UNL     1       8.005  28.647  57.826  1.00  0.00    -0.340 N 
HETATM    4  O   UNL     1      10.105  29.407  57.440  1.00  0.00    -0.247 OA
HETATM    5  H   UNL     1       9.549  31.271  58.748  1.00  0.00     0.170 HD
HETATM    6  H   UNL     1       7.249  28.794  58.484  1.00  0.00     0.164 HD
ENDROOT
BRANCH   1   7
HETATM    7  C   UNL     1       7.505  31.304  59.051  1.00  0.00     0.044 A 
HETATM    8  C   UNL     1       7.428  31.722  60.407  1.00  0.00    -0.008 A 
HETATM    9  C   UNL     1       8.585  31.486  61.353  1.00  0.00     0.053 C 
HETATM   10  C   UNL     1       6.242  32.347  60.876  1.00  0.00     0.043 A 
HETATM   11  C   UNL     1       5.160  32.504  60.005  1.00  0.00     0.030 A 
HETATM   12  C   UNL     1       5.248  32.100  58.675  1.00  0.00     0.005 A 
HETATM   13  C   UNL     1       6.419  31.521  58.197  1.00  0.00     0.030 A 
BRANCH  10  14
HETATM   14  N   UNL     1       6.188  32.824  62.206  1.00  0.00    -0.325 N 
HETATM   15  C   UNL     1       5.453  32.329  63.273  1.00  0.00     0.245 C 
HETATM   16  O   UNL     1       4.752  31.325  63.283  1.00  0.00    -0.271 OA
HETATM   17  H   UNL     1       6.728  33.651  62.443  1.00  0.00     0.169 HD
BRANCH  15  18
HETATM   18  C   UNL     1       5.675  33.163  64.541  1.00  0.00     0.270 C 
BRANCH  18  19
HETATM   19  O   UNL     1       4.518  33.204  65.378  1.00  0.00    -0.387 OA
HETATM   20  C   UNL     1       4.679  34.129  66.452  1.00  0.00     0.202 C 
ENDBRANCH  18  19
ENDBRANCH  15  18
ENDBRANCH  10  14
ENDBRANCH   1   7
BRANCH   3  21
HETATM   21  C   UNL     1       8.062  27.295  57.262  1.00  0.00     0.163 C 
BRANCH  21  22
HETATM   22  C   UNL     1       7.107  26.857  56.095  1.00  0.00     0.143 C 
HETATM   23  C   UNL     1       5.644  26.793  56.613  1.00  0.00     0.041 C 
HETATM   24  C   UNL     1       4.834  27.728  55.719  1.00  0.00     0.003 C 
HETATM   25  C   UNL     1       5.845  28.753  55.242  1.00  0.00     0.003 C 
HETATM   26  C   UNL     1       7.090  27.918  54.969  1.00  0.00     0.041 C 
BRANCH  22  27
HETATM   27  N   UNL     1       7.524  25.496  55.539  1.00  0.00    -0.061 N 
HETATM   28  H   UNL     1       8.541  25.461  55.768  1.00  0.00     0.281 HD
HETATM   29  C   UNL     1       7.475  25.260  54.042  1.00  0.00     0.236 C 
HETATM   30  C   UNL     1       6.823  23.897  53.879  1.00  0.00     0.029 C 
HETATM   31  C   UNL     1       7.143  23.180  55.173  1.00  0.00     0.029 C 
HETATM   32  C   UNL     1       6.951  24.267  56.208  1.00  0.00     0.236 C 
ENDBRANCH  22  27
ENDBRANCH  21  22
ENDBRANCH   3  21
TORSDOF 7
ENDMDL
MODEL 4
REMARK VINA RESULT:      -8.1      2.578      4.445
REMARK  7 active torsions:
REMARK  status: ('A' for Active; 'I' for Inactive)
REMARK    1  A    between atoms: C_3  and  N_4 
REMARK       I    between atoms: N_4  and  C_5 
REMARK       I    between atoms: C_5  and  N_6 
REMARK    2  A    between atoms: N_6  and  C_7 
REMARK    3  A    between atoms: C_7  and  C_8 
REMARK    4  A    between atoms: C_8  and  N_9 
REMARK    5  A    between atoms: C_23  and  N_24 
REMARK       I    between atoms: N_24  and  C_25 
REMARK    6  A    between atoms: C_25  and  C_26 
REMARK    7  A    between atoms: C_26  and  O_27 
ROOT
HETATM    1  N   UNL     1       6.949  31.688  58.686  1.00  0.00    -0.308 N 
HETATM    2  C   UNL     1       6.404  30.789  57.825  1.00  0.00     0.320 C 
HETATM    3  N   UNL     1       6.514  29.473  58.122  1.00  0.00    -0.340 N 
HETATM    4  O   UNL     1       5.920  31.187  56.765  1.00  0.00    -0.247 OA
HETATM    5  H   UNL     1       7.010  32.611  58.274  1.00  0.00     0.170 HD
HETATM    6  H   UNL     1       7.189  29.275  58.852  1.00  0.00     0.164 HD
ENDROOT
BRANCH   1   7
HETATM    7  C   UNL     1       7.418  31.574  60.014  1.00  0.00     0.044 A 
HETATM    8  C   UNL     1       6.653  32.138  61.071  1.00  0.00    -0.008 A 
HETATM    9  C   UNL     1       5.396  32.927  60.777  1.00  0.00     0.053 C 
HETATM   10  C   UNL     1       7.092  31.973  62.412  1.00  0.00     0.043 A 
HETATM   11  C   UNL     1       8.287  31.293  62.662  1.00  0.00     0.030 A 
HETATM   12  C   UNL     1       9.025  30.736  61.622  1.00  0.00     0.005 A 
HETATM   13  C   UNL     1       8.584  30.860  60.309  1.00  0.00     0.030 A 
BRANCH  10  14
HETATM   14  N   UNL     1       6.297  32.474  63.468  1.00  0.00    -0.325 N 
HETATM   15  C   UNL     1       6.663  33.337  64.491  1.00  0.00     0.245 C 
HETATM   16  O   UNL     1       7.745  33.893  64.636  1.00  0.00    -0.271 OA
HETATM   17  H   UNL     1       5.331  32.166  63.533  1.00  0.00     0.169 HD
BRANCH  15  18
HETATM   18  C   UNL     1       5.490  33.610  65.441  1.00  0.00     0.270 C 
BRANCH  18  19
HETATM   19  O   UNL     1       4.223  33.342  64.836  1.00  0.00    -0.387 OA
HETATM   20  C   UNL     1       3.398  34.504  64.810  1.00  0.00     0.202 C 
ENDBRANCH  18  19
ENDBRANCH  15  18
ENDBRANCH  10  14
ENDBRANCH   1   7
BRANCH   3  21
HETATM   21  C   UNL     1       6.124  28.304  57.327  1.00  0.00     0.163 C 
BRANCH  21  22
HETATM   22  C   UNL     1       7.167  27.536  56.439  1.00  0.00     0.143 C 
HETATM   23  C   UNL     1       6.876  27.807  54.938  1.00  0.00     0.041 C 
HETATM   24  C   UNL     1       8.159  28.393  54.354  1.00  0.00     0.003 C 
HETATM   25  C   UNL     1       8.834  29.060  55.536  1.00  0.00     0.003 C 
HETATM   26  C   UNL     1       8.597  28.078  56.676  1.00  0.00     0.041 C 
BRANCH  22  27
HETATM   27  N   UNL     1       7.114  26.036  56.720  1.00  0.00    -0.061 N 
HETATM   28  H   UNL     1       6.271  25.950  57.330  1.00  0.00     0.281 HD
HETATM   29  C   UNL     1       8.222  25.391  57.528  1.00  0.00     0.236 C 
HETATM   30  C   UNL     1       8.576  24.122  56.771  1.00  0.00     0.029 C 
HETATM   31  C   UNL     1       7.305  23.771  56.029  1.00  0.00     0.029 C 
HETATM   32  C   UNL     1       6.817  25.121  55.552  1.00  0.00     0.236 C 
ENDBRANCH  22  27
ENDBRANCH  21  22
ENDBRANCH   3  21
TORSDOF 7
ENDMDL
MODEL 5
REMARK VINA RESULT:      -7.9      2.962      8.023
REMARK  7 active torsions:
REMARK  status: ('A' for Active; 'I' for Inactive)
REMARK    1  A    between atoms: C_3  and  N_4 
REMARK       I    between atoms: N_4  and  C_5 
REMARK       I    between atoms: C_5  and  N_6 
REMARK    2  A    between atoms: N_6  and  C_7 
REMARK    3  A    between atoms: C_7  and  C_8 
REMARK    4  A    between atoms: C_8  and  N_9 
REMARK    5  A    between atoms: C_23  and  N_24 
REMARK       I    between atoms: N_24  and  C_25 
REMARK    6  A    between atoms: C_25  and  C_26 
REMARK    7  A    between atoms: C_26  and  O_27 
ROOT
HETATM    1  N   UNL     1       4.686  26.744  53.486  1.00  0.00    -0.308 N 
HETATM    2  C   UNL     1       4.673  27.963  54.085  1.00  0.00     0.320 C 
HETATM    3  N   UNL     1       5.745  28.320  54.831  1.00  0.00    -0.340 N 
HETATM    4  O   UNL     1       3.658  28.657  54.016  1.00  0.00    -0.247 OA
HETATM    5  H   UNL     1       3.768  26.484  53.145  1.00  0.00     0.170 HD
HETATM    6  H   UNL     1       6.363  27.548  55.050  1.00  0.00     0.164 HD
ENDROOT
BRANCH   1   7
HETATM    7  C   UNL     1       5.719  25.809  53.248  1.00  0.00     0.044 A 
HETATM    8  C   UNL     1       6.046  24.865  54.258  1.00  0.00    -0.008 A 
HETATM    9  C   UNL     1       5.361  24.910  55.606  1.00  0.00     0.053 C 
HETATM   10  C   UNL     1       7.042  23.885  53.999  1.00  0.00     0.043 A 
HETATM   11  C   UNL     1       7.708  23.895  52.770  1.00  0.00     0.030 A 
HETATM   12  C   UNL     1       7.374  24.818  51.783  1.00  0.00     0.005 A 
HETATM   13  C   UNL     1       6.374  25.757  52.013  1.00  0.00     0.030 A 
BRANCH  10  14
HETATM   14  N   UNL     1       7.321  22.904  54.977  1.00  0.00    -0.325 N 
HETATM   15  C   UNL     1       8.445  22.779  55.781  1.00  0.00     0.245 C 
HETATM   16  O   UNL     1       9.395  23.550  55.846  1.00  0.00    -0.271 OA
HETATM   17  H   UNL     1       6.643  22.162  55.122  1.00  0.00     0.169 HD
BRANCH  15  18
HETATM   18  C   UNL     1       8.345  21.552  56.696  1.00  0.00     0.270 C 
BRANCH  18  19
HETATM   19  O   UNL     1       7.905  20.385  55.999  1.00  0.00    -0.387 OA
HETATM   20  C   UNL     1       8.860  19.962  55.028  1.00  0.00     0.202 C 
ENDBRANCH  18  19
ENDBRANCH  15  18
ENDBRANCH  10  14
ENDBRANCH   1   7
BRANCH   3  21
HETATM   21  C   UNL     1       5.943  29.509  55.665  1.00  0.00     0.163 C 
BRANCH  21  22
HETATM   22  C   UNL     1       6.702  29.426  57.038  1.00  0.00     0.143 C 
HETATM   23  C   UNL     1       6.637  27.973  57.584  1.00  0.00     0.041 C 
HETATM   24  C   UNL     1       8.084  27.529  57.782  1.00  0.00     0.003 C 
HETATM   25  C   UNL     1       8.866  28.348  56.774  1.00  0.00     0.003 C 
HETATM   26  C   UNL     1       8.210  29.720  56.853  1.00  0.00     0.041 C 
BRANCH  22  27
HETATM   27  N   UNL     1       6.091  30.393  58.051  1.00  0.00    -0.061 N 
HETATM   28  H   UNL     1       5.677  29.746  58.758  1.00  0.00     0.281 HD
HETATM   29  C   UNL     1       4.931  31.273  57.632  1.00  0.00     0.236 C 
HETATM   30  C   UNL     1       5.269  32.653  58.169  1.00  0.00     0.029 C 
HETATM   31  C   UNL     1       6.166  32.376  59.356  1.00  0.00     0.029 C 
HETATM   32  C   UNL     1       7.045  31.253  58.851  1.00  0.00     0.236 C 
ENDBRANCH  22  27
ENDBRANCH  21  22
ENDBRANCH   3  21
TORSDOF 7
ENDMDL
MODEL 6
REMARK VINA RESULT:      -7.8      3.554      5.886
REMARK  7 active torsions:
REMARK  status: ('A' for Active; 'I' for Inactive)
REMARK    1  A    between atoms: C_3  and  N_4 
REMARK       I    between atoms: N_4  and  C_5 
REMARK       I    between atoms: C_5  and  N_6 
REMARK    2  A    between atoms: N_6  and  C_7 
REMARK    3  A    between atoms: C_7  and  C_8 
REMARK    4  A    between atoms: C_8  and  N_9 
REMARK    5  A    between atoms: C_23  and  N_24 
REMARK       I    between atoms: N_24  and  C_25 
REMARK    6  A    between atoms: C_25  and  C_26 
REMARK    7  A    between atoms: C_26  and  O_27 
ROOT
HETATM    1  N   UNL     1       4.765  26.248  54.208  1.00  0.00    -0.308 N 
HETATM    2  C   UNL     1       4.763  25.806  52.924  1.00  0.00     0.320 C 
HETATM    3  N   UNL     1       4.850  26.724  51.932  1.00  0.00    -0.340 N 
HETATM    4  O   UNL     1       4.585  24.608  52.699  1.00  0.00    -0.247 OA
HETATM    5  H   UNL     1       4.476  25.523  54.854  1.00  0.00     0.170 HD
HETATM    6  H   UNL     1       4.685  27.674  52.242  1.00  0.00     0.164 HD
ENDROOT
BRANCH   1   7
HETATM    7  C   UNL     1       5.097  27.492  54.788  1.00  0.00     0.044 A 
HETATM    8  C   UNL     1       6.434  27.726  55.210  1.00  0.00    -0.008 A 
HETATM    9  C   UNL     1       7.474  26.630  55.120  1.00  0.00     0.053 C 
HETATM   10  C   UNL     1       6.786  28.998  55.738  1.00  0.00     0.043 A 
HETATM   11  C   UNL     1       5.800  29.980  55.870  1.00  0.00     0.030 A 
HETATM   12  C   UNL     1       4.495  29.745  55.445  1.00  0.00     0.005 A 
HETATM   13  C   UNL     1       4.151  28.516  54.892  1.00  0.00     0.030 A 
BRANCH  10  14
HETATM   14  N   UNL     1       8.129  29.254  56.094  1.00  0.00    -0.325 N 
HETATM   15  C   UNL     1       8.725  29.161  57.344  1.00  0.00     0.245 C 
HETATM   16  O   UNL     1       8.207  28.767  58.381  1.00  0.00    -0.271 OA
HETATM   17  H   UNL     1       8.768  29.571  55.371  1.00  0.00     0.169 HD
BRANCH  15  18
HETATM   18  C   UNL     1      10.208  29.550  57.287  1.00  0.00     0.270 C 
BRANCH  18  19
HETATM   19  O   UNL     1      10.402  30.965  57.261  1.00  0.00    -0.387 OA
HETATM   20  C   UNL     1      10.083  31.562  58.516  1.00  0.00     0.202 C 
ENDBRANCH  18  19
ENDBRANCH  15  18
ENDBRANCH  10  14
ENDBRANCH   1   7
BRANCH   3  21
HETATM   21  C   UNL     1       4.758  26.536  50.481  1.00  0.00     0.163 C 
BRANCH  21  22
HETATM   22  C   UNL     1       4.088  27.617  49.559  1.00  0.00     0.143 C 
HETATM   23  C   UNL     1       3.783  28.894  50.387  1.00  0.00     0.041 C 
HETATM   24  C   UNL     1       4.503  30.041  49.682  1.00  0.00     0.003 C 
HETATM   25  C   UNL     1       5.669  29.372  48.982  1.00  0.00     0.003 C 
HETATM   26  C   UNL     1       5.065  28.078  48.452  1.00  0.00     0.041 C 
BRANCH  22  27
HETATM   27  N   UNL     1       2.801  27.075  48.941  1.00  0.00    -0.061 N 
HETATM   28  H   UNL     1       2.509  26.346  49.628  1.00  0.00     0.281 HD
HETATM   29  C   UNL     1       2.866  26.332  47.621  1.00  0.00     0.236 C 
HETATM   30  C   UNL     1       1.726  26.900  46.792  1.00  0.00     0.029 C 
HETATM   31  C   UNL     1       0.728  27.382  47.822  1.00  0.00     0.029 C 
HETATM   32  C   UNL     1       1.615  28.013  48.872  1.00  0.00     0.236 C 
ENDBRANCH  22  27
ENDBRANCH  21  22
ENDBRANCH   3  21
TORSDOF 7
ENDMDL
MODEL 7
REMARK VINA RESULT:      -7.8      3.319     10.268
REMARK  7 active torsions:
REMARK  status: ('A' for Active; 'I' for Inactive)
REMARK    1  A    between atoms: C_3  and  N_4 
REMARK       I    between atoms: N_4  and  C_5 
REMARK       I    between atoms: C_5  and  N_6 
REMARK    2  A    between atoms: N_6  and  C_7 
REMARK    3  A    between atoms: C_7  and  C_8 
REMARK    4  A    between atoms: C_8  and  N_9 
REMARK    5  A    between atoms: C_23  and  N_24 
REMARK       I    between atoms: N_24  and  C_25 
REMARK    6  A    between atoms: C_25  and  C_26 
REMARK    7  A    between atoms: C_26  and  O_27 
ROOT
HETATM    1  N   UNL     1       5.661  31.849  58.720  1.00  0.00    -0.308 N 
HETATM    2  C   UNL     1       5.128  32.367  59.858  1.00  0.00     0.320 C 
HETATM    3  N   UNL     1       5.567  31.886  61.045  1.00  0.00    -0.340 N 
HETATM    4  O   UNL     1       4.202  33.175  59.776  1.00  0.00    -0.247 OA
HETATM    5  H   UNL     1       5.120  32.105  57.903  1.00  0.00     0.170 HD
HETATM    6  H   UNL     1       6.096  31.026  60.965  1.00  0.00     0.164 HD
ENDROOT
BRANCH   1   7
HETATM    7  C   UNL     1       6.804  31.054  58.478  1.00  0.00     0.044 A 
HETATM    8  C   UNL     1       6.660  29.829  57.772  1.00  0.00    -0.008 A 
HETATM    9  C   UNL     1       5.291  29.334  57.358  1.00  0.00     0.053 C 
HETATM   10  C   UNL     1       7.815  29.057  57.475  1.00  0.00     0.043 A 
HETATM   11  C   UNL     1       9.065  29.499  57.917  1.00  0.00     0.030 A 
HETATM   12  C   UNL     1       9.198  30.705  58.600  1.00  0.00     0.005 A 
HETATM   13  C   UNL     1       8.077  31.486  58.862  1.00  0.00     0.030 A 
BRANCH  10  14
HETATM   14  N   UNL     1       7.682  27.873  56.714  1.00  0.00    -0.325 N 
HETATM   15  C   UNL     1       7.759  26.556  57.144  1.00  0.00     0.245 C 
HETATM   16  O   UNL     1       7.892  26.163  58.297  1.00  0.00    -0.271 OA
HETATM   17  H   UNL     1       7.532  27.958  55.713  1.00  0.00     0.169 HD
BRANCH  15  18
HETATM   18  C   UNL     1       7.574  25.576  55.979  1.00  0.00     0.270 C 
BRANCH  18  19
HETATM   19  O   UNL     1       6.903  26.169  54.866  1.00  0.00    -0.387 OA
HETATM   20  C   UNL     1       5.581  25.654  54.716  1.00  0.00     0.202 C 
ENDBRANCH  18  19
ENDBRANCH  15  18
ENDBRANCH  10  14
ENDBRANCH   1   7
BRANCH   3  21
HETATM   21  C   UNL     1       5.091  32.180  62.400  1.00  0.00     0.163 C 
BRANCH  21  22
HETATM   22  C   UNL     1       5.519  33.492  63.149  1.00  0.00     0.143 C 
HETATM   23  C   UNL     1       5.215  33.352  64.665  1.00  0.00     0.041 C 
HETATM   24  C   UNL     1       6.540  33.579  65.388  1.00  0.00     0.003 C 
HETATM   25  C   UNL     1       7.590  33.158  64.379  1.00  0.00     0.003 C 
HETATM   26  C   UNL     1       7.050  33.701  63.062  1.00  0.00     0.041 C 
BRANCH  22  27
HETATM   27  N   UNL     1       4.784  34.703  62.578  1.00  0.00    -0.061 N 
HETATM   28  H   UNL     1       4.499  34.369  61.631  1.00  0.00     0.281 HD
HETATM   29  C   UNL     1       5.556  35.978  62.302  1.00  0.00     0.236 C 
HETATM   30  C   UNL     1       4.686  37.094  62.859  1.00  0.00     0.029 C 
HETATM   31  C   UNL     1       3.283  36.532  62.795  1.00  0.00     0.029 C 
HETATM   32  C   UNL     1       3.481  35.099  63.237  1.00  0.00     0.236 C 
ENDBRANCH  22  27
ENDBRANCH  21  22
ENDBRANCH   3  21
TORSDOF 7
ENDMDL
MODEL 8
REMARK VINA RESULT:      -7.7      2.455      4.141
REMARK  7 active torsions:
REMARK  status: ('A' for Active; 'I' for Inactive)
REMARK    1  A    between atoms: C_3  and  N_4 
REMARK       I    between atoms: N_4  and  C_5 
REMARK       I    between atoms: C_5  and  N_6 
REMARK    2  A    between atoms: N_6  and  C_7 
REMARK    3  A    between atoms: C_7  and  C_8 
REMARK    4  A    between atoms: C_8  and  N_9 
REMARK    5  A    between atoms: C_23  and  N_24 
REMARK       I    between atoms: N_24  and  C_25 
REMARK    6  A    between atoms: C_25  and  C_26 
REMARK    7  A    between atoms: C_26  and  O_27 
ROOT
HETATM    1  N   UNL     1       9.306  30.839  58.168  1.00  0.00    -0.308 N 
HETATM    2  C   UNL     1       9.140  29.814  57.292  1.00  0.00     0.320 C 
HETATM    3  N   UNL     1       8.626  28.652  57.759  1.00  0.00    -0.340 N 
HETATM    4  O   UNL     1       9.548  29.937  56.136  1.00  0.00    -0.247 OA
HETATM    5  H   UNL     1       9.891  31.570  57.782  1.00  0.00     0.170 HD
HETATM    6  H   UNL     1       8.619  28.587  58.770  1.00  0.00     0.164 HD
ENDROOT
BRANCH   1   7
HETATM    7  C   UNL     1       8.816  31.067  59.473  1.00  0.00     0.044 A 
HETATM    8  C   UNL     1       7.460  31.456  59.647  1.00  0.00    -0.008 A 
HETATM    9  C   UNL     1       6.571  31.708  58.449  1.00  0.00     0.053 C 
HETATM   10  C   UNL     1       6.948  31.628  60.961  1.00  0.00     0.043 A 
HETATM   11  C   UNL     1       7.799  31.450  62.055  1.00  0.00     0.030 A 
HETATM   12  C   UNL     1       9.123  31.060  61.876  1.00  0.00     0.005 A 
HETATM   13  C   UNL     1       9.623  30.852  60.595  1.00  0.00     0.030 A 
BRANCH  10  14
HETATM   14  N   UNL     1       5.583  31.949  61.137  1.00  0.00    -0.325 N 
HETATM   15  C   UNL     1       5.024  33.138  61.582  1.00  0.00     0.245 C 
HETATM   16  O   UNL     1       5.616  34.178  61.847  1.00  0.00    -0.271 OA
HETATM   17  H   UNL     1       4.890  31.231  60.944  1.00  0.00     0.169 HD
BRANCH  15  18
HETATM   18  C   UNL     1       3.494  33.050  61.643  1.00  0.00     0.270 C 
BRANCH  18  19
HETATM   19  O   UNL     1       2.997  33.076  62.983  1.00  0.00    -0.387 OA
HETATM   20  C   UNL     1       2.121  34.181  63.196  1.00  0.00     0.202 C 
ENDBRANCH  18  19
ENDBRANCH  15  18
ENDBRANCH  10  14
ENDBRANCH   1   7
BRANCH   3  21
HETATM   21  C   UNL     1       8.448  27.370  57.069  1.00  0.00     0.163 C 
BRANCH  21  22
HETATM   22  C   UNL     1       7.098  27.009  56.354  1.00  0.00     0.143 C 
HETATM   23  C   UNL     1       5.905  27.560  57.181  1.00  0.00     0.041 C 
HETATM   24  C   UNL     1       5.118  28.468  56.239  1.00  0.00     0.003 C 
HETATM   25  C   UNL     1       6.152  28.953  55.242  1.00  0.00     0.003 C 
HETATM   26  C   UNL     1       6.996  27.713  54.980  1.00  0.00     0.041 C 
BRANCH  22  27
HETATM   27  N   UNL     1       6.964  25.496  56.187  1.00  0.00    -0.061 N 
HETATM   28  H   UNL     1       6.040  25.301  56.632  1.00  0.00     0.281 HD
HETATM   29  C   UNL     1       7.925  24.580  56.918  1.00  0.00     0.236 C 
HETATM   30  C   UNL     1       8.351  23.550  55.885  1.00  0.00     0.029 C 
HETATM   31  C   UNL     1       7.192  23.504  54.913  1.00  0.00     0.029 C 
HETATM   32  C   UNL     1       6.815  24.963  54.779  1.00  0.00     0.236 C 
ENDBRANCH  22  27
ENDBRANCH  21  22
ENDBRANCH   3  21
TORSDOF 7
ENDMDL
MODEL 9
REMARK VINA RESULT:      -7.7      1.913      2.798
REMARK  7 active torsions:
REMARK  status: ('A' for Active; 'I' for Inactive)
REMARK    1  A    between atoms: C_3  and  N_4 
REMARK       I    between atoms: N_4  and  C_5 
REMARK       I    between atoms: C_5  and  N_6 
REMARK    2  A    between atoms: N_6  and  C_7 
REMARK    3  A    between atoms: C_7  and  C_8 
REMARK    4  A    between atoms: C_8  and  N_9 
REMARK    5  A    between atoms: C_23  and  N_24 
REMARK       I    between atoms: N_24  and  C_25 
REMARK    6  A    between atoms: C_25  and  C_26 
REMARK    7  A    between atoms: C_26  and  O_27 
ROOT
HETATM    1  N   UNL     1       7.045  28.872  54.682  1.00  0.00    -0.308 N 
HETATM    2  C   UNL     1       7.563  27.656  54.367  1.00  0.00     0.320 C 
HETATM    3  N   UNL     1       7.365  26.634  55.234  1.00  0.00    -0.340 N 
HETATM    4  O   UNL     1       8.272  27.544  53.367  1.00  0.00    -0.247 OA
HETATM    5  H   UNL     1       7.429  29.605  54.098  1.00  0.00     0.170 HD
HETATM    6  H   UNL     1       7.034  26.930  56.144  1.00  0.00     0.164 HD
ENDROOT
BRANCH   1   7
HETATM    7  C   UNL     1       6.089  29.283  55.638  1.00  0.00     0.044 A 
HETATM    8  C   UNL     1       6.532  29.858  56.860  1.00  0.00    -0.008 A 
HETATM    9  C   UNL     1       8.008  29.951  57.177  1.00  0.00     0.053 C 
HETATM   10  C   UNL     1       5.572  30.327  57.796  1.00  0.00     0.043 A 
HETATM   11  C   UNL     1       4.211  30.179  57.514  1.00  0.00     0.030 A 
HETATM   12  C   UNL     1       3.786  29.623  56.310  1.00  0.00     0.005 A 
HETATM   13  C   UNL     1       4.719  29.195  55.371  1.00  0.00     0.030 A 
BRANCH  10  14
HETATM   14  N   UNL     1       6.011  30.960  58.981  1.00  0.00    -0.325 N 
HETATM   15  C   UNL     1       6.078  32.317  59.263  1.00  0.00     0.245 C 
HETATM   16  O   UNL     1       5.698  33.238  58.551  1.00  0.00    -0.271 OA
HETATM   17  H   UNL     1       6.352  30.378  59.741  1.00  0.00     0.169 HD
BRANCH  15  18
HETATM   18  C   UNL     1       6.636  32.570  60.669  1.00  0.00     0.270 C 
BRANCH  18  19
HETATM   19  O   UNL     1       5.806  32.020  61.694  1.00  0.00    -0.387 OA
HETATM   20  C   UNL     1       4.764  32.920  62.065  1.00  0.00     0.202 C 
ENDBRANCH  18  19
ENDBRANCH  15  18
ENDBRANCH  10  14
ENDBRANCH   1   7
BRANCH   3  21
HETATM   21  C   UNL     1       7.899  25.269  55.199  1.00  0.00     0.163 C 
BRANCH  21  22
HETATM   22  C   UNL     1       7.253  24.163  54.290  1.00  0.00     0.143 C 
HETATM   23  C   UNL     1       5.805  24.577  53.912  1.00  0.00     0.041 C 
HETATM   24  C   UNL     1       5.750  24.590  52.386  1.00  0.00     0.003 C 
HETATM   25  C   UNL     1       7.179  24.877  51.966  1.00  0.00     0.003 C 
HETATM   26  C   UNL     1       8.005  24.049  52.942  1.00  0.00     0.041 C 
BRANCH  22  27
HETATM   27  N   UNL     1       7.241  22.814  55.008  1.00  0.00    -0.061 N 
HETATM   28  H   UNL     1       6.221  22.641  55.146  1.00  0.00     0.281 HD
HETATM   29  C   UNL     1       7.825  22.710  56.402  1.00  0.00     0.236 C 
HETATM   30  C   UNL     1       8.675  21.451  56.381  1.00  0.00     0.029 C 
HETATM   31  C   UNL     1       8.039  20.597  55.306  1.00  0.00     0.029 C 
HETATM   32  C   UNL     1       7.718  21.609  54.228  1.00  0.00     0.236 C 
ENDBRANCH  22  27
ENDBRANCH  21  22
ENDBRANCH   3  21
TORSDOF 7
ENDMDL
MODEL 10
REMARK VINA RESULT:      -7.7      2.698      5.201
REMARK  7 active torsions:
REMARK  status: ('A' for Active; 'I' for Inactive)
REMARK    1  A    between atoms: C_3  and  N_4 
REMARK       I    between atoms: N_4  and  C_5 
REMARK       I    between atoms: C_5  and  N_6 
REMARK    2  A    between atoms: N_6  and  C_7 
REMARK    3  A    between atoms: C_7  and  C_8 
REMARK    4  A    between atoms: C_8  and  N_9 
REMARK    5  A    between atoms: C_23  and  N_24 
REMARK       I    between atoms: N_24  and  C_25 
REMARK    6  A    between atoms: C_25  and  C_26 
REMARK    7  A    between atoms: C_26  and  O_27 
ROOT
HETATM    1  N   UNL     1       8.890  30.697  58.484  1.00  0.00    -0.308 N 
HETATM    2  C   UNL     1       8.535  29.684  57.652  1.00  0.00     0.320 C 
HETATM    3  N   UNL     1       7.943  28.592  58.191  1.00  0.00    -0.340 N 
HETATM    4  O   UNL     1       8.849  29.743  56.462  1.00  0.00    -0.247 OA
HETATM    5  H   UNL     1       9.514  31.354  58.030  1.00  0.00     0.170 HD
HETATM    6  H   UNL     1       8.021  28.544  59.200  1.00  0.00     0.164 HD
ENDROOT
BRANCH   1   7
HETATM    7  C   UNL     1       8.547  30.998  59.821  1.00  0.00     0.044 A 
HETATM    8  C   UNL     1       7.341  31.701  60.087  1.00  0.00    -0.008 A 
HETATM    9  C   UNL     1       6.473  32.199  58.951  1.00  0.00     0.053 C 
HETATM   10  C   UNL     1       6.963  31.952  61.433  1.00  0.00     0.043 A 
HETATM   11  C   UNL     1       7.806  31.538  62.468  1.00  0.00     0.030 A 
HETATM   12  C   UNL     1       8.981  30.842  62.199  1.00  0.00     0.005 A 
HETATM   13  C   UNL     1       9.340  30.558  60.886  1.00  0.00     0.030 A 
BRANCH  10  14
HETATM   14  N   UNL     1       5.731  32.591  61.701  1.00  0.00    -0.325 N 
HETATM   15  C   UNL     1       4.708  32.178  62.541  1.00  0.00     0.245 C 
HETATM   16  O   UNL     1       4.707  31.199  63.277  1.00  0.00    -0.271 OA
HETATM   17  H   UNL     1       5.522  33.458  61.214  1.00  0.00     0.169 HD
BRANCH  15  18
HETATM   18  C   UNL     1       3.534  33.165  62.521  1.00  0.00     0.270 C 
BRANCH  18  19
HETATM   19  O   UNL     1       3.235  33.686  63.818  1.00  0.00    -0.387 OA
HETATM   20  C   UNL     1       3.568  35.069  63.918  1.00  0.00     0.202 C 
ENDBRANCH  18  19
ENDBRANCH  15  18
ENDBRANCH  10  14
ENDBRANCH   1   7
BRANCH   3  21
HETATM   21  C   UNL     1       7.566  27.328  57.552  1.00  0.00     0.163 C 
BRANCH  21  22
HETATM   22  C   UNL     1       6.425  27.266  56.475  1.00  0.00     0.143 C 
HETATM   23  C   UNL     1       6.978  26.647  55.162  1.00  0.00     0.041 C 
HETATM   24  C   UNL     1       6.098  25.438  54.857  1.00  0.00     0.003 C 
HETATM   25  C   UNL     1       5.591  24.996  56.217  1.00  0.00     0.003 C 
HETATM   26  C   UNL     1       5.293  26.312  56.925  1.00  0.00     0.041 C 
BRANCH  22  27
HETATM   27  N   UNL     1       5.867  28.661  56.200  1.00  0.00    -0.061 N 
HETATM   28  H   UNL     1       6.680  29.277  56.419  1.00  0.00     0.281 HD
HETATM   29  C   UNL     1       4.752  29.200  57.073  1.00  0.00     0.236 C 
HETATM   30  C   UNL     1       3.751  29.807  56.105  1.00  0.00     0.029 C 
HETATM   31  C   UNL     1       4.586  30.182  54.900  1.00  0.00     0.029 C 
HETATM   32  C   UNL     1       5.522  29.001  54.766  1.00  0.00     0.236 C 
ENDBRANCH  22  27
ENDBRANCH  21  22
ENDBRANCH   3  21
TORSDOF 7
ENDMDL
