MODEL 1
REMARK VINA RESULT:      -9.2      0.000      0.000
REMARK  3 active torsions:
REMARK  status: ('A' for Active; 'I' for Inactive)
REMARK    1  A    between atoms: C_7  and  C_8 
REMARK    2  A    between atoms: C_17  and  C_18 
REMARK       I    between atoms: C_18  and  N_19 
REMARK    3  A    between atoms: N_19  and  C_20 
ROOT
HETATM    1  C   UNL     1       5.456  27.100  54.826  1.00  0.00     0.206 C 
HETATM    2  N   UNL     1       4.679  28.311  54.524  1.00  0.00    -0.084 N 
HETATM    3  C   UNL     1       4.121  28.568  53.298  1.00  0.00     0.725 A 
HETATM    4  N   UNL     1       3.413  29.666  53.359  1.00  0.00    -0.054 NA
HETATM    5  C   UNL     1       3.531  30.029  54.674  1.00  0.00     0.275 A 
HETATM    6  N   UNL     1       4.246  29.201  55.444  1.00  0.00    -0.149 NA
HETATM    7  N   UNL     1       4.347  27.720  52.278  1.00  0.00    -0.192 N 
HETATM    8  C   UNL     1       5.226  26.648  52.360  1.00  0.00     0.037 C 
HETATM    9  C   UNL     1       5.470  25.906  51.068  1.00  0.00     0.070 C 
HETATM   10  C   UNL     1       5.793  26.331  53.551  1.00  0.00     0.063 C 
HETATM   11  H   UNL     1       3.990  27.965  51.358  1.00  0.00     0.184 HD
ENDROOT
BRANCH  10  12
HETATM   12  C   UNL     1       6.865  25.303  53.597  1.00  0.00     0.256 C 
HETATM   13  N   UNL     1       6.433  24.063  54.011  1.00  0.00    -0.323 N 
HETATM   14  H   UNL     1       5.445  23.931  54.171  1.00  0.00     0.169 HD
HETATM   15  O   UNL     1       8.002  25.622  53.268  1.00  0.00    -0.267 OA
BRANCH  13  16
HETATM   16  C   UNL     1       7.243  22.924  54.232  1.00  0.00     0.035 A 
HETATM   17  C   UNL     1       7.622  22.468  55.497  1.00  0.00     0.029 A 
HETATM   18  C   UNL     1       8.418  21.326  55.635  1.00  0.00     0.002 A 
HETATM   19  C   UNL     1       8.842  20.628  54.509  1.00  0.00     0.000 A 
HETATM   20  C   UNL     1       8.469  21.071  53.242  1.00  0.00     0.002 A 
HETATM   21  C   UNL     1       7.672  22.212  53.103  1.00  0.00     0.029 A 
ENDBRANCH  13  16
ENDBRANCH  10  12
BRANCH   1  22
HETATM   22  C   UNL     1       6.630  27.415  55.716  1.00  0.00     0.015 A 
HETATM   23  C   UNL     1       7.087  26.647  56.832  1.00  0.00     0.061 A 
HETATM   24  C   UNL     1       6.483  25.425  57.425  1.00  0.00     0.073 C 
HETATM   25  N   UNL     1       8.215  27.142  57.351  1.00  0.00    -0.178 NA
HETATM   26  N   UNL     1       8.465  28.234  56.615  1.00  0.00    -0.284 N 
HETATM   27  C   UNL     1       9.665  28.996  56.859  1.00  0.00     0.179 C 
HETATM   28  C   UNL     1       7.533  28.461  55.648  1.00  0.00     0.123 A 
ENDBRANCH   1  22
TORSDOF 3
ENDMDL
MODEL 2
REMARK VINA RESULT:      -7.9      5.126      8.833
REMARK  3 active torsions:
REMARK  status: ('A' for Active; 'I' for Inactive)
REMARK    1  A    between atoms: C_7  and  C_8 
REMARK    2  A    between atoms: C_17  and  C_18 
REMARK       I    between atoms: C_18  and  N_19 
REMARK    3  A    between atoms: N_19  and  C_20 
ROOT
HETATM    1  C   UNL     1       5.663  30.425  57.795  1.00  0.00     0.206 C 
HETATM    2  N   UNL     1       5.560  29.737  56.500  1.00  0.00    -0.084 N 
HETATM    3  C   UNL     1       6.604  29.072  55.909  1.00  0.00     0.725 A 
HETATM    4  N   UNL     1       6.188  28.481  54.819  1.00  0.00    -0.054 NA
HETATM    5  C   UNL     1       4.851  28.778  54.805  1.00  0.00     0.275 A 
HETATM    6  N   UNL     1       4.404  29.494  55.843  1.00  0.00    -0.149 NA
HETATM    7  N   UNL     1       7.819  29.102  56.487  1.00  0.00    -0.192 N 
HETATM    8  C   UNL     1       8.113  29.881  57.599  1.00  0.00     0.037 C 
HETATM    9  C   UNL     1       9.566  29.909  58.008  1.00  0.00     0.070 C 
HETATM   10  C   UNL     1       7.118  30.545  58.239  1.00  0.00     0.063 C 
HETATM   11  H   UNL     1       8.598  28.669  55.998  1.00  0.00     0.184 HD
ENDROOT
BRANCH  10  12
HETATM   12  C   UNL     1       7.462  31.514  59.312  1.00  0.00     0.256 C 
HETATM   13  N   UNL     1       6.883  31.231  60.528  1.00  0.00    -0.323 N 
HETATM   14  H   UNL     1       6.352  30.377  60.617  1.00  0.00     0.169 HD
HETATM   15  O   UNL     1       8.211  32.448  59.045  1.00  0.00    -0.267 OA
BRANCH  13  16
HETATM   16  C   UNL     1       6.963  32.022  61.699  1.00  0.00     0.035 A 
HETATM   17  C   UNL     1       7.952  31.875  62.675  1.00  0.00     0.029 A 
HETATM   18  C   UNL     1       7.971  32.703  63.802  1.00  0.00     0.002 A 
HETATM   19  C   UNL     1       7.000  33.687  63.964  1.00  0.00     0.000 A 
HETATM   20  C   UNL     1       6.011  33.845  62.997  1.00  0.00     0.002 A 
HETATM   21  C   UNL     1       5.993  33.019  61.869  1.00  0.00     0.029 A 
ENDBRANCH  13  16
ENDBRANCH  10  12
BRANCH   1  22
HETATM   22  C   UNL     1       4.886  31.715  57.788  1.00  0.00     0.015 A 
HETATM   23  C   UNL     1       3.833  32.084  58.682  1.00  0.00     0.061 A 
HETATM   24  C   UNL     1       3.207  31.275  59.760  1.00  0.00     0.073 C 
HETATM   25  N   UNL     1       3.417  33.338  58.474  1.00  0.00    -0.178 NA
HETATM   26  N   UNL     1       4.154  33.763  57.438  1.00  0.00    -0.284 N 
HETATM   27  C   UNL     1       4.013  35.121  56.975  1.00  0.00     0.179 C 
HETATM   28  C   UNL     1       5.021  32.823  56.969  1.00  0.00     0.123 A 
ENDBRANCH   1  22
TORSDOF 3
ENDMDL
MODEL 3
REMARK VINA RESULT:      -7.8      6.112      9.052
REMARK  3 active torsions:
REMARK  status: ('A' for Active; 'I' for Inactive)
REMARK    1  A    between atoms: C_7  and  C_8 
REMARK    2  A    between atoms: C_17  and  C_18 
REMARK       I    between atoms: C_18  and  N_19 
REMARK    3  A    between atoms: N_19  and  C_20 
ROOT
HETATM    1  C   UNL     1       5.466  33.541  60.771  1.00  0.00     0.206 C 
HETATM    2  N   UNL     1       4.576  33.609  61.938  1.00  0.00    -0.084 N 
HETATM    3  C   UNL     1       4.867  33.033  63.149  1.00  0.00     0.725 A 
HETATM    4  N   UNL     1       3.939  33.342  64.017  1.00  0.00    -0.054 NA
HETATM    5  C   UNL     1       3.110  34.158  63.295  1.00  0.00     0.275 A 
HETATM    6  N   UNL     1       3.486  34.402  62.035  1.00  0.00    -0.149 NA
HETATM    7  N   UNL     1       5.985  32.296  63.279  1.00  0.00    -0.192 N 
HETATM    8  C   UNL     1       6.813  31.975  62.210  1.00  0.00     0.037 C 
HETATM    9  C   UNL     1       7.930  31.007  62.520  1.00  0.00     0.070 C 
HETATM   10  C   UNL     1       6.588  32.529  60.993  1.00  0.00     0.063 C 
HETATM   11  H   UNL     1       6.147  31.814  64.159  1.00  0.00     0.184 HD
ENDROOT
BRANCH  10  12
HETATM   12  C   UNL     1       7.360  32.046  59.819  1.00  0.00     0.256 C 
HETATM   13  N   UNL     1       6.856  30.900  59.249  1.00  0.00    -0.323 N 
HETATM   14  H   UNL     1       5.987  30.530  59.609  1.00  0.00     0.169 HD
HETATM   15  O   UNL     1       8.344  32.684  59.458  1.00  0.00    -0.267 OA
BRANCH  13  16
HETATM   16  C   UNL     1       7.430  30.171  58.181  1.00  0.00     0.035 A 
HETATM   17  C   UNL     1       8.711  29.613  58.216  1.00  0.00     0.029 A 
HETATM   18  C   UNL     1       9.206  28.896  57.122  1.00  0.00     0.002 A 
HETATM   19  C   UNL     1       8.426  28.730  55.982  1.00  0.00     0.000 A 
HETATM   20  C   UNL     1       7.147  29.279  55.937  1.00  0.00     0.002 A 
HETATM   21  C   UNL     1       6.650  29.995  57.031  1.00  0.00     0.029 A 
ENDBRANCH  13  16
ENDBRANCH  10  12
BRANCH   1  22
HETATM   22  C   UNL     1       4.681  33.360  59.498  1.00  0.00     0.015 A 
HETATM   23  C   UNL     1       3.694  32.360  59.238  1.00  0.00     0.061 A 
HETATM   24  C   UNL     1       3.267  31.231  60.106  1.00  0.00     0.073 C 
HETATM   25  N   UNL     1       3.109  32.532  58.048  1.00  0.00    -0.178 NA
HETATM   26  N   UNL     1       3.732  33.598  57.526  1.00  0.00    -0.284 N 
HETATM   27  C   UNL     1       3.304  34.117  56.250  1.00  0.00     0.179 C 
HETATM   28  C   UNL     1       4.701  34.109  58.335  1.00  0.00     0.123 A 
ENDBRANCH   1  22
TORSDOF 3
ENDMDL
MODEL 4
REMARK VINA RESULT:      -7.5      8.473     11.850
REMARK  3 active torsions:
REMARK  status: ('A' for Active; 'I' for Inactive)
REMARK    1  A    between atoms: C_7  and  C_8 
REMARK    2  A    between atoms: C_17  and  C_18 
REMARK       I    between atoms: C_18  and  N_19 
REMARK    3  A    between atoms: N_19  and  C_20 
ROOT
HETATM    1  C   UNL     1       4.375  32.916  60.556  1.00  0.00     0.206 C 
HETATM    2  N   UNL     1       4.417  32.402  59.180  1.00  0.00    -0.084 N 
HETATM    3  C   UNL     1       5.469  31.685  58.669  1.00  0.00     0.725 A 
HETATM    4  N   UNL     1       5.180  31.283  57.458  1.00  0.00    -0.054 NA
HETATM    5  C   UNL     1       3.903  31.744  57.283  1.00  0.00     0.275 A 
HETATM    6  N   UNL     1       3.368  32.383  58.329  1.00  0.00    -0.149 NA
HETATM    7  N   UNL     1       6.568  31.496  59.422  1.00  0.00    -0.192 N 
HETATM    8  C   UNL     1       6.753  32.096  60.661  1.00  0.00     0.037 C 
HETATM    9  C   UNL     1       8.114  31.894  61.285  1.00  0.00     0.070 C 
HETATM   10  C   UNL     1       5.742  32.800  61.228  1.00  0.00     0.063 C 
HETATM   11  H   UNL     1       7.368  31.029  59.003  1.00  0.00     0.184 HD
ENDROOT
BRANCH  10  12
HETATM   12  C   UNL     1       6.002  33.586  62.461  1.00  0.00     0.256 C 
HETATM   13  N   UNL     1       5.695  32.919  63.626  1.00  0.00    -0.323 N 
HETATM   14  H   UNL     1       5.401  31.955  63.560  1.00  0.00     0.169 HD
HETATM   15  O   UNL     1       6.459  34.719  62.353  1.00  0.00    -0.267 OA
BRANCH  13  16
HETATM   16  C   UNL     1       5.759  33.447  64.937  1.00  0.00     0.035 A 
HETATM   17  C   UNL     1       6.952  33.695  65.621  1.00  0.00     0.029 A 
HETATM   18  C   UNL     1       6.934  34.229  66.914  1.00  0.00     0.002 A 
HETATM   19  C   UNL     1       5.723  34.521  67.535  1.00  0.00     0.000 A 
HETATM   20  C   UNL     1       4.529  34.280  66.861  1.00  0.00     0.002 A 
HETATM   21  C   UNL     1       4.545  33.748  65.568  1.00  0.00     0.029 A 
ENDBRANCH  13  16
ENDBRANCH  10  12
BRANCH   1  22
HETATM   22  C   UNL     1       3.750  34.285  60.606  1.00  0.00     0.015 A 
HETATM   23  C   UNL     1       2.823  34.766  61.583  1.00  0.00     0.061 A 
HETATM   24  C   UNL     1       2.201  34.027  62.713  1.00  0.00     0.073 C 
HETATM   25  N   UNL     1       2.533  36.058  61.403  1.00  0.00    -0.178 NA
HETATM   26  N   UNL     1       3.225  36.402  60.307  1.00  0.00    -0.284 N 
HETATM   27  C   UNL     1       3.199  37.770  59.850  1.00  0.00     0.179 C 
HETATM   28  C   UNL     1       3.940  35.373  59.773  1.00  0.00     0.123 A 
ENDBRANCH   1  22
TORSDOF 3
ENDMDL
MODEL 5
REMARK VINA RESULT:      -7.3      2.608      5.354
REMARK  3 active torsions:
REMARK  status: ('A' for Active; 'I' for Inactive)
REMARK    1  A    between atoms: C_7  and  C_8 
REMARK    2  A    between atoms: C_17  and  C_18 
REMARK       I    between atoms: C_18  and  N_19 
REMARK    3  A    between atoms: N_19  and  C_20 
ROOT
HETATM    1  C   UNL     1       5.167  29.538  51.742  1.00  0.00     0.206 C 
HETATM    2  N   UNL     1       4.607  30.895  51.677  1.00  0.00    -0.084 N 
HETATM    3  C   UNL     1       4.221  31.610  52.782  1.00  0.00     0.725 A 
HETATM    4  N   UNL     1       3.855  32.813  52.421  1.00  0.00    -0.054 NA
HETATM    5  C   UNL     1       4.080  32.805  51.071  1.00  0.00     0.275 A 
HETATM    6  N   UNL     1       4.596  31.676  50.574  1.00  0.00    -0.149 NA
HETATM    7  N   UNL     1       4.275  31.032  53.996  1.00  0.00    -0.192 N 
HETATM    8  C   UNL     1       4.586  29.692  54.187  1.00  0.00     0.037 C 
HETATM    9  C   UNL     1       4.440  29.185  55.602  1.00  0.00     0.070 C 
HETATM   10  C   UNL     1       4.995  28.938  53.136  1.00  0.00     0.063 C 
HETATM   11  H   UNL     1       3.914  31.549  54.794  1.00  0.00     0.184 HD
ENDROOT
BRANCH  10  12
HETATM   12  C   UNL     1       5.152  27.471  53.309  1.00  0.00     0.256 C 
HETATM   13  N   UNL     1       6.452  27.068  53.515  1.00  0.00    -0.323 N 
HETATM   14  H   UNL     1       7.163  27.779  53.608  1.00  0.00     0.169 HD
HETATM   15  O   UNL     1       4.153  26.762  53.264  1.00  0.00    -0.267 OA
BRANCH  13  16
HETATM   16  C   UNL     1       6.909  25.733  53.624  1.00  0.00     0.035 A 
HETATM   17  C   UNL     1       6.779  24.956  54.778  1.00  0.00     0.029 A 
HETATM   18  C   UNL     1       7.247  23.638  54.806  1.00  0.00     0.002 A 
HETATM   19  C   UNL     1       7.850  23.084  53.681  1.00  0.00     0.000 A 
HETATM   20  C   UNL     1       7.983  23.849  52.525  1.00  0.00     0.002 A 
HETATM   21  C   UNL     1       7.513  25.166  52.495  1.00  0.00     0.029 A 
ENDBRANCH  13  16
ENDBRANCH  10  12
BRANCH   1  22
HETATM   22  C   UNL     1       4.658  28.685  50.610  1.00  0.00     0.015 A 
HETATM   23  C   UNL     1       3.293  28.487  50.235  1.00  0.00     0.061 A 
HETATM   24  C   UNL     1       2.066  28.995  50.903  1.00  0.00     0.073 C 
HETATM   25  N   UNL     1       3.181  27.753  49.123  1.00  0.00    -0.178 NA
HETATM   26  N   UNL     1       4.445  27.444  48.803  1.00  0.00    -0.284 N 
HETATM   27  C   UNL     1       4.711  26.698  47.598  1.00  0.00     0.179 C 
HETATM   28  C   UNL     1       5.363  27.946  49.676  1.00  0.00     0.123 A 
ENDBRANCH   1  22
TORSDOF 3
ENDMDL
MODEL 6
REMARK VINA RESULT:      -7.1      1.769      6.022
REMARK  3 active torsions:
REMARK  status: ('A' for Active; 'I' for Inactive)
REMARK    1  A    between atoms: C_7  and  C_8 
REMARK    2  A    between atoms: C_17  and  C_18 
REMARK       I    between atoms: C_18  and  N_19 
REMARK    3  A    between atoms: N_19  and  C_20 
ROOT
HETATM    1  C   UNL     1       7.619  26.236  54.874  1.00  0.00     0.206 C 
HETATM    2  N   UNL     1       7.645  24.875  55.430  1.00  0.00    -0.084 N 
HETATM    3  C   UNL     1       7.048  23.798  54.826  1.00  0.00     0.725 A 
HETATM    4  N   UNL     1       7.320  22.710  55.500  1.00  0.00    -0.054 NA
HETATM    5  C   UNL     1       8.137  23.170  56.498  1.00  0.00     0.275 A 
HETATM    6  N   UNL     1       8.416  24.477  56.466  1.00  0.00    -0.149 NA
HETATM    7  N   UNL     1       6.328  23.983  53.705  1.00  0.00    -0.192 N 
HETATM    8  C   UNL     1       6.046  25.238  53.181  1.00  0.00     0.037 C 
HETATM    9  C   UNL     1       5.092  25.256  52.011  1.00  0.00     0.070 C 
HETATM   10  C   UNL     1       6.623  26.340  53.722  1.00  0.00     0.063 C 
HETATM   11  H   UNL     1       5.830  23.188  53.313  1.00  0.00     0.184 HD
ENDROOT
BRANCH  10  12
HETATM   12  C   UNL     1       6.180  27.687  53.277  1.00  0.00     0.256 C 
HETATM   13  N   UNL     1       4.895  28.007  53.652  1.00  0.00    -0.323 N 
HETATM   14  H   UNL     1       4.396  27.359  54.246  1.00  0.00     0.169 HD
HETATM   15  O   UNL     1       6.964  28.385  52.642  1.00  0.00    -0.267 OA
BRANCH  13  16
HETATM   16  C   UNL     1       4.185  29.177  53.297  1.00  0.00     0.035 A 
HETATM   17  C   UNL     1       3.665  29.419  52.022  1.00  0.00     0.029 A 
HETATM   18  C   UNL     1       2.964  30.599  51.750  1.00  0.00     0.002 A 
HETATM   19  C   UNL     1       2.775  31.548  52.749  1.00  0.00     0.000 A 
HETATM   20  C   UNL     1       3.286  31.317  54.024  1.00  0.00     0.002 A 
HETATM   21  C   UNL     1       3.986  30.137  54.298  1.00  0.00     0.029 A 
ENDBRANCH  13  16
ENDBRANCH  10  12
BRANCH   1  22
HETATM   22  C   UNL     1       7.452  27.264  55.962  1.00  0.00     0.015 A 
HETATM   23  C   UNL     1       6.348  27.384  56.863  1.00  0.00     0.061 A 
HETATM   24  C   UNL     1       5.089  26.595  56.896  1.00  0.00     0.073 C 
HETATM   25  N   UNL     1       6.550  28.339  57.777  1.00  0.00    -0.178 NA
HETATM   26  N   UNL     1       7.742  28.859  57.452  1.00  0.00    -0.284 N 
HETATM   27  C   UNL     1       8.317  29.891  58.280  1.00  0.00     0.179 C 
HETATM   28  C   UNL     1       8.307  28.278  56.358  1.00  0.00     0.123 A 
ENDBRANCH   1  22
TORSDOF 3
ENDMDL
MODEL 7
REMARK VINA RESULT:      -7.0      4.794      7.327
REMARK  3 active torsions:
REMARK  status: ('A' for Active; 'I' for Inactive)
REMARK    1  A    between atoms: C_7  and  C_8 
REMARK    2  A    between atoms: C_17  and  C_18 
REMARK       I    between atoms: C_18  and  N_19 
REMARK    3  A    between atoms: N_19  and  C_20 
ROOT
HETATM    1  C   UNL     1       2.291  28.829  48.698  1.00  0.00     0.206 C 
HETATM    2  N   UNL     1       1.241  28.945  47.676  1.00  0.00    -0.084 N 
HETATM    3  C   UNL     1       0.814  27.894  46.904  1.00  0.00     0.725 A 
HETATM    4  N   UNL     1      -0.190  28.277  46.158  1.00  0.00    -0.054 NA
HETATM    5  C   UNL     1      -0.376  29.577  46.545  1.00  0.00     0.275 A 
HETATM    6  N   UNL     1       0.434  30.017  47.513  1.00  0.00    -0.149 NA
HETATM    7  N   UNL     1       1.427  26.701  47.014  1.00  0.00    -0.192 N 
HETATM    8  C   UNL     1       2.564  26.499  47.786  1.00  0.00     0.037 C 
HETATM    9  C   UNL     1       3.202  25.136  47.660  1.00  0.00     0.070 C 
HETATM   10  C   UNL     1       3.022  27.494  48.586  1.00  0.00     0.063 C 
HETATM   11  H   UNL     1       1.150  25.955  46.382  1.00  0.00     0.184 HD
ENDROOT
BRANCH  10  12
HETATM   12  C   UNL     1       4.333  27.335  49.268  1.00  0.00     0.256 C 
HETATM   13  N   UNL     1       4.236  26.943  50.584  1.00  0.00    -0.323 N 
HETATM   14  H   UNL     1       3.320  26.724  50.950  1.00  0.00     0.169 HD
HETATM   15  O   UNL     1       5.358  27.550  48.631  1.00  0.00    -0.267 OA
BRANCH  13  16
HETATM   16  C   UNL     1       5.307  26.798  51.497  1.00  0.00     0.035 A 
HETATM   17  C   UNL     1       5.707  27.791  52.395  1.00  0.00     0.029 A 
HETATM   18  C   UNL     1       6.771  27.570  53.276  1.00  0.00     0.002 A 
HETATM   19  C   UNL     1       7.445  26.353  53.267  1.00  0.00     0.000 A 
HETATM   20  C   UNL     1       7.054  25.355  52.378  1.00  0.00     0.002 A 
HETATM   21  C   UNL     1       5.989  25.575  51.498  1.00  0.00     0.029 A 
ENDBRANCH  13  16
ENDBRANCH  10  12
BRANCH   1  22
HETATM   22  C   UNL     1       3.176  30.047  48.708  1.00  0.00     0.015 A 
HETATM   23  C   UNL     1       3.619  30.774  49.857  1.00  0.00     0.061 A 
HETATM   24  C   UNL     1       3.257  30.561  51.283  1.00  0.00     0.073 C 
HETATM   25  N   UNL     1       4.477  31.746  49.534  1.00  0.00    -0.178 NA
HETATM   26  N   UNL     1       4.561  31.682  48.197  1.00  0.00    -0.284 N 
HETATM   27  C   UNL     1       5.466  32.561  47.498  1.00  0.00     0.179 C 
HETATM   28  C   UNL     1       3.779  30.709  47.652  1.00  0.00     0.123 A 
ENDBRANCH   1  22
TORSDOF 3
ENDMDL
MODEL 8
REMARK VINA RESULT:      -7.0      3.377      6.199
REMARK  3 active torsions:
REMARK  status: ('A' for Active; 'I' for Inactive)
REMARK    1  A    between atoms: C_7  and  C_8 
REMARK    2  A    between atoms: C_17  and  C_18 
REMARK       I    between atoms: C_18  and  N_19 
REMARK    3  A    between atoms: N_19  and  C_20 
ROOT
HETATM    1  C   UNL     1       6.286  30.735  56.687  1.00  0.00     0.206 C 
HETATM    2  N   UNL     1       6.669  31.195  58.030  1.00  0.00    -0.084 N 
HETATM    3  C   UNL     1       7.341  30.415  58.936  1.00  0.00     0.725 A 
HETATM    4  N   UNL     1       7.626  31.123  59.998  1.00  0.00    -0.054 NA
HETATM    5  C   UNL     1       7.142  32.362  59.675  1.00  0.00     0.275 A 
HETATM    6  N   UNL     1       6.600  32.475  58.457  1.00  0.00    -0.149 NA
HETATM    7  N   UNL     1       7.608  29.131  58.634  1.00  0.00    -0.192 N 
HETATM    8  C   UNL     1       7.128  28.503  57.492  1.00  0.00     0.037 C 
HETATM    9  C   UNL     1       7.396  27.019  57.404  1.00  0.00     0.070 C 
HETATM   10  C   UNL     1       6.473  29.226  56.549  1.00  0.00     0.063 C 
HETATM   11  H   UNL     1       8.038  28.547  59.346  1.00  0.00     0.184 HD
ENDROOT
BRANCH  10  12
HETATM   12  C   UNL     1       5.808  28.521  55.423  1.00  0.00     0.256 C 
HETATM   13  N   UNL     1       6.518  28.555  54.244  1.00  0.00    -0.323 N 
HETATM   14  H   UNL     1       7.438  28.972  54.253  1.00  0.00     0.169 HD
HETATM   15  O   UNL     1       4.726  27.980  55.623  1.00  0.00    -0.267 OA
BRANCH  13  16
HETATM   16  C   UNL     1       6.092  28.047  52.994  1.00  0.00     0.035 A 
HETATM   17  C   UNL     1       5.467  28.817  52.010  1.00  0.00     0.029 A 
HETATM   18  C   UNL     1       5.083  28.244  50.793  1.00  0.00     0.002 A 
HETATM   19  C   UNL     1       5.322  26.895  50.548  1.00  0.00     0.000 A 
HETATM   20  C   UNL     1       5.947  26.118  51.520  1.00  0.00     0.002 A 
HETATM   21  C   UNL     1       6.332  26.691  52.736  1.00  0.00     0.029 A 
ENDBRANCH  13  16
ENDBRANCH  10  12
BRANCH   1  22
HETATM   22  C   UNL     1       4.924  31.250  56.304  1.00  0.00     0.015 A 
HETATM   23  C   UNL     1       3.729  31.173  57.086  1.00  0.00     0.061 A 
HETATM   24  C   UNL     1       3.524  30.510  58.401  1.00  0.00     0.073 C 
HETATM   25  N   UNL     1       2.709  31.813  56.506  1.00  0.00    -0.178 NA
HETATM   26  N   UNL     1       3.217  32.263  55.349  1.00  0.00    -0.284 N 
HETATM   27  C   UNL     1       2.398  33.070  54.479  1.00  0.00     0.179 C 
HETATM   28  C   UNL     1       4.524  31.925  55.164  1.00  0.00     0.123 A 
ENDBRANCH   1  22
TORSDOF 3
ENDMDL
MODEL 9
REMARK VINA RESULT:      -6.8     10.064     13.678
REMARK  3 active torsions:
REMARK  status: ('A' for Active; 'I' for Inactive)
REMARK    1  A    between atoms: C_7  and  C_8 
REMARK    2  A    between atoms: C_17  and  C_18 
REMARK       I    between atoms: C_18  and  N_19 
REMARK    3  A    between atoms: N_19  and  C_20 
ROOT
HETATM    1  C   UNL     1       4.629  34.675  61.158  1.00  0.00     0.206 C 
HETATM    2  N   UNL     1       4.054  33.609  60.326  1.00  0.00    -0.084 N 
HETATM    3  C   UNL     1       3.545  33.817  59.069  1.00  0.00     0.725 A 
HETATM    4  N   UNL     1       3.197  32.672  58.541  1.00  0.00    -0.054 NA
HETATM    5  C   UNL     1       3.558  31.771  59.506  1.00  0.00     0.275 A 
HETATM    6  N   UNL     1       4.141  32.287  60.593  1.00  0.00    -0.149 NA
HETATM    7  N   UNL     1       3.486  35.069  58.579  1.00  0.00    -0.192 N 
HETATM    8  C   UNL     1       3.801  36.195  59.329  1.00  0.00     0.037 C 
HETATM    9  C   UNL     1       3.521  37.520  58.662  1.00  0.00     0.070 C 
HETATM   10  C   UNL     1       4.327  36.052  60.571  1.00  0.00     0.063 C 
HETATM   11  H   UNL     1       3.037  35.215  57.678  1.00  0.00     0.184 HD
ENDROOT
BRANCH  10  12
HETATM   12  C   UNL     1       4.493  37.250  61.434  1.00  0.00     0.256 C 
HETATM   13  N   UNL     1       5.804  37.595  61.669  1.00  0.00    -0.323 N 
HETATM   14  H   UNL     1       6.527  37.075  61.192  1.00  0.00     0.169 HD
HETATM   15  O   UNL     1       3.489  37.821  61.848  1.00  0.00    -0.267 OA
BRANCH  13  16
HETATM   16  C   UNL     1       6.260  38.630  62.518  1.00  0.00     0.035 A 
HETATM   17  C   UNL     1       5.895  38.757  63.861  1.00  0.00     0.029 A 
HETATM   18  C   UNL     1       6.396  39.805  64.641  1.00  0.00     0.002 A 
HETATM   19  C   UNL     1       7.268  40.736  64.085  1.00  0.00     0.000 A 
HETATM   20  C   UNL     1       7.642  40.618  62.749  1.00  0.00     0.002 A 
HETATM   21  C   UNL     1       7.143  39.570  61.969  1.00  0.00     0.029 A 
ENDBRANCH  13  16
ENDBRANCH  10  12
BRANCH   1  22
HETATM   22  C   UNL     1       4.253  34.498  62.605  1.00  0.00     0.015 A 
HETATM   23  C   UNL     1       2.930  34.393  63.138  1.00  0.00     0.061 A 
HETATM   24  C   UNL     1       1.632  34.513  62.425  1.00  0.00     0.073 C 
HETATM   25  N   UNL     1       2.939  34.141  64.451  1.00  0.00    -0.178 NA
HETATM   26  N   UNL     1       4.240  34.123  64.775  1.00  0.00    -0.284 N 
HETATM   27  C   UNL     1       4.632  33.809  66.127  1.00  0.00     0.179 C 
HETATM   28  C   UNL     1       5.064  34.364  63.718  1.00  0.00     0.123 A 
ENDBRANCH   1  22
TORSDOF 3
ENDMDL
MODEL 10
REMARK VINA RESULT:      -6.7      8.768     11.973
REMARK  3 active torsions:
REMARK  status: ('A' for Active; 'I' for Inactive)
REMARK    1  A    between atoms: C_7  and  C_8 
REMARK    2  A    between atoms: C_17  and  C_18 
REMARK       I    between atoms: C_18  and  N_19 
REMARK    3  A    between atoms: N_19  and  C_20 
ROOT
HETATM    1  C   UNL     1       5.436  33.364  60.712  1.00  0.00     0.206 C 
HETATM    2  N   UNL     1       4.704  32.487  59.787  1.00  0.00    -0.084 N 
HETATM    3  C   UNL     1       3.336  32.430  59.717  1.00  0.00     0.725 A 
HETATM    4  N   UNL     1       2.978  31.636  58.741  1.00  0.00    -0.054 NA
HETATM    5  C   UNL     1       4.179  31.259  58.203  1.00  0.00     0.275 A 
HETATM    6  N   UNL     1       5.265  31.798  58.768  1.00  0.00    -0.149 NA
HETATM    7  N   UNL     1       2.599  33.149  60.584  1.00  0.00    -0.192 N 
HETATM    8  C   UNL     1       3.150  33.861  61.642  1.00  0.00     0.037 C 
HETATM    9  C   UNL     1       2.157  34.473  62.601  1.00  0.00     0.070 C 
HETATM   10  C   UNL     1       4.497  33.971  61.753  1.00  0.00     0.063 C 
HETATM   11  H   UNL     1       1.589  33.037  60.568  1.00  0.00     0.184 HD
ENDROOT
BRANCH  10  12
HETATM   12  C   UNL     1       5.081  34.576  62.977  1.00  0.00     0.256 C 
HETATM   13  N   UNL     1       4.817  33.872  64.130  1.00  0.00    -0.323 N 
HETATM   14  H   UNL     1       4.333  32.989  64.050  1.00  0.00     0.169 HD
HETATM   15  O   UNL     1       5.731  35.610  62.871  1.00  0.00    -0.267 OA
BRANCH  13  16
HETATM   16  C   UNL     1       5.170  34.255  65.446  1.00  0.00     0.035 A 
HETATM   17  C   UNL     1       6.384  33.927  66.056  1.00  0.00     0.029 A 
HETATM   18  C   UNL     1       6.665  34.351  67.359  1.00  0.00     0.002 A 
HETATM   19  C   UNL     1       5.735  35.108  68.065  1.00  0.00     0.000 A 
HETATM   20  C   UNL     1       4.523  35.444  67.466  1.00  0.00     0.002 A 
HETATM   21  C   UNL     1       4.242  35.022  66.163  1.00  0.00     0.029 A 
ENDBRANCH  13  16
ENDBRANCH  10  12
BRANCH   1  22
HETATM   22  C   UNL     1       6.652  32.674  61.270  1.00  0.00     0.015 A 
HETATM   23  C   UNL     1       6.669  31.619  62.235  1.00  0.00     0.061 A 
HETATM   24  C   UNL     1       5.525  31.015  62.968  1.00  0.00     0.073 C 
HETATM   25  N   UNL     1       7.904  31.154  62.446  1.00  0.00    -0.178 NA
HETATM   26  N   UNL     1       8.682  31.918  61.665  1.00  0.00    -0.284 N 
HETATM   27  C   UNL     1      10.097  31.649  61.591  1.00  0.00     0.179 C 
HETATM   28  C   UNL     1       7.990  32.862  60.969  1.00  0.00     0.123 A 
ENDBRANCH   1  22
TORSDOF 3
ENDMDL
