MODEL 1
REMARK VINA RESULT:      -9.9      0.000      0.000
REMARK  9 active torsions:
REMARK  status: ('A' for Active; 'I' for Inactive)
REMARK       I    between atoms: C_2  and  N_3 
REMARK    1  A    between atoms: N_3  and  C_4 
REMARK    2  A    between atoms: C_6  and  O_7 
REMARK    3  A    between atoms: O_7  and  C_8 
REMARK    4  A    between atoms: C_8  and  C_9 
REMARK    5  A    between atoms: C_9  and  C_10 
REMARK    6  A    between atoms: C_10  and  C_11 
REMARK    7  A    between atoms: C_11  and  N_12 
REMARK       I    between atoms: N_12  and  C_13 
REMARK    8  A    between atoms: C_13  and  C_14 
REMARK    9  A    between atoms: C_18  and  C_19 
ROOT
HETATM    1  C   UNL     1       9.930  29.482  56.823  1.00  0.00     0.217 C 
ENDROOT
BRANCH   1   2
HETATM    2  C   UNL     1       8.820  28.998  55.903  1.00  0.00    -0.085 C 
BRANCH   2   3
HETATM    3  C   UNL     1       7.869  28.582  55.115  1.00  0.00    -0.078 C 
BRANCH   3   4
HETATM    4  C   UNL     1       6.760  28.097  54.196  1.00  0.00     0.269 C 
BRANCH   4   5
HETATM    5  O   UNL     1       6.236  26.860  54.670  1.00  0.00    -0.339 OA
BRANCH   5   6
HETATM    6  C   UNL     1       6.789  25.730  54.122  1.00  0.00     0.072 A 
HETATM    7  C   UNL     1       6.875  24.476  54.741  1.00  0.00     0.066 A 
HETATM    8  C   UNL     1       7.447  23.385  54.078  1.00  0.00     0.037 A 
HETATM    9  C   UNL     1       7.948  23.566  52.784  1.00  0.00     0.029 A 
HETATM   10  C   UNL     1       7.872  24.813  52.162  1.00  0.00     0.005 A 
HETATM   11  C   UNL     1       7.291  25.890  52.830  1.00  0.00     0.037 A 
BRANCH   8  12
HETATM   12  N   UNL     1       7.551  22.092  54.639  1.00  0.00    -0.327 N 
HETATM   13  C   UNL     1       8.116  21.743  55.853  1.00  0.00     0.218 C 
HETATM   14  C   UNL     1       8.033  20.261  56.127  1.00  0.00     0.117 C 
HETATM   15  O   UNL     1       8.614  22.501  56.679  1.00  0.00    -0.274 OA
HETATM   16  H   UNL     1       7.146  21.343  54.092  1.00  0.00     0.169 HD
ENDBRANCH   8  12
ENDBRANCH   5   6
ENDBRANCH   4   5
ENDBRANCH   3   4
ENDBRANCH   2   3
ENDBRANCH   1   2
BRANCH   1  17
HETATM   17  N   UNL     1       9.336  29.935  58.053  1.00  0.00    -0.345 N 
HETATM   18  C   UNL     1       9.721  31.111  58.641  1.00  0.00     0.270 C 
HETATM   19  O   UNL     1      10.550  31.863  58.139  1.00  0.00    -0.266 OA
HETATM   20  H   UNL     1       8.733  29.298  58.549  1.00  0.00     0.163 HD
BRANCH  18  21
HETATM   21  C   UNL     1       9.088  31.401  59.900  1.00  0.00     0.120 A 
HETATM   22  N   UNL     1       8.855  30.424  60.827  1.00  0.00    -0.272 N 
HETATM   23  H   UNL     1       9.095  29.440  60.746  1.00  0.00     0.189 HD
HETATM   24  N   UNL     1       8.235  30.852  61.936  1.00  0.00    -0.174 NA
HETATM   25  C   UNL     1       8.071  32.171  61.748  1.00  0.00     0.089 A 
HETATM   26  C   UNL     1       8.596  32.554  60.480  1.00  0.00     0.071 A 
BRANCH  25  27
HETATM   27  C   UNL     1       7.419  33.020  62.751  1.00  0.00    -0.006 A 
HETATM   28  C   UNL     1       6.434  33.951  62.389  1.00  0.00     0.014 A 
HETATM   29  C   UNL     1       5.809  34.745  63.357  1.00  0.00     0.001 A 
HETATM   30  C   UNL     1       6.162  34.618  64.698  1.00  0.00     0.000 A 
HETATM   31  C   UNL     1       7.142  33.704  65.074  1.00  0.00     0.001 A 
HETATM   32  C   UNL     1       7.768  32.912  64.107  1.00  0.00     0.014 A 
ENDBRANCH  25  27
ENDBRANCH  18  21
ENDBRANCH   1  17
TORSDOF 9
ENDMDL
MODEL 2
REMARK VINA RESULT:      -9.4      1.569      2.042
REMARK  9 active torsions:
REMARK  status: ('A' for Active; 'I' for Inactive)
REMARK       I    between atoms: C_2  and  N_3 
REMARK    1  A    between atoms: N_3  and  C_4 
REMARK    2  A    between atoms: C_6  and  O_7 
REMARK    3  A    between atoms: O_7  and  C_8 
REMARK    4  A    between atoms: C_8  and  C_9 
REMARK    5  A    between atoms: C_9  and  C_10 
REMARK    6  A    between atoms: C_10  and  C_11 
REMARK    7  A    between atoms: C_11  and  N_12 
REMARK       I    between atoms: N_12  and  C_13 
REMARK    8  A    between atoms: C_13  and  C_14 
REMARK    9  A    between atoms: C_18  and  C_19 
ROOT
HETATM    1  C   UNL     1       8.786  29.915  58.758  1.00  0.00     0.217 C 
ENDROOT
BRANCH   1   2
HETATM    2  C   UNL     1       7.963  28.888  57.997  1.00  0.00    -0.085 C 
BRANCH   2   3
HETATM    3  C   UNL     1       7.258  28.008  57.344  1.00  0.00    -0.078 C 
BRANCH   3   4
HETATM    4  C   UNL     1       6.435  26.981  56.583  1.00  0.00     0.269 C 
BRANCH   4   5
HETATM    5  O   UNL     1       6.654  27.118  55.183  1.00  0.00    -0.339 OA
BRANCH   5   6
HETATM    6  C   UNL     1       7.075  25.985  54.532  1.00  0.00     0.072 A 
HETATM    7  C   UNL     1       7.124  24.696  55.079  1.00  0.00     0.066 A 
HETATM    8  C   UNL     1       7.557  23.607  54.315  1.00  0.00     0.037 A 
HETATM    9  C   UNL     1       7.959  23.825  52.991  1.00  0.00     0.029 A 
HETATM   10  C   UNL     1       7.919  25.107  52.441  1.00  0.00     0.005 A 
HETATM   11  C   UNL     1       7.476  26.182  53.210  1.00  0.00     0.037 A 
BRANCH   8  12
HETATM   12  N   UNL     1       7.616  22.282  54.800  1.00  0.00    -0.327 N 
HETATM   13  C   UNL     1       8.041  21.858  56.046  1.00  0.00     0.218 C 
HETATM   14  C   UNL     1       7.951  20.361  56.213  1.00  0.00     0.117 C 
HETATM   15  O   UNL     1       8.427  22.564  56.973  1.00  0.00    -0.274 OA
HETATM   16  H   UNL     1       7.290  21.566  54.162  1.00  0.00     0.169 HD
ENDBRANCH   8  12
ENDBRANCH   5   6
ENDBRANCH   4   5
ENDBRANCH   3   4
ENDBRANCH   2   3
ENDBRANCH   1   2
BRANCH   1  17
HETATM   17  N   UNL     1       7.993  30.417  59.849  1.00  0.00    -0.345 N 
HETATM   18  C   UNL     1       8.022  31.741  60.204  1.00  0.00     0.270 C 
HETATM   19  O   UNL     1       8.682  32.576  59.593  1.00  0.00    -0.266 OA
HETATM   20  H   UNL     1       7.524  29.748  60.439  1.00  0.00     0.163 HD
BRANCH  18  21
HETATM   21  C   UNL     1       7.229  32.082  61.353  1.00  0.00     0.120 A 
HETATM   22  N   UNL     1       5.889  31.820  61.403  1.00  0.00    -0.272 N 
HETATM   23  H   UNL     1       5.330  31.372  60.682  1.00  0.00     0.189 HD
HETATM   24  N   UNL     1       5.289  32.222  62.533  1.00  0.00    -0.174 NA
HETATM   25  C   UNL     1       6.276  32.752  63.273  1.00  0.00     0.089 A 
HETATM   26  C   UNL     1       7.511  32.680  62.566  1.00  0.00     0.071 A 
BRANCH  25  27
HETATM   27  C   UNL     1       6.027  33.316  64.605  1.00  0.00    -0.006 A 
HETATM   28  C   UNL     1       4.722  33.532  65.073  1.00  0.00     0.014 A 
HETATM   29  C   UNL     1       4.498  34.057  66.350  1.00  0.00     0.001 A 
HETATM   30  C   UNL     1       5.575  34.372  67.175  1.00  0.00     0.000 A 
HETATM   31  C   UNL     1       6.877  34.169  66.724  1.00  0.00     0.001 A 
HETATM   32  C   UNL     1       7.101  33.646  65.448  1.00  0.00     0.014 A 
ENDBRANCH  25  27
ENDBRANCH  18  21
ENDBRANCH   1  17
TORSDOF 9
ENDMDL
MODEL 3
REMARK VINA RESULT:      -9.4      2.587     11.374
REMARK  9 active torsions:
REMARK  status: ('A' for Active; 'I' for Inactive)
REMARK       I    between atoms: C_2  and  N_3 
REMARK    1  A    between atoms: N_3  and  C_4 
REMARK    2  A    between atoms: C_6  and  O_7 
REMARK    3  A    between atoms: O_7  and  C_8 
REMARK    4  A    between atoms: C_8  and  C_9 
REMARK    5  A    between atoms: C_9  and  C_10 
REMARK    6  A    between atoms: C_10  and  C_11 
REMARK    7  A    between atoms: C_11  and  N_12 
REMARK       I    between atoms: N_12  and  C_13 
REMARK    8  A    between atoms: C_13  and  C_14 
REMARK    9  A    between atoms: C_18  and  C_19 
ROOT
HETATM    1  C   UNL     1       6.049  28.689  57.399  1.00  0.00     0.217 C 
ENDROOT
BRANCH   1   2
HETATM    2  C   UNL     1       7.233  29.488  57.920  1.00  0.00    -0.085 C 
BRANCH   2   3
HETATM    3  C   UNL     1       8.248  30.174  58.366  1.00  0.00    -0.078 C 
BRANCH   3   4
HETATM    4  C   UNL     1       9.431  30.974  58.886  1.00  0.00     0.269 C 
BRANCH   4   5
HETATM    5  O   UNL     1       9.018  32.293  59.230  1.00  0.00    -0.339 OA
BRANCH   5   6
HETATM    6  C   UNL     1       8.369  32.420  60.432  1.00  0.00     0.072 A 
HETATM    7  C   UNL     1       7.089  32.960  60.620  1.00  0.00     0.066 A 
HETATM    8  C   UNL     1       6.517  33.025  61.894  1.00  0.00     0.037 A 
HETATM    9  C   UNL     1       7.249  32.553  62.991  1.00  0.00     0.029 A 
HETATM   10  C   UNL     1       8.526  32.019  62.813  1.00  0.00     0.005 A 
HETATM   11  C   UNL     1       9.081  31.952  61.536  1.00  0.00     0.037 A 
BRANCH   8  12
HETATM   12  N   UNL     1       5.228  33.543  62.151  1.00  0.00    -0.327 N 
HETATM   13  C   UNL     1       4.063  32.832  62.377  1.00  0.00     0.218 C 
HETATM   14  C   UNL     1       2.875  33.728  62.629  1.00  0.00     0.117 C 
HETATM   15  O   UNL     1       3.940  31.612  62.419  1.00  0.00    -0.274 OA
HETATM   16  H   UNL     1       5.161  34.552  62.190  1.00  0.00     0.169 HD
ENDBRANCH   8  12
ENDBRANCH   5   6
ENDBRANCH   4   5
ENDBRANCH   3   4
ENDBRANCH   2   3
ENDBRANCH   1   2
BRANCH   1  17
HETATM   17  N   UNL     1       6.551  27.535  56.701  1.00  0.00    -0.345 N 
HETATM   18  C   UNL     1       6.760  27.554  55.347  1.00  0.00     0.270 C 
HETATM   19  O   UNL     1       6.580  28.556  54.663  1.00  0.00    -0.266 OA
HETATM   20  H   UNL     1       6.608  26.665  57.207  1.00  0.00     0.163 HD
BRANCH  18  21
HETATM   21  C   UNL     1       7.200  26.308  54.780  1.00  0.00     0.120 A 
HETATM   22  N   UNL     1       7.619  26.219  53.482  1.00  0.00    -0.272 N 
HETATM   23  H   UNL     1       7.673  26.977  52.808  1.00  0.00     0.189 HD
HETATM   24  N   UNL     1       7.973  24.983  53.100  1.00  0.00    -0.174 NA
HETATM   25  C   UNL     1       7.806  24.226  54.195  1.00  0.00     0.089 A 
HETATM   26  C   UNL     1       7.324  25.023  55.273  1.00  0.00     0.071 A 
BRANCH  25  27
HETATM   27  C   UNL     1       8.090  22.786  54.191  1.00  0.00    -0.006 A 
HETATM   28  C   UNL     1       7.953  22.020  53.024  1.00  0.00     0.014 A 
HETATM   29  C   UNL     1       8.241  20.651  53.029  1.00  0.00     0.001 A 
HETATM   30  C   UNL     1       8.668  20.031  54.202  1.00  0.00     0.000 A 
HETATM   31  C   UNL     1       8.804  20.776  55.370  1.00  0.00     0.001 A 
HETATM   32  C   UNL     1       8.514  22.143  55.365  1.00  0.00     0.014 A 
ENDBRANCH  25  27
ENDBRANCH  18  21
ENDBRANCH   1  17
TORSDOF 9
ENDMDL
MODEL 4
REMARK VINA RESULT:      -9.1      2.955     11.973
REMARK  9 active torsions:
REMARK  status: ('A' for Active; 'I' for Inactive)
REMARK       I    between atoms: C_2  and  N_3 
REMARK    1  A    between atoms: N_3  and  C_4 
REMARK    2  A    between atoms: C_6  and  O_7 
REMARK    3  A    between atoms: O_7  and  C_8 
REMARK    4  A    between atoms: C_8  and  C_9 
REMARK    5  A    between atoms: C_9  and  C_10 
REMARK    6  A    between atoms: C_10  and  C_11 
REMARK    7  A    between atoms: C_11  and  N_12 
REMARK       I    between atoms: N_12  and  C_13 
REMARK    8  A    between atoms: C_13  and  C_14 
REMARK    9  A    between atoms: C_18  and  C_19 
ROOT
HETATM    1  C   UNL     1       5.949  29.646  55.932  1.00  0.00     0.217 C 
ENDROOT
BRANCH   1   2
HETATM    2  C   UNL     1       6.540  30.256  57.193  1.00  0.00    -0.085 C 
BRANCH   2   3
HETATM    3  C   UNL     1       7.047  30.780  58.274  1.00  0.00    -0.078 C 
BRANCH   3   4
HETATM    4  C   UNL     1       7.638  31.389  59.534  1.00  0.00     0.269 C 
BRANCH   4   5
HETATM    5  O   UNL     1       6.790  32.425  60.022  1.00  0.00    -0.339 OA
BRANCH   5   6
HETATM    6  C   UNL     1       6.953  32.755  61.344  1.00  0.00     0.072 A 
HETATM    7  C   UNL     1       6.194  33.694  62.055  1.00  0.00     0.066 A 
HETATM    8  C   UNL     1       6.439  33.938  63.410  1.00  0.00     0.037 A 
HETATM    9  C   UNL     1       7.470  33.240  64.049  1.00  0.00     0.029 A 
HETATM   10  C   UNL     1       8.235  32.307  63.347  1.00  0.00     0.005 A 
HETATM   11  C   UNL     1       7.975  32.066  61.999  1.00  0.00     0.037 A 
BRANCH   8  12
HETATM   12  N   UNL     1       5.701  34.859  64.187  1.00  0.00    -0.327 N 
HETATM   13  C   UNL     1       4.494  34.645  64.828  1.00  0.00     0.218 C 
HETATM   14  C   UNL     1       4.011  35.861  65.580  1.00  0.00     0.117 C 
HETATM   15  O   UNL     1       3.849  33.601  64.856  1.00  0.00    -0.274 OA
HETATM   16  H   UNL     1       6.121  35.774  64.299  1.00  0.00     0.169 HD
ENDBRANCH   8  12
ENDBRANCH   5   6
ENDBRANCH   4   5
ENDBRANCH   3   4
ENDBRANCH   2   3
ENDBRANCH   1   2
BRANCH   1  17
HETATM   17  N   UNL     1       6.424  28.292  55.816  1.00  0.00    -0.345 N 
HETATM   18  C   UNL     1       5.671  27.231  56.246  1.00  0.00     0.270 C 
HETATM   19  O   UNL     1       4.542  27.364  56.708  1.00  0.00    -0.266 OA
HETATM   20  H   UNL     1       7.384  28.150  55.544  1.00  0.00     0.163 HD
BRANCH  18  21
HETATM   21  C   UNL     1       6.303  25.945  56.127  1.00  0.00     0.120 A 
HETATM   22  N   UNL     1       7.037  25.409  57.147  1.00  0.00    -0.272 N 
HETATM   23  H   UNL     1       7.206  25.826  58.057  1.00  0.00     0.189 HD
HETATM   24  N   UNL     1       7.580  24.215  56.867  1.00  0.00    -0.174 NA
HETATM   25  C   UNL     1       7.170  23.937  55.621  1.00  0.00     0.089 A 
HETATM   26  C   UNL     1       6.363  24.999  55.122  1.00  0.00     0.071 A 
BRANCH  25  27
HETATM   27  C   UNL     1       7.557  22.697  54.937  1.00  0.00    -0.006 A 
HETATM   28  C   UNL     1       7.790  21.513  55.653  1.00  0.00     0.014 A 
HETATM   29  C   UNL     1       8.145  20.334  54.989  1.00  0.00     0.001 A 
HETATM   30  C   UNL     1       8.271  20.324  53.602  1.00  0.00     0.000 A 
HETATM   31  C   UNL     1       8.048  21.492  52.877  1.00  0.00     0.001 A 
HETATM   32  C   UNL     1       7.696  22.670  53.540  1.00  0.00     0.014 A 
ENDBRANCH  25  27
ENDBRANCH  18  21
ENDBRANCH   1  17
TORSDOF 9
ENDMDL
MODEL 5
REMARK VINA RESULT:      -9.0      2.039      3.409
REMARK  9 active torsions:
REMARK  status: ('A' for Active; 'I' for Inactive)
REMARK       I    between atoms: C_2  and  N_3 
REMARK    1  A    between atoms: N_3  and  C_4 
REMARK    2  A    between atoms: C_6  and  O_7 
REMARK    3  A    between atoms: O_7  and  C_8 
REMARK    4  A    between atoms: C_8  and  C_9 
REMARK    5  A    between atoms: C_9  and  C_10 
REMARK    6  A    between atoms: C_10  and  C_11 
REMARK    7  A    between atoms: C_11  and  N_12 
REMARK       I    between atoms: N_12  and  C_13 
REMARK    8  A    between atoms: C_13  and  C_14 
REMARK    9  A    between atoms: C_18  and  C_19 
ROOT
HETATM    1  C   UNL     1       8.317  28.727  57.244  1.00  0.00     0.217 C 
ENDROOT
BRANCH   1   2
HETATM    2  C   UNL     1       7.350  27.575  57.020  1.00  0.00    -0.085 C 
BRANCH   2   3
HETATM    3  C   UNL     1       6.521  26.588  56.828  1.00  0.00    -0.078 C 
BRANCH   3   4
HETATM    4  C   UNL     1       5.554  25.437  56.604  1.00  0.00     0.269 C 
BRANCH   4   5
HETATM    5  O   UNL     1       6.234  24.333  56.015  1.00  0.00    -0.339 OA
BRANCH   5   6
HETATM    6  C   UNL     1       6.557  24.472  54.688  1.00  0.00     0.072 A 
HETATM    7  C   UNL     1       5.753  25.065  53.706  1.00  0.00     0.066 A 
HETATM    8  C   UNL     1       6.194  25.167  52.382  1.00  0.00     0.037 A 
HETATM    9  C   UNL     1       7.452  24.654  52.045  1.00  0.00     0.029 A 
HETATM   10  C   UNL     1       8.257  24.057  53.016  1.00  0.00     0.005 A 
HETATM   11  C   UNL     1       7.810  23.969  54.334  1.00  0.00     0.037 A 
BRANCH   8  12
HETATM   12  N   UNL     1       5.439  25.766  51.348  1.00  0.00    -0.327 N 
HETATM   13  C   UNL     1       5.258  27.116  51.109  1.00  0.00     0.218 C 
HETATM   14  C   UNL     1       4.396  27.382  49.899  1.00  0.00     0.117 C 
HETATM   15  O   UNL     1       5.742  28.048  51.744  1.00  0.00    -0.274 OA
HETATM   16  H   UNL     1       4.999  25.125  50.700  1.00  0.00     0.169 HD
ENDBRANCH   8  12
ENDBRANCH   5   6
ENDBRANCH   4   5
ENDBRANCH   3   4
ENDBRANCH   2   3
ENDBRANCH   1   2
BRANCH   1  17
HETATM   17  N   UNL     1       8.057  29.294  58.540  1.00  0.00    -0.345 N 
HETATM   18  C   UNL     1       8.816  30.322  59.035  1.00  0.00     0.270 C 
HETATM   19  O   UNL     1       9.721  30.846  58.394  1.00  0.00    -0.266 OA
HETATM   20  H   UNL     1       7.396  28.824  59.138  1.00  0.00     0.163 HD
BRANCH  18  21
HETATM   21  C   UNL     1       8.481  30.741  60.370  1.00  0.00     0.120 A 
HETATM   22  N   UNL     1       9.047  30.158  61.468  1.00  0.00    -0.272 N 
HETATM   23  H   UNL     1       9.736  29.411  61.471  1.00  0.00     0.189 HD
HETATM   24  N   UNL     1       8.611  30.645  62.638  1.00  0.00    -0.174 NA
HETATM   25  C   UNL     1       7.738  31.607  62.303  1.00  0.00     0.089 A 
HETATM   26  C   UNL     1       7.631  31.700  60.886  1.00  0.00     0.071 A 
BRANCH  25  27
HETATM   27  C   UNL     1       7.027  32.395  63.318  1.00  0.00    -0.006 A 
HETATM   28  C   UNL     1       5.625  32.435  63.359  1.00  0.00     0.014 A 
HETATM   29  C   UNL     1       4.959  33.177  64.340  1.00  0.00     0.001 A 
HETATM   30  C   UNL     1       5.687  33.889  65.291  1.00  0.00     0.000 A 
HETATM   31  C   UNL     1       7.079  33.865  65.261  1.00  0.00     0.001 A 
HETATM   32  C   UNL     1       7.744  33.125  64.280  1.00  0.00     0.014 A 
ENDBRANCH  25  27
ENDBRANCH  18  21
ENDBRANCH   1  17
TORSDOF 9
ENDMDL
MODEL 6
REMARK VINA RESULT:      -9.0      3.941     12.330
REMARK  9 active torsions:
REMARK  status: ('A' for Active; 'I' for Inactive)
REMARK       I    between atoms: C_2  and  N_3 
REMARK    1  A    between atoms: N_3  and  C_4 
REMARK    2  A    between atoms: C_6  and  O_7 
REMARK    3  A    between atoms: O_7  and  C_8 
REMARK    4  A    between atoms: C_8  and  C_9 
REMARK    5  A    between atoms: C_9  and  C_10 
REMARK    6  A    between atoms: C_10  and  C_11 
REMARK    7  A    between atoms: C_11  and  N_12 
REMARK       I    between atoms: N_12  and  C_13 
REMARK    8  A    between atoms: C_13  and  C_14 
REMARK    9  A    between atoms: C_18  and  C_19 
ROOT
HETATM    1  C   UNL     1       9.217  31.972  61.898  1.00  0.00     0.217 C 
ENDROOT
BRANCH   1   2
HETATM    2  C   UNL     1       7.804  32.348  62.312  1.00  0.00    -0.085 C 
BRANCH   2   3
HETATM    3  C   UNL     1       6.592  32.672  62.666  1.00  0.00    -0.078 C 
BRANCH   3   4
HETATM    4  C   UNL     1       5.178  33.049  63.079  1.00  0.00     0.269 C 
BRANCH   4   5
HETATM    5  O   UNL     1       4.937  32.647  64.424  1.00  0.00    -0.339 OA
BRANCH   5   6
HETATM    6  C   UNL     1       4.822  33.664  65.338  1.00  0.00     0.072 A 
HETATM    7  C   UNL     1       5.753  33.977  66.337  1.00  0.00     0.066 A 
HETATM    8  C   UNL     1       5.539  35.052  67.207  1.00  0.00     0.037 A 
HETATM    9  C   UNL     1       4.368  35.807  67.076  1.00  0.00     0.029 A 
HETATM   10  C   UNL     1       3.433  35.499  66.087  1.00  0.00     0.005 A 
HETATM   11  C   UNL     1       3.662  34.431  65.220  1.00  0.00     0.037 A 
BRANCH   8  12
HETATM   12  N   UNL     1       6.444  35.429  68.225  1.00  0.00    -0.327 N 
HETATM   13  C   UNL     1       6.387  35.100  69.568  1.00  0.00     0.218 C 
HETATM   14  C   UNL     1       7.539  35.675  70.356  1.00  0.00     0.117 C 
HETATM   15  O   UNL     1       5.546  34.397  70.120  1.00  0.00    -0.274 OA
HETATM   16  H   UNL     1       7.232  35.989  67.926  1.00  0.00     0.169 HD
ENDBRANCH   8  12
ENDBRANCH   5   6
ENDBRANCH   4   5
ENDBRANCH   3   4
ENDBRANCH   2   3
ENDBRANCH   1   2
BRANCH   1  17
HETATM   17  N   UNL     1       9.138  30.964  60.874  1.00  0.00    -0.345 N 
HETATM   18  C   UNL     1       9.263  31.283  59.547  1.00  0.00     0.270 C 
HETATM   19  O   UNL     1       9.492  32.424  59.158  1.00  0.00    -0.266 OA
HETATM   20  H   UNL     1       8.845  30.038  61.144  1.00  0.00     0.163 HD
BRANCH  18  21
HETATM   21  C   UNL     1       9.096  30.183  58.636  1.00  0.00     0.120 A 
HETATM   22  N   UNL     1      10.041  29.879  57.697  1.00  0.00    -0.272 N 
HETATM   23  H   UNL     1      10.923  30.360  57.546  1.00  0.00     0.189 HD
HETATM   24  N   UNL     1       9.724  28.841  56.910  1.00  0.00    -0.174 NA
HETATM   25  C   UNL     1       8.531  28.423  57.361  1.00  0.00     0.089 A 
HETATM   26  C   UNL     1       8.105  29.239  58.447  1.00  0.00     0.071 A 
BRANCH  25  27
HETATM   27  C   UNL     1       7.830  27.286  56.753  1.00  0.00    -0.006 A 
HETATM   28  C   UNL     1       7.803  26.029  57.375  1.00  0.00     0.014 A 
HETATM   29  C   UNL     1       7.118  24.957  56.792  1.00  0.00     0.001 A 
HETATM   30  C   UNL     1       6.453  25.129  55.580  1.00  0.00     0.000 A 
HETATM   31  C   UNL     1       6.474  26.368  54.947  1.00  0.00     0.001 A 
HETATM   32  C   UNL     1       7.160  27.439  55.528  1.00  0.00     0.014 A 
ENDBRANCH  25  27
ENDBRANCH  18  21
ENDBRANCH   1  17
TORSDOF 9
ENDMDL
MODEL 7
REMARK VINA RESULT:      -8.9      2.967      3.430
REMARK  9 active torsions:
REMARK  status: ('A' for Active; 'I' for Inactive)
REMARK       I    between atoms: C_2  and  N_3 
REMARK    1  A    between atoms: N_3  and  C_4 
REMARK    2  A    between atoms: C_6  and  O_7 
REMARK    3  A    between atoms: O_7  and  C_8 
REMARK    4  A    between atoms: C_8  and  C_9 
REMARK    5  A    between atoms: C_9  and  C_10 
REMARK    6  A    between atoms: C_10  and  C_11 
REMARK    7  A    between atoms: C_11  and  N_12 
REMARK       I    between atoms: N_12  and  C_13 
REMARK    8  A    between atoms: C_13  and  C_14 
REMARK    9  A    between atoms: C_18  and  C_19 
ROOT
HETATM    1  C   UNL     1       3.099  30.300  57.014  1.00  0.00     0.217 C 
ENDROOT
BRANCH   1   2
HETATM    2  C   UNL     1       4.155  29.352  56.469  1.00  0.00    -0.085 C 
BRANCH   2   3
HETATM    3  C   UNL     1       5.061  28.539  56.002  1.00  0.00    -0.078 C 
BRANCH   3   4
HETATM    4  C   UNL     1       6.116  27.591  55.456  1.00  0.00     0.269 C 
BRANCH   4   5
HETATM    5  O   UNL     1       5.625  26.923  54.298  1.00  0.00    -0.339 OA
BRANCH   5   6
HETATM    6  C   UNL     1       6.353  25.837  53.884  1.00  0.00     0.072 A 
HETATM    7  C   UNL     1       6.470  24.619  54.567  1.00  0.00     0.066 A 
HETATM    8  C   UNL     1       7.229  23.569  54.039  1.00  0.00     0.037 A 
HETATM    9  C   UNL     1       7.888  23.756  52.819  1.00  0.00     0.029 A 
HETATM   10  C   UNL     1       7.782  24.968  52.134  1.00  0.00     0.005 A 
HETATM   11  C   UNL     1       7.014  26.003  52.666  1.00  0.00     0.037 A 
BRANCH   8  12
HETATM   12  N   UNL     1       7.376  22.313  54.669  1.00  0.00    -0.327 N 
HETATM   13  C   UNL     1       8.543  21.731  55.129  1.00  0.00     0.218 C 
HETATM   14  C   UNL     1       8.310  20.381  55.762  1.00  0.00     0.117 C 
HETATM   15  O   UNL     1       9.671  22.214  55.094  1.00  0.00    -0.274 OA
HETATM   16  H   UNL     1       6.520  21.792  54.814  1.00  0.00     0.169 HD
ENDBRANCH   8  12
ENDBRANCH   5   6
ENDBRANCH   4   5
ENDBRANCH   3   4
ENDBRANCH   2   3
ENDBRANCH   1   2
BRANCH   1  17
HETATM   17  N   UNL     1       3.404  30.579  58.392  1.00  0.00    -0.345 N 
HETATM   18  C   UNL     1       3.560  31.863  58.843  1.00  0.00     0.270 C 
HETATM   19  O   UNL     1       3.405  32.843  58.120  1.00  0.00    -0.266 OA
HETATM   20  H   UNL     1       3.645  29.803  58.989  1.00  0.00     0.163 HD
BRANCH  18  21
HETATM   21  C   UNL     1       3.928  31.984  60.228  1.00  0.00     0.120 A 
HETATM   22  N   UNL     1       3.227  31.350  61.215  1.00  0.00    -0.272 N 
HETATM   23  H   UNL     1       2.417  30.749  61.093  1.00  0.00     0.189 HD
HETATM   24  N   UNL     1       3.683  31.584  62.453  1.00  0.00    -0.174 NA
HETATM   25  C   UNL     1       4.746  32.386  62.280  1.00  0.00     0.089 A 
HETATM   26  C   UNL     1       4.933  32.657  60.895  1.00  0.00     0.071 A 
BRANCH  25  27
HETATM   27  C   UNL     1       5.536  32.878  63.415  1.00  0.00    -0.006 A 
HETATM   28  C   UNL     1       4.920  33.351  64.582  1.00  0.00     0.014 A 
HETATM   29  C   UNL     1       5.685  33.804  65.662  1.00  0.00     0.001 A 
HETATM   30  C   UNL     1       7.076  33.790  65.588  1.00  0.00     0.000 A 
HETATM   31  C   UNL     1       7.704  33.329  64.434  1.00  0.00     0.001 A 
HETATM   32  C   UNL     1       6.940  32.879  63.354  1.00  0.00     0.014 A 
ENDBRANCH  25  27
ENDBRANCH  18  21
ENDBRANCH   1  17
TORSDOF 9
ENDMDL
MODEL 8
REMARK VINA RESULT:      -8.8      2.819     10.729
REMARK  9 active torsions:
REMARK  status: ('A' for Active; 'I' for Inactive)
REMARK       I    between atoms: C_2  and  N_3 
REMARK    1  A    between atoms: N_3  and  C_4 
REMARK    2  A    between atoms: C_6  and  O_7 
REMARK    3  A    between atoms: O_7  and  C_8 
REMARK    4  A    between atoms: C_8  and  C_9 
REMARK    5  A    between atoms: C_9  and  C_10 
REMARK    6  A    between atoms: C_10  and  C_11 
REMARK    7  A    between atoms: C_11  and  N_12 
REMARK       I    between atoms: N_12  and  C_13 
REMARK    8  A    between atoms: C_13  and  C_14 
REMARK    9  A    between atoms: C_18  and  C_19 
ROOT
HETATM    1  C   UNL     1       3.454  28.005  52.914  1.00  0.00     0.217 C 
ENDROOT
BRANCH   1   2
HETATM    2  C   UNL     1       3.631  29.023  54.029  1.00  0.00    -0.085 C 
BRANCH   2   3
HETATM    3  C   UNL     1       3.783  29.897  54.984  1.00  0.00    -0.078 C 
BRANCH   3   4
HETATM    4  C   UNL     1       3.960  30.915  56.099  1.00  0.00     0.269 C 
BRANCH   4   5
HETATM    5  O   UNL     1       5.279  31.453  56.067  1.00  0.00    -0.339 OA
BRANCH   5   6
HETATM    6  C   UNL     1       6.194  30.836  56.882  1.00  0.00     0.072 A 
HETATM    7  C   UNL     1       6.527  31.227  58.185  1.00  0.00     0.066 A 
HETATM    8  C   UNL     1       7.467  30.510  58.933  1.00  0.00     0.037 A 
HETATM    9  C   UNL     1       8.086  29.396  58.354  1.00  0.00     0.029 A 
HETATM   10  C   UNL     1       7.765  29.003  57.054  1.00  0.00     0.005 A 
HETATM   11  C   UNL     1       6.820  29.721  56.322  1.00  0.00     0.037 A 
BRANCH   8  12
HETATM   12  N   UNL     1       7.836  30.842  60.256  1.00  0.00    -0.327 N 
HETATM   13  C   UNL     1       8.623  31.901  60.671  1.00  0.00     0.218 C 
HETATM   14  C   UNL     1       8.792  31.948  62.170  1.00  0.00     0.117 C 
HETATM   15  O   UNL     1       9.130  32.765  59.962  1.00  0.00    -0.274 OA
HETATM   16  H   UNL     1       7.462  30.241  60.979  1.00  0.00     0.169 HD
ENDBRANCH   8  12
ENDBRANCH   5   6
ENDBRANCH   4   5
ENDBRANCH   3   4
ENDBRANCH   2   3
ENDBRANCH   1   2
BRANCH   1  17
HETATM   17  N   UNL     1       4.427  26.960  53.093  1.00  0.00    -0.345 N 
HETATM   18  C   UNL     1       5.246  26.563  52.069  1.00  0.00     0.270 C 
HETATM   19  O   UNL     1       5.233  27.097  50.965  1.00  0.00    -0.266 OA
HETATM   20  H   UNL     1       4.394  26.426  53.948  1.00  0.00     0.163 HD
BRANCH  18  21
HETATM   21  C   UNL     1       6.120  25.463  52.378  1.00  0.00     0.120 A 
HETATM   22  N   UNL     1       7.291  25.267  51.702  1.00  0.00    -0.272 N 
HETATM   23  H   UNL     1       7.664  25.843  50.953  1.00  0.00     0.189 HD
HETATM   24  N   UNL     1       7.979  24.184  52.092  1.00  0.00    -0.174 NA
HETATM   25  C   UNL     1       7.247  23.655  53.085  1.00  0.00     0.089 A 
HETATM   26  C   UNL     1       6.072  24.432  53.295  1.00  0.00     0.071 A 
BRANCH  25  27
HETATM   27  C   UNL     1       7.665  22.437  53.789  1.00  0.00    -0.006 A 
HETATM   28  C   UNL     1       8.217  21.348  53.098  1.00  0.00     0.014 A 
HETATM   29  C   UNL     1       8.625  20.198  53.783  1.00  0.00     0.001 A 
HETATM   30  C   UNL     1       8.485  20.123  55.167  1.00  0.00     0.000 A 
HETATM   31  C   UNL     1       7.935  21.193  55.868  1.00  0.00     0.001 A 
HETATM   32  C   UNL     1       7.526  22.340  55.184  1.00  0.00     0.014 A 
ENDBRANCH  25  27
ENDBRANCH  18  21
ENDBRANCH   1  17
TORSDOF 9
ENDMDL
MODEL 9
REMARK VINA RESULT:      -8.8      2.980     11.946
REMARK  9 active torsions:
REMARK  status: ('A' for Active; 'I' for Inactive)
REMARK       I    between atoms: C_2  and  N_3 
REMARK    1  A    between atoms: N_3  and  C_4 
REMARK    2  A    between atoms: C_6  and  O_7 
REMARK    3  A    between atoms: O_7  and  C_8 
REMARK    4  A    between atoms: C_8  and  C_9 
REMARK    5  A    between atoms: C_9  and  C_10 
REMARK    6  A    between atoms: C_10  and  C_11 
REMARK    7  A    between atoms: C_11  and  N_12 
REMARK       I    between atoms: N_12  and  C_13 
REMARK    8  A    between atoms: C_13  and  C_14 
REMARK    9  A    between atoms: C_18  and  C_19 
ROOT
HETATM    1  C   UNL     1       8.584  29.899  57.197  1.00  0.00     0.217 C 
ENDROOT
BRANCH   1   2
HETATM    2  C   UNL     1       8.672  30.179  58.689  1.00  0.00    -0.085 C 
BRANCH   2   3
HETATM    3  C   UNL     1       8.746  30.418  59.968  1.00  0.00    -0.078 C 
BRANCH   3   4
HETATM    4  C   UNL     1       8.833  30.697  61.460  1.00  0.00     0.269 C 
BRANCH   4   5
HETATM    5  O   UNL     1       8.670  32.090  61.709  1.00  0.00    -0.339 OA
BRANCH   5   6
HETATM    6  C   UNL     1       7.682  32.425  62.600  1.00  0.00     0.072 A 
HETATM    7  C   UNL     1       7.880  32.881  63.910  1.00  0.00     0.066 A 
HETATM    8  C   UNL     1       6.793  33.210  64.728  1.00  0.00     0.037 A 
HETATM    9  C   UNL     1       5.496  33.063  64.223  1.00  0.00     0.029 A 
HETATM   10  C   UNL     1       5.290  32.604  62.921  1.00  0.00     0.005 A 
HETATM   11  C   UNL     1       6.382  32.288  62.113  1.00  0.00     0.037 A 
BRANCH   8  12
HETATM   12  N   UNL     1       6.923  33.689  66.051  1.00  0.00    -0.327 N 
HETATM   13  C   UNL     1       5.922  34.166  66.877  1.00  0.00     0.218 C 
HETATM   14  C   UNL     1       6.435  34.579  68.235  1.00  0.00     0.117 C 
HETATM   15  O   UNL     1       4.724  34.240  66.617  1.00  0.00    -0.274 OA
HETATM   16  H   UNL     1       7.858  33.658  66.438  1.00  0.00     0.169 HD
ENDBRANCH   8  12
ENDBRANCH   5   6
ENDBRANCH   4   5
ENDBRANCH   3   4
ENDBRANCH   2   3
ENDBRANCH   1   2
BRANCH   1  17
HETATM   17  N   UNL     1       8.667  28.477  56.996  1.00  0.00    -0.345 N 
HETATM   18  C   UNL     1       7.556  27.731  56.702  1.00  0.00     0.270 C 
HETATM   19  O   UNL     1       6.445  28.229  56.549  1.00  0.00    -0.266 OA
HETATM   20  H   UNL     1       9.537  28.018  57.218  1.00  0.00     0.163 HD
BRANCH  18  21
HETATM   21  C   UNL     1       7.781  26.315  56.593  1.00  0.00     0.120 A 
HETATM   22  N   UNL     1       8.290  25.588  57.632  1.00  0.00    -0.272 N 
HETATM   23  H   UNL     1       8.546  25.938  58.550  1.00  0.00     0.189 HD
HETATM   24  N   UNL     1       8.464  24.286  57.362  1.00  0.00    -0.174 NA
HETATM   25  C   UNL     1       8.030  24.138  56.100  1.00  0.00     0.089 A 
HETATM   26  C   UNL     1       7.590  25.391  55.584  1.00  0.00     0.071 A 
BRANCH  25  27
HETATM   27  C   UNL     1       8.054  22.837  55.421  1.00  0.00    -0.006 A 
HETATM   28  C   UNL     1       8.014  22.745  54.022  1.00  0.00     0.014 A 
HETATM   29  C   UNL     1       8.053  21.500  53.386  1.00  0.00     0.001 A 
HETATM   30  C   UNL     1       8.130  20.332  54.141  1.00  0.00     0.000 A 
HETATM   31  C   UNL     1       8.163  20.405  55.531  1.00  0.00     0.001 A 
HETATM   32  C   UNL     1       8.123  21.649  56.166  1.00  0.00     0.014 A 
ENDBRANCH  25  27
ENDBRANCH  18  21
ENDBRANCH   1  17
TORSDOF 9
ENDMDL
MODEL 10
REMARK VINA RESULT:      -8.7      2.794     11.250
REMARK  9 active torsions:
REMARK  status: ('A' for Active; 'I' for Inactive)
REMARK       I    between atoms: C_2  and  N_3 
REMARK    1  A    between atoms: N_3  and  C_4 
REMARK    2  A    between atoms: C_6  and  O_7 
REMARK    3  A    between atoms: O_7  and  C_8 
REMARK    4  A    between atoms: C_8  and  C_9 
REMARK    5  A    between atoms: C_9  and  C_10 
REMARK    6  A    between atoms: C_10  and  C_11 
REMARK    7  A    between atoms: C_11  and  N_12 
REMARK       I    between atoms: N_12  and  C_13 
REMARK    8  A    between atoms: C_13  and  C_14 
REMARK    9  A    between atoms: C_18  and  C_19 
ROOT
HETATM    1  C   UNL     1       4.906  29.668  54.245  1.00  0.00     0.217 C 
ENDROOT
BRANCH   1   2
HETATM    2  C   UNL     1       5.209  30.167  55.649  1.00  0.00    -0.085 C 
BRANCH   2   3
HETATM    3  C   UNL     1       5.470  30.595  56.852  1.00  0.00    -0.078 C 
BRANCH   3   4
HETATM    4  C   UNL     1       5.774  31.094  58.255  1.00  0.00     0.269 C 
BRANCH   4   5
HETATM    5  O   UNL     1       7.179  31.080  58.487  1.00  0.00    -0.339 OA
BRANCH   5   6
HETATM    6  C   UNL     1       7.571  31.284  59.787  1.00  0.00     0.072 A 
HETATM    7  C   UNL     1       6.864  32.014  60.751  1.00  0.00     0.066 A 
HETATM    8  C   UNL     1       7.352  32.142  62.056  1.00  0.00     0.037 A 
HETATM    9  C   UNL     1       8.572  31.540  62.385  1.00  0.00     0.029 A 
HETATM   10  C   UNL     1       9.286  30.815  61.428  1.00  0.00     0.005 A 
HETATM   11  C   UNL     1       8.783  30.687  60.134  1.00  0.00     0.037 A 
BRANCH   8  12
HETATM   12  N   UNL     1       6.683  32.851  63.079  1.00  0.00    -0.327 N 
HETATM   13  C   UNL     1       5.487  32.519  63.691  1.00  0.00     0.218 C 
HETATM   14  C   UNL     1       5.085  33.510  64.756  1.00  0.00     0.117 C 
HETATM   15  O   UNL     1       4.796  31.530  63.470  1.00  0.00    -0.274 OA
HETATM   16  H   UNL     1       7.148  33.686  63.410  1.00  0.00     0.169 HD
ENDBRANCH   8  12
ENDBRANCH   5   6
ENDBRANCH   4   5
ENDBRANCH   3   4
ENDBRANCH   2   3
ENDBRANCH   1   2
BRANCH   1  17
HETATM   17  N   UNL     1       5.159  28.252  54.201  1.00  0.00    -0.345 N 
HETATM   18  C   UNL     1       6.342  27.753  53.722  1.00  0.00     0.270 C 
HETATM   19  O   UNL     1       7.263  28.473  53.350  1.00  0.00    -0.266 OA
HETATM   20  H   UNL     1       4.392  27.629  54.395  1.00  0.00     0.163 HD
BRANCH  18  21
HETATM   21  C   UNL     1       6.426  26.318  53.678  1.00  0.00     0.120 A 
HETATM   22  N   UNL     1       5.479  25.564  53.043  1.00  0.00    -0.272 N 
HETATM   23  H   UNL     1       4.659  25.907  52.551  1.00  0.00     0.189 HD
HETATM   24  N   UNL     1       5.689  24.241  53.114  1.00  0.00    -0.174 NA
HETATM   25  C   UNL     1       6.835  24.113  53.802  1.00  0.00     0.089 A 
HETATM   26  C   UNL     1       7.329  25.397  54.171  1.00  0.00     0.071 A 
BRANCH  25  27
HETATM   27  C   UNL     1       7.416  22.799  54.099  1.00  0.00    -0.006 A 
HETATM   28  C   UNL     1       7.548  22.342  55.419  1.00  0.00     0.014 A 
HETATM   29  C   UNL     1       8.090  21.081  55.688  1.00  0.00     0.001 A 
HETATM   30  C   UNL     1       8.509  20.262  54.642  1.00  0.00     0.000 A 
HETATM   31  C   UNL     1       8.391  20.703  53.326  1.00  0.00     0.001 A 
HETATM   32  C   UNL     1       7.850  21.963  53.057  1.00  0.00     0.014 A 
ENDBRANCH  25  27
ENDBRANCH  18  21
ENDBRANCH   1  17
TORSDOF 9
ENDMDL
