MODEL 1
REMARK VINA RESULT:      -7.9      0.000      0.000
REMARK  9 active torsions:
REMARK  status: ('A' for Active; 'I' for Inactive)
REMARK    1  A    between atoms: C_6  and  C_7 
REMARK    2  A    between atoms: C_7  and  C_8 
REMARK       I    between atoms: C_8  and  N_9 
REMARK    3  A    between atoms: N_9  and  C_10 
REMARK    4  A    between atoms: C_10  and  C_11 
REMARK    5  A    between atoms: C_11  and  N_12 
REMARK    6  A    between atoms: C_19  and  C_20 
REMARK    7  A    between atoms: C_29  and  C_30 
REMARK    8  A    between atoms: C_30  and  O_31 
REMARK    9  A    between atoms: O_31  and  C_32 
ROOT
HETATM    1  C   UNL     1       4.828  25.435  53.481  1.00  0.00     0.071 C 
HETATM    2  C   UNL     1       5.378  26.814  53.766  1.00  0.00     0.048 C 
HETATM    3  N   UNL     1       5.074  27.755  52.767  1.00  0.00    -0.229 NA
HETATM    4  C   UNL     1       4.859  28.964  53.184  1.00  0.00     0.170 C 
HETATM    5  N   UNL     1       5.204  29.401  54.647  1.00  0.00    -0.318 N 
HETATM    6  C   UNL     1       4.131  29.941  55.134  1.00  0.00     0.011 C 
HETATM    7  C   UNL     1       6.390  28.618  55.042  1.00  0.00     0.168 C 
HETATM    8  S   UNL     1       3.841  30.128  52.426  1.00  0.00    -0.086 SA
HETATM    9  C   UNL     1       3.244  30.623  54.098  1.00  0.00     0.135 C 
HETATM   10  C   UNL     1       5.913  27.192  54.959  1.00  0.00     0.069 C 
ENDROOT
BRANCH   6  11
HETATM   11  C   UNL     1       3.730  29.665  56.553  1.00  0.00     0.156 C 
BRANCH  11  12
HETATM   12  C   UNL     1       3.629  30.888  57.430  1.00  0.00     0.223 C 
HETATM   13  N   UNL     1       4.154  30.756  58.697  1.00  0.00    -0.359 N 
HETATM   14  H   UNL     1       4.611  29.892  58.980  1.00  0.00     0.162 HD
HETATM   15  O   UNL     1       3.078  31.911  57.044  1.00  0.00    -0.273 OA
BRANCH  13  16
HETATM   16  C   UNL     1       4.173  31.875  59.634  1.00  0.00     0.150 C 
BRANCH  16  17
HETATM   17  C   UNL     1       5.601  32.389  59.889  1.00  0.00     0.254 C 
BRANCH  17  18
HETATM   18  N   UNL     1       6.238  31.751  61.102  1.00  0.00    -0.070 N 
HETATM   19  H   UNL     1       6.036  30.741  61.099  1.00  0.00     0.279 HD
HETATM   20  C   UNL     1       5.747  32.313  62.431  1.00  0.00     0.235 C 
HETATM   21  C   UNL     1       6.919  33.116  62.954  1.00  0.00     0.029 C 
HETATM   22  C   UNL     1       8.112  32.292  62.520  1.00  0.00     0.029 C 
HETATM   23  C   UNL     1       7.760  31.894  61.102  1.00  0.00     0.235 C 
ENDBRANCH  17  18
ENDBRANCH  16  17
ENDBRANCH  13  16
ENDBRANCH  11  12
ENDBRANCH   6  11
BRANCH   7  24
HETATM   24  C   UNL     1       7.398  29.089  56.083  1.00  0.00    -0.009 A 
HETATM   25  C   UNL     1       8.785  29.276  55.914  1.00  0.00     0.042 A 
HETATM   26 CL   UNL     1       9.620  28.972  54.435  1.00  0.00    -0.084 Cl
HETATM   27  C   UNL     1       9.609  29.635  56.994  1.00  0.00     0.024 A 
HETATM   28  C   UNL     1       9.096  29.745  58.282  1.00  0.00     0.002 A 
HETATM   29  C   UNL     1       7.757  29.471  58.503  1.00  0.00     0.001 A 
HETATM   30  C   UNL     1       6.933  29.135  57.427  1.00  0.00     0.011 A 
ENDBRANCH   7  24
BRANCH  10  31
HETATM   31  C   UNL     1       5.448  26.499  56.187  1.00  0.00     0.294 C 
HETATM   32  O   UNL     1       4.630  27.016  56.935  1.00  0.00    -0.259 OA
BRANCH  31  33
HETATM   33  O   UNL     1       6.227  25.445  56.482  1.00  0.00    -0.313 OA
BRANCH  33  34
HETATM   34  C   UNL     1       7.625  25.523  56.123  1.00  0.00     0.124 C 
HETATM   35  C   UNL     1       8.450  25.706  57.386  1.00  0.00     0.040 C 
HETATM   36  C   UNL     1       7.987  24.227  55.406  1.00  0.00     0.040 C 
ENDBRANCH  33  34
ENDBRANCH  31  33
ENDBRANCH  10  31
TORSDOF 9
ENDMDL
MODEL 2
REMARK VINA RESULT:      -7.5      3.073      7.807
REMARK  9 active torsions:
REMARK  status: ('A' for Active; 'I' for Inactive)
REMARK    1  A    between atoms: C_6  and  C_7 
REMARK    2  A    between atoms: C_7  and  C_8 
REMARK       I    between atoms: C_8  and  N_9 
REMARK    3  A    between atoms: N_9  and  C_10 
REMARK    4  A    between atoms: C_10  and  C_11 
REMARK    5  A    between atoms: C_11  and  N_12 
REMARK    6  A    between atoms: C_19  and  C_20 
REMARK    7  A    between atoms: C_29  and  C_30 
REMARK    8  A    between atoms: C_30  and  O_31 
REMARK    9  A    between atoms: O_31  and  C_32 
ROOT
HETATM    1  C   UNL     1       7.103  31.058  58.295  1.00  0.00     0.071 C 
HETATM    2  C   UNL     1       6.534  29.752  57.789  1.00  0.00     0.048 C 
HETATM    3  N   UNL     1       5.130  29.737  57.735  1.00  0.00    -0.229 NA
HETATM    4  C   UNL     1       4.614  29.065  56.753  1.00  0.00     0.170 C 
HETATM    5  N   UNL     1       5.480  28.102  55.873  1.00  0.00    -0.318 N 
HETATM    6  C   UNL     1       5.276  28.445  54.640  1.00  0.00     0.011 C 
HETATM    7  C   UNL     1       6.514  27.547  56.767  1.00  0.00     0.168 C 
HETATM    8  S   UNL     1       3.100  29.383  55.996  1.00  0.00    -0.086 SA
HETATM    9  C   UNL     1       3.894  29.031  54.371  1.00  0.00     0.135 C 
HETATM   10  C   UNL     1       7.277  28.764  57.220  1.00  0.00     0.069 C 
ENDROOT
BRANCH   6  11
HETATM   11  C   UNL     1       6.419  28.473  53.670  1.00  0.00     0.156 C 
BRANCH  11  12
HETATM   12  C   UNL     1       6.050  28.132  52.248  1.00  0.00     0.223 C 
HETATM   13  N   UNL     1       5.788  29.208  51.427  1.00  0.00    -0.359 N 
HETATM   14  H   UNL     1       5.887  30.159  51.774  1.00  0.00     0.162 HD
HETATM   15  O   UNL     1       5.952  26.972  51.870  1.00  0.00    -0.273 OA
BRANCH  13  16
HETATM   16  C   UNL     1       5.471  29.028  50.013  1.00  0.00     0.150 C 
BRANCH  16  17
HETATM   17  C   UNL     1       3.952  28.982  49.766  1.00  0.00     0.254 C 
BRANCH  17  18
HETATM   18  N   UNL     1       3.436  27.572  49.595  1.00  0.00    -0.070 N 
HETATM   19  H   UNL     1       3.115  27.216  50.506  1.00  0.00     0.279 HD
HETATM   20  C   UNL     1       4.473  26.591  49.058  1.00  0.00     0.235 C 
HETATM   21  C   UNL     1       4.025  26.311  47.640  1.00  0.00     0.029 C 
HETATM   22  C   UNL     1       2.516  26.310  47.756  1.00  0.00     0.029 C 
HETATM   23  C   UNL     1       2.238  27.503  48.648  1.00  0.00     0.235 C 
ENDBRANCH  17  18
ENDBRANCH  16  17
ENDBRANCH  13  16
ENDBRANCH  11  12
ENDBRANCH   6  11
BRANCH   7  24
HETATM   24  C   UNL     1       7.180  26.195  56.541  1.00  0.00    -0.009 A 
HETATM   25  C   UNL     1       6.742  25.151  55.702  1.00  0.00     0.042 A 
HETATM   26 CL   UNL     1       5.300  25.220  54.757  1.00  0.00    -0.084 Cl
HETATM   27  C   UNL     1       7.417  23.919  55.659  1.00  0.00     0.024 A 
HETATM   28  C   UNL     1       8.495  23.662  56.499  1.00  0.00     0.002 A 
HETATM   29  C   UNL     1       8.891  24.629  57.407  1.00  0.00     0.001 A 
HETATM   30  C   UNL     1       8.235  25.862  57.436  1.00  0.00     0.011 A 
ENDBRANCH   7  24
BRANCH  10  31
HETATM   31  C   UNL     1       8.537  29.142  56.531  1.00  0.00     0.294 C 
HETATM   32  O   UNL     1       8.628  29.100  55.311  1.00  0.00    -0.259 OA
BRANCH  31  33
HETATM   33  O   UNL     1       9.562  29.233  57.393  1.00  0.00    -0.313 OA
BRANCH  33  34
HETATM   34  C   UNL     1      10.547  30.264  57.157  1.00  0.00     0.124 C 
HETATM   35  C   UNL     1      10.376  31.359  58.196  1.00  0.00     0.040 C 
HETATM   36  C   UNL     1      11.923  29.614  57.256  1.00  0.00     0.040 C 
ENDBRANCH  33  34
ENDBRANCH  31  33
ENDBRANCH  10  31
TORSDOF 9
ENDMDL
MODEL 3
REMARK VINA RESULT:      -7.3      2.763      7.973
REMARK  9 active torsions:
REMARK  status: ('A' for Active; 'I' for Inactive)
REMARK    1  A    between atoms: C_6  and  C_7 
REMARK    2  A    between atoms: C_7  and  C_8 
REMARK       I    between atoms: C_8  and  N_9 
REMARK    3  A    between atoms: N_9  and  C_10 
REMARK    4  A    between atoms: C_10  and  C_11 
REMARK    5  A    between atoms: C_11  and  N_12 
REMARK    6  A    between atoms: C_19  and  C_20 
REMARK    7  A    between atoms: C_29  and  C_30 
REMARK    8  A    between atoms: C_30  and  O_31 
REMARK    9  A    between atoms: O_31  and  C_32 
ROOT
HETATM    1  C   UNL     1       5.831  32.772  60.700  1.00  0.00     0.071 C 
HETATM    2  C   UNL     1       6.156  32.403  59.270  1.00  0.00     0.048 C 
HETATM    3  N   UNL     1       7.495  32.019  59.083  1.00  0.00    -0.229 NA
HETATM    4  C   UNL     1       7.693  31.090  58.201  1.00  0.00     0.170 C 
HETATM    5  N   UNL     1       6.564  30.642  57.212  1.00  0.00    -0.318 N 
HETATM    6  C   UNL     1       6.470  29.354  57.318  1.00  0.00     0.011 C 
HETATM    7  C   UNL     1       5.756  31.846  56.939  1.00  0.00     0.168 C 
HETATM    8  S   UNL     1       8.981  29.947  58.208  1.00  0.00    -0.086 SA
HETATM    9  C   UNL     1       7.774  28.656  57.685  1.00  0.00     0.135 C 
HETATM   10  C   UNL     1       5.223  32.227  58.295  1.00  0.00     0.069 C 
ENDROOT
BRANCH   6  11
HETATM   11  C   UNL     1       5.121  28.698  57.318  1.00  0.00     0.156 C 
BRANCH  11  12
HETATM   12  C   UNL     1       5.053  27.394  56.563  1.00  0.00     0.223 C 
HETATM   13  N   UNL     1       5.367  27.466  55.223  1.00  0.00    -0.359 N 
HETATM   14  H   UNL     1       5.663  28.346  54.807  1.00  0.00     0.162 HD
HETATM   15  O   UNL     1       4.701  26.355  57.106  1.00  0.00    -0.273 OA
BRANCH  13  16
HETATM   16  C   UNL     1       5.395  26.272  54.382  1.00  0.00     0.150 C 
BRANCH  16  17
HETATM   17  C   UNL     1       6.793  25.627  54.344  1.00  0.00     0.254 C 
BRANCH  17  18
HETATM   18  N   UNL     1       6.732  24.127  54.170  1.00  0.00    -0.070 N 
HETATM   19  H   UNL     1       5.748  23.834  54.091  1.00  0.00     0.279 HD
HETATM   20  C   UNL     1       7.355  23.342  55.319  1.00  0.00     0.235 C 
HETATM   21  C   UNL     1       8.634  22.779  54.739  1.00  0.00     0.029 C 
HETATM   22  C   UNL     1       8.244  22.454  53.313  1.00  0.00     0.029 C 
HETATM   23  C   UNL     1       7.433  23.662  52.894  1.00  0.00     0.235 C 
ENDBRANCH  17  18
ENDBRANCH  16  17
ENDBRANCH  13  16
ENDBRANCH  11  12
ENDBRANCH   6  11
BRANCH   7  24
HETATM   24  C   UNL     1       4.959  32.048  55.655  1.00  0.00    -0.009 A 
HETATM   25  C   UNL     1       4.740  33.254  54.961  1.00  0.00     0.042 A 
HETATM   26 CL   UNL     1       5.349  34.784  55.479  1.00  0.00    -0.084 Cl
HETATM   27  C   UNL     1       3.908  33.303  53.830  1.00  0.00     0.024 A 
HETATM   28  C   UNL     1       3.213  32.177  53.402  1.00  0.00     0.002 A 
HETATM   29  C   UNL     1       3.326  30.998  54.119  1.00  0.00     0.001 A 
HETATM   30  C   UNL     1       4.169  30.943  55.231  1.00  0.00     0.011 A 
ENDBRANCH   7  24
BRANCH  10  31
HETATM   31  C   UNL     1       3.860  31.800  58.697  1.00  0.00     0.294 C 
HETATM   32  O   UNL     1       3.650  30.672  59.122  1.00  0.00    -0.259 OA
BRANCH  31  33
HETATM   33  O   UNL     1       2.926  32.666  58.271  1.00  0.00    -0.313 OA
BRANCH  33  34
HETATM   34  C   UNL     1       3.138  34.069  58.546  1.00  0.00     0.124 C 
HETATM   35  C   UNL     1       2.431  34.894  57.483  1.00  0.00     0.040 C 
HETATM   36  C   UNL     1       2.579  34.354  59.935  1.00  0.00     0.040 C 
ENDBRANCH  33  34
ENDBRANCH  31  33
ENDBRANCH  10  31
TORSDOF 9
ENDMDL
MODEL 4
REMARK VINA RESULT:      -7.2      5.538      8.805
REMARK  9 active torsions:
REMARK  status: ('A' for Active; 'I' for Inactive)
REMARK    1  A    between atoms: C_6  and  C_7 
REMARK    2  A    between atoms: C_7  and  C_8 
REMARK       I    between atoms: C_8  and  N_9 
REMARK    3  A    between atoms: N_9  and  C_10 
REMARK    4  A    between atoms: C_10  and  C_11 
REMARK    5  A    between atoms: C_11  and  N_12 
REMARK    6  A    between atoms: C_19  and  C_20 
REMARK    7  A    between atoms: C_29  and  C_30 
REMARK    8  A    between atoms: C_30  and  O_31 
REMARK    9  A    between atoms: O_31  and  C_32 
ROOT
HETATM    1  C   UNL     1       4.438  31.023  46.996  1.00  0.00     0.071 C 
HETATM    2  C   UNL     1       3.794  30.230  48.110  1.00  0.00     0.048 C 
HETATM    3  N   UNL     1       2.796  29.347  47.663  1.00  0.00    -0.229 NA
HETATM    4  C   UNL     1       2.707  28.228  48.312  1.00  0.00     0.170 C 
HETATM    5  N   UNL     1       3.452  28.005  49.671  1.00  0.00    -0.318 N 
HETATM    6  C   UNL     1       4.130  26.908  49.545  1.00  0.00     0.011 C 
HETATM    7  C   UNL     1       3.486  29.319  50.342  1.00  0.00     0.168 C 
HETATM    8  S   UNL     1       2.154  26.729  47.671  1.00  0.00    -0.086 SA
HETATM    9  C   UNL     1       3.506  25.888  48.599  1.00  0.00     0.135 C 
HETATM   10  C   UNL     1       4.266  30.182  49.386  1.00  0.00     0.069 C 
ENDROOT
BRANCH   6  11
HETATM   11  C   UNL     1       5.519  26.815  50.105  1.00  0.00     0.156 C 
BRANCH  11  12
HETATM   12  C   UNL     1       5.673  25.851  51.255  1.00  0.00     0.223 C 
HETATM   13  N   UNL     1       6.916  25.830  51.850  1.00  0.00    -0.359 N 
HETATM   14  H   UNL     1       7.649  26.464  51.540  1.00  0.00     0.162 HD
HETATM   15  O   UNL     1       4.760  25.113  51.601  1.00  0.00    -0.273 OA
BRANCH  13  16
HETATM   16  C   UNL     1       7.191  24.984  53.008  1.00  0.00     0.150 C 
BRANCH  16  17
HETATM   17  C   UNL     1       7.872  23.663  52.607  1.00  0.00     0.254 C 
BRANCH  17  18
HETATM   18  N   UNL     1       7.526  22.528  53.543  1.00  0.00    -0.070 N 
HETATM   19  H   UNL     1       6.503  22.471  53.645  1.00  0.00     0.279 HD
HETATM   20  C   UNL     1       8.120  22.670  54.940  1.00  0.00     0.235 C 
HETATM   21  C   UNL     1       9.208  21.618  54.994  1.00  0.00     0.029 C 
HETATM   22  C   UNL     1       8.613  20.476  54.200  1.00  0.00     0.029 C 
HETATM   23  C   UNL     1       7.990  21.173  53.008  1.00  0.00     0.235 C 
ENDBRANCH  17  18
ENDBRANCH  16  17
ENDBRANCH  13  16
ENDBRANCH  11  12
ENDBRANCH   6  11
BRANCH   7  24
HETATM   24  C   UNL     1       3.566  29.486  51.855  1.00  0.00    -0.009 A 
HETATM   25  C   UNL     1       3.195  30.613  52.615  1.00  0.00     0.042 A 
HETATM   26 CL   UNL     1       2.575  32.071  51.930  1.00  0.00    -0.084 Cl
HETATM   27  C   UNL     1       3.406  30.657  54.004  1.00  0.00     0.024 A 
HETATM   28  C   UNL     1       4.057  29.620  54.663  1.00  0.00     0.002 A 
HETATM   29  C   UNL     1       4.525  28.541  53.932  1.00  0.00     0.001 A 
HETATM   30  C   UNL     1       4.296  28.486  52.556  1.00  0.00     0.011 A 
ENDBRANCH   7  24
BRANCH  10  31
HETATM   31  C   UNL     1       5.719  30.396  49.605  1.00  0.00     0.294 C 
HETATM   32  O   UNL     1       6.543  29.568  49.240  1.00  0.00    -0.259 OA
BRANCH  31  33
HETATM   33  O   UNL     1       5.944  31.405  50.462  1.00  0.00    -0.313 OA
BRANCH  33  34
HETATM   34  C   UNL     1       5.624  32.744  50.021  1.00  0.00     0.124 C 
HETATM   35  C   UNL     1       5.753  33.696  51.198  1.00  0.00     0.040 C 
HETATM   36  C   UNL     1       6.599  33.104  48.906  1.00  0.00     0.040 C 
ENDBRANCH  33  34
ENDBRANCH  31  33
ENDBRANCH  10  31
TORSDOF 9
ENDMDL
MODEL 5
REMARK VINA RESULT:      -7.0      4.692      7.928
REMARK  9 active torsions:
REMARK  status: ('A' for Active; 'I' for Inactive)
REMARK    1  A    between atoms: C_6  and  C_7 
REMARK    2  A    between atoms: C_7  and  C_8 
REMARK       I    between atoms: C_8  and  N_9 
REMARK    3  A    between atoms: N_9  and  C_10 
REMARK    4  A    between atoms: C_10  and  C_11 
REMARK    5  A    between atoms: C_11  and  N_12 
REMARK    6  A    between atoms: C_19  and  C_20 
REMARK    7  A    between atoms: C_29  and  C_30 
REMARK    8  A    between atoms: C_30  and  O_31 
REMARK    9  A    between atoms: O_31  and  C_32 
ROOT
HETATM    1  C   UNL     1       4.626  30.943  46.826  1.00  0.00     0.071 C 
HETATM    2  C   UNL     1       3.914  30.215  47.943  1.00  0.00     0.048 C 
HETATM    3  N   UNL     1       2.936  29.314  47.489  1.00  0.00    -0.229 NA
HETATM    4  C   UNL     1       2.801  28.233  48.191  1.00  0.00     0.170 C 
HETATM    5  N   UNL     1       3.466  28.081  49.600  1.00  0.00    -0.318 N 
HETATM    6  C   UNL     1       4.142  26.975  49.572  1.00  0.00     0.011 C 
HETATM    7  C   UNL     1       3.472  29.428  50.199  1.00  0.00     0.168 C 
HETATM    8  S   UNL     1       2.274  26.703  47.601  1.00  0.00    -0.086 SA
HETATM    9  C   UNL     1       3.564  25.908  48.650  1.00  0.00     0.135 C 
HETATM   10  C   UNL     1       4.312  30.235  49.244  1.00  0.00     0.069 C 
ENDROOT
BRANCH   6  11
HETATM   11  C   UNL     1       5.495  26.906  50.215  1.00  0.00     0.156 C 
BRANCH  11  12
HETATM   12  C   UNL     1       5.661  25.794  51.221  1.00  0.00     0.223 C 
HETATM   13  N   UNL     1       6.960  25.502  51.576  1.00  0.00    -0.359 N 
HETATM   14  H   UNL     1       7.734  26.045  51.199  1.00  0.00     0.162 HD
HETATM   15  O   UNL     1       4.700  25.173  51.656  1.00  0.00    -0.273 OA
BRANCH  13  16
HETATM   16  C   UNL     1       7.266  24.486  52.579  1.00  0.00     0.150 C 
BRANCH  16  17
HETATM   17  C   UNL     1       7.757  25.109  53.898  1.00  0.00     0.254 C 
BRANCH  17  18
HETATM   18  N   UNL     1       6.904  26.277  54.338  1.00  0.00    -0.070 N 
HETATM   19  H   UNL     1       6.074  26.339  53.732  1.00  0.00     0.279 HD
HETATM   20  C   UNL     1       7.616  27.624  54.280  1.00  0.00     0.235 C 
HETATM   21  C   UNL     1       7.847  27.990  55.730  1.00  0.00     0.029 C 
HETATM   22  C   UNL     1       6.599  27.472  56.411  1.00  0.00     0.029 C 
HETATM   23  C   UNL     1       6.393  26.116  55.769  1.00  0.00     0.235 C 
ENDBRANCH  17  18
ENDBRANCH  16  17
ENDBRANCH  13  16
ENDBRANCH  11  12
ENDBRANCH   6  11
BRANCH   7  24
HETATM   24  C   UNL     1       3.467  29.678  51.704  1.00  0.00    -0.009 A 
HETATM   25  C   UNL     1       3.094  30.858  52.377  1.00  0.00     0.042 A 
HETATM   26 CL   UNL     1       2.572  32.295  51.578  1.00  0.00    -0.084 Cl
HETATM   27  C   UNL     1       3.222  30.972  53.772  1.00  0.00     0.024 A 
HETATM   28  C   UNL     1       3.792  29.952  54.526  1.00  0.00     0.002 A 
HETATM   29  C   UNL     1       4.262  28.818  53.884  1.00  0.00     0.001 A 
HETATM   30  C   UNL     1       4.115  28.694  52.502  1.00  0.00     0.011 A 
ENDBRANCH   7  24
BRANCH  10  31
HETATM   31  C   UNL     1       5.751  30.454  49.534  1.00  0.00     0.294 C 
HETATM   32  O   UNL     1       6.592  29.619  49.229  1.00  0.00    -0.259 OA
BRANCH  31  33
HETATM   33  O   UNL     1       5.932  31.479  50.383  1.00  0.00    -0.313 OA
BRANCH  33  34
HETATM   34  C   UNL     1       5.663  32.811  49.891  1.00  0.00     0.124 C 
HETATM   35  C   UNL     1       5.790  33.797  51.040  1.00  0.00     0.040 C 
HETATM   36  C   UNL     1       6.675  33.107  48.790  1.00  0.00     0.040 C 
ENDBRANCH  33  34
ENDBRANCH  31  33
ENDBRANCH  10  31
TORSDOF 9
ENDMDL
MODEL 6
REMARK VINA RESULT:      -6.7      5.845      9.609
REMARK  9 active torsions:
REMARK  status: ('A' for Active; 'I' for Inactive)
REMARK    1  A    between atoms: C_6  and  C_7 
REMARK    2  A    between atoms: C_7  and  C_8 
REMARK       I    between atoms: C_8  and  N_9 
REMARK    3  A    between atoms: N_9  and  C_10 
REMARK    4  A    between atoms: C_10  and  C_11 
REMARK    5  A    between atoms: C_11  and  N_12 
REMARK    6  A    between atoms: C_19  and  C_20 
REMARK    7  A    between atoms: C_29  and  C_30 
REMARK    8  A    between atoms: C_30  and  O_31 
REMARK    9  A    between atoms: O_31  and  C_32 
ROOT
HETATM    1  C   UNL     1       1.687  32.207  45.878  1.00  0.00     0.071 C 
HETATM    2  C   UNL     1       2.690  31.292  46.543  1.00  0.00     0.048 C 
HETATM    3  N   UNL     1       3.954  31.882  46.719  1.00  0.00    -0.229 NA
HETATM    4  C   UNL     1       4.588  31.537  47.796  1.00  0.00     0.170 C 
HETATM    5  N   UNL     1       4.113  30.335  48.679  1.00  0.00    -0.318 N 
HETATM    6  C   UNL     1       4.011  30.784  49.890  1.00  0.00     0.011 C 
HETATM    7  C   UNL     1       3.518  29.354  47.752  1.00  0.00     0.168 C 
HETATM    8  S   UNL     1       5.730  32.503  48.649  1.00  0.00    -0.086 SA
HETATM    9  C   UNL     1       4.977  31.915  50.225  1.00  0.00     0.135 C 
HETATM   10  C   UNL     1       2.372  30.107  47.131  1.00  0.00     0.069 C 
ENDROOT
BRANCH   6  11
HETATM   11  C   UNL     1       2.859  30.362  50.753  1.00  0.00     0.156 C 
BRANCH  11  12
HETATM   12  C   UNL     1       3.244  29.870  52.125  1.00  0.00     0.223 C 
HETATM   13  N   UNL     1       3.369  28.503  52.254  1.00  0.00    -0.359 N 
HETATM   14  H   UNL     1       3.245  27.895  51.448  1.00  0.00     0.162 HD
HETATM   15  O   UNL     1       3.393  30.640  53.066  1.00  0.00    -0.273 OA
BRANCH  13  16
HETATM   16  C   UNL     1       3.789  27.892  53.511  1.00  0.00     0.150 C 
BRANCH  16  17
HETATM   17  C   UNL     1       5.321  27.881  53.663  1.00  0.00     0.254 C 
BRANCH  17  18
HETATM   18  N   UNL     1       5.868  26.492  53.903  1.00  0.00    -0.070 N 
HETATM   19  H   UNL     1       5.867  26.297  54.914  1.00  0.00     0.279 HD
HETATM   20  C   UNL     1       7.292  26.288  53.397  1.00  0.00     0.235 C 
HETATM   21  C   UNL     1       7.135  25.392  52.188  1.00  0.00     0.029 C 
HETATM   22  C   UNL     1       6.006  24.470  52.594  1.00  0.00     0.029 C 
HETATM   23  C   UNL     1       5.012  25.409  53.246  1.00  0.00     0.235 C 
ENDBRANCH  17  18
ENDBRANCH  16  17
ENDBRANCH  13  16
ENDBRANCH  11  12
ENDBRANCH   6  11
BRANCH   7  24
HETATM   24  C   UNL     1       3.462  27.857  48.038  1.00  0.00    -0.009 A 
HETATM   25  C   UNL     1       4.235  27.129  48.964  1.00  0.00     0.042 A 
HETATM   26 CL   UNL     1       5.446  27.837  49.969  1.00  0.00    -0.084 Cl
HETATM   27  C   UNL     1       4.133  25.731  49.059  1.00  0.00     0.024 A 
HETATM   28  C   UNL     1       3.321  25.011  48.189  1.00  0.00     0.002 A 
HETATM   29  C   UNL     1       2.624  25.684  47.200  1.00  0.00     0.001 A 
HETATM   30  C   UNL     1       2.707  27.075  47.119  1.00  0.00     0.011 A 
ENDBRANCH   7  24
BRANCH  10  31
HETATM   31  C   UNL     1       1.000  29.939  47.673  1.00  0.00     0.294 C 
HETATM   32  O   UNL     1       0.629  30.562  48.658  1.00  0.00    -0.259 OA
BRANCH  31  33
HETATM   33  O   UNL     1       0.390  28.865  47.146  1.00  0.00    -0.313 OA
BRANCH  33  34
HETATM   34  C   UNL     1      -0.192  29.003  45.830  1.00  0.00     0.124 C 
HETATM   35  C   UNL     1      -0.479  27.621  45.269  1.00  0.00     0.040 C 
HETATM   36  C   UNL     1      -1.471  29.820  45.979  1.00  0.00     0.040 C 
ENDBRANCH  33  34
ENDBRANCH  31  33
ENDBRANCH  10  31
TORSDOF 9
ENDMDL
MODEL 7
REMARK VINA RESULT:      -6.5      2.313      2.730
REMARK  9 active torsions:
REMARK  status: ('A' for Active; 'I' for Inactive)
REMARK    1  A    between atoms: C_6  and  C_7 
REMARK    2  A    between atoms: C_7  and  C_8 
REMARK       I    between atoms: C_8  and  N_9 
REMARK    3  A    between atoms: N_9  and  C_10 
REMARK    4  A    between atoms: C_10  and  C_11 
REMARK    5  A    between atoms: C_11  and  N_12 
REMARK    6  A    between atoms: C_19  and  C_20 
REMARK    7  A    between atoms: C_29  and  C_30 
REMARK    8  A    between atoms: C_30  and  O_31 
REMARK    9  A    between atoms: O_31  and  C_32 
ROOT
HETATM    1  C   UNL     1       5.853  24.818  52.260  1.00  0.00     0.071 C 
HETATM    2  C   UNL     1       6.313  26.192  52.689  1.00  0.00     0.048 C 
HETATM    3  N   UNL     1       5.927  27.213  51.804  1.00  0.00    -0.229 NA
HETATM    4  C   UNL     1       5.639  28.352  52.354  1.00  0.00     0.170 C 
HETATM    5  N   UNL     1       5.981  28.650  53.852  1.00  0.00    -0.318 N 
HETATM    6  C   UNL     1       4.884  29.057  54.408  1.00  0.00     0.011 C 
HETATM    7  C   UNL     1       7.224  27.912  54.145  1.00  0.00     0.168 C 
HETATM    8  S   UNL     1       4.531  29.519  51.741  1.00  0.00    -0.086 SA
HETATM    9  C   UNL     1       3.933  29.785  53.464  1.00  0.00     0.135 C 
HETATM   10  C   UNL     1       6.843  26.473  53.911  1.00  0.00     0.069 C 
ENDROOT
BRANCH   6  11
HETATM   11  C   UNL     1       4.529  28.601  55.792  1.00  0.00     0.156 C 
BRANCH  11  12
HETATM   12  C   UNL     1       4.310  29.713  56.787  1.00  0.00     0.223 C 
HETATM   13  N   UNL     1       5.400  30.521  57.026  1.00  0.00    -0.359 N 
HETATM   14  H   UNL     1       6.270  30.379  56.518  1.00  0.00     0.162 HD
HETATM   15  O   UNL     1       3.241  29.853  57.369  1.00  0.00    -0.273 OA
BRANCH  13  16
HETATM   16  C   UNL     1       5.316  31.668  57.925  1.00  0.00     0.150 C 
BRANCH  16  17
HETATM   17  C   UNL     1       4.592  32.860  57.271  1.00  0.00     0.254 C 
BRANCH  17  18
HETATM   18  N   UNL     1       3.515  33.439  58.158  1.00  0.00    -0.070 N 
HETATM   19  H   UNL     1       2.594  33.267  57.730  1.00  0.00     0.279 HD
HETATM   20  C   UNL     1       3.640  34.941  58.391  1.00  0.00     0.235 C 
HETATM   21  C   UNL     1       4.086  35.061  59.832  1.00  0.00     0.029 C 
HETATM   22  C   UNL     1       3.337  33.936  60.512  1.00  0.00     0.029 C 
HETATM   23  C   UNL     1       3.486  32.785  59.539  1.00  0.00     0.235 C 
ENDBRANCH  17  18
ENDBRANCH  16  17
ENDBRANCH  13  16
ENDBRANCH  11  12
ENDBRANCH   6  11
BRANCH   7  24
HETATM   24  C   UNL     1       8.219  28.335  55.220  1.00  0.00    -0.009 A 
HETATM   25  C   UNL     1       8.090  28.187  56.615  1.00  0.00     0.042 A 
HETATM   26 CL   UNL     1       6.713  27.484  57.383  1.00  0.00    -0.084 Cl
HETATM   27  C   UNL     1       9.055  28.705  57.496  1.00  0.00     0.024 A 
HETATM   28  C   UNL     1      10.131  29.448  57.023  1.00  0.00     0.002 A 
HETATM   29  C   UNL     1      10.236  29.699  55.665  1.00  0.00     0.001 A 
HETATM   30  C   UNL     1       9.290  29.166  54.788  1.00  0.00     0.011 A 
ENDBRANCH   7  24
BRANCH  10  31
HETATM   31  C   UNL     1       6.450  25.620  55.060  1.00  0.00     0.294 C 
HETATM   32  O   UNL     1       5.346  25.722  55.576  1.00  0.00    -0.259 OA
BRANCH  31  33
HETATM   33  O   UNL     1       7.511  24.990  55.590  1.00  0.00    -0.313 OA
BRANCH  33  34
HETATM   34  C   UNL     1       7.367  23.588  55.912  1.00  0.00     0.124 C 
HETATM   35  C   UNL     1       7.643  22.764  54.665  1.00  0.00     0.040 C 
HETATM   36  C   UNL     1       8.361  23.268  57.022  1.00  0.00     0.040 C 
ENDBRANCH  33  34
ENDBRANCH  31  33
ENDBRANCH  10  31
TORSDOF 9
ENDMDL
MODEL 8
REMARK VINA RESULT:      -6.5      5.072      7.360
REMARK  9 active torsions:
REMARK  status: ('A' for Active; 'I' for Inactive)
REMARK    1  A    between atoms: C_6  and  C_7 
REMARK    2  A    between atoms: C_7  and  C_8 
REMARK       I    between atoms: C_8  and  N_9 
REMARK    3  A    between atoms: N_9  and  C_10 
REMARK    4  A    between atoms: C_10  and  C_11 
REMARK    5  A    between atoms: C_11  and  N_12 
REMARK    6  A    between atoms: C_19  and  C_20 
REMARK    7  A    between atoms: C_29  and  C_30 
REMARK    8  A    between atoms: C_30  and  O_31 
REMARK    9  A    between atoms: O_31  and  C_32 
ROOT
HETATM    1  C   UNL     1       5.300  25.644  51.336  1.00  0.00     0.071 C 
HETATM    2  C   UNL     1       4.947  26.676  50.289  1.00  0.00     0.048 C 
HETATM    3  N   UNL     1       4.528  26.116  49.070  1.00  0.00    -0.229 NA
HETATM    4  C   UNL     1       3.608  26.775  48.438  1.00  0.00     0.170 C 
HETATM    5  N   UNL     1       3.210  28.232  48.852  1.00  0.00    -0.318 N 
HETATM    6  C   UNL     1       1.923  28.233  49.009  1.00  0.00     0.011 C 
HETATM    7  C   UNL     1       4.440  28.865  49.362  1.00  0.00     0.168 C 
HETATM    8  S   UNL     1       2.428  26.102  47.379  1.00  0.00    -0.086 SA
HETATM    9  C   UNL     1       1.182  27.236  48.125  1.00  0.00     0.135 C 
HETATM   10  C   UNL     1       4.814  28.007  50.542  1.00  0.00     0.069 C 
ENDROOT
BRANCH   6  11
HETATM   11  C   UNL     1       1.306  28.987  50.149  1.00  0.00     0.156 C 
BRANCH  11  12
HETATM   12  C   UNL     1       1.302  30.487  49.986  1.00  0.00     0.223 C 
HETATM   13  N   UNL     1       1.743  31.204  51.077  1.00  0.00    -0.359 N 
HETATM   14  H   UNL     1       2.082  30.726  51.908  1.00  0.00     0.162 HD
HETATM   15  O   UNL     1       0.894  31.020  48.962  1.00  0.00    -0.273 OA
BRANCH  13  16
HETATM   16  C   UNL     1       1.843  32.661  51.040  1.00  0.00     0.150 C 
BRANCH  16  17
HETATM   17  C   UNL     1       1.150  33.316  52.249  1.00  0.00     0.254 C 
BRANCH  17  18
HETATM   18  N   UNL     1       2.109  33.598  53.382  1.00  0.00    -0.070 N 
HETATM   19  H   UNL     1       2.020  34.585  53.664  1.00  0.00     0.279 HD
HETATM   20  C   UNL     1       3.573  33.349  53.035  1.00  0.00     0.235 C 
HETATM   21  C   UNL     1       3.933  32.098  53.808  1.00  0.00     0.029 C 
HETATM   22  C   UNL     1       3.155  32.261  55.096  1.00  0.00     0.029 C 
HETATM   23  C   UNL     1       1.805  32.758  54.623  1.00  0.00     0.235 C 
ENDBRANCH  17  18
ENDBRANCH  16  17
ENDBRANCH  13  16
ENDBRANCH  11  12
ENDBRANCH   6  11
BRANCH   7  24
HETATM   24  C   UNL     1       4.687  30.369  49.328  1.00  0.00    -0.009 A 
HETATM   25  C   UNL     1       4.380  31.266  48.285  1.00  0.00     0.042 A 
HETATM   26 CL   UNL     1       3.656  30.791  46.792  1.00  0.00    -0.084 Cl
HETATM   27  C   UNL     1       4.745  32.621  48.358  1.00  0.00     0.024 A 
HETATM   28  C   UNL     1       5.488  33.106  49.430  1.00  0.00     0.002 A 
HETATM   29  C   UNL     1       5.893  32.232  50.424  1.00  0.00     0.001 A 
HETATM   30  C   UNL     1       5.512  30.890  50.363  1.00  0.00     0.011 A 
ENDBRANCH   7  24
BRANCH  10  31
HETATM   31  C   UNL     1       4.420  28.425  51.911  1.00  0.00     0.294 C 
HETATM   32  O   UNL     1       3.244  28.586  52.209  1.00  0.00    -0.259 OA
BRANCH  31  33
HETATM   33  O   UNL     1       5.477  28.856  52.618  1.00  0.00    -0.313 OA
BRANCH  33  34
HETATM   34  C   UNL     1       5.862  28.091  53.782  1.00  0.00     0.124 C 
HETATM   35  C   UNL     1       7.373  27.930  53.790  1.00  0.00     0.040 C 
HETATM   36  C   UNL     1       5.378  28.852  55.011  1.00  0.00     0.040 C 
ENDBRANCH  33  34
ENDBRANCH  31  33
ENDBRANCH  10  31
TORSDOF 9
ENDMDL
MODEL 9
REMARK VINA RESULT:      -6.5      6.128      9.274
REMARK  9 active torsions:
REMARK  status: ('A' for Active; 'I' for Inactive)
REMARK    1  A    between atoms: C_6  and  C_7 
REMARK    2  A    between atoms: C_7  and  C_8 
REMARK       I    between atoms: C_8  and  N_9 
REMARK    3  A    between atoms: N_9  and  C_10 
REMARK    4  A    between atoms: C_10  and  C_11 
REMARK    5  A    between atoms: C_11  and  N_12 
REMARK    6  A    between atoms: C_19  and  C_20 
REMARK    7  A    between atoms: C_29  and  C_30 
REMARK    8  A    between atoms: C_30  and  O_31 
REMARK    9  A    between atoms: O_31  and  C_32 
ROOT
HETATM    1  C   UNL     1       0.782  30.582  47.988  1.00  0.00     0.071 C 
HETATM    2  C   UNL     1       1.886  31.481  48.496  1.00  0.00     0.048 C 
HETATM    3  N   UNL     1       1.569  32.130  49.701  1.00  0.00    -0.229 NA
HETATM    4  C   UNL     1       2.559  32.308  50.519  1.00  0.00     0.170 C 
HETATM    5  N   UNL     1       4.043  32.083  50.073  1.00  0.00    -0.318 N 
HETATM    6  C   UNL     1       4.570  31.273  50.937  1.00  0.00     0.011 C 
HETATM    7  C   UNL     1       4.105  32.460  48.649  1.00  0.00     0.168 C 
HETATM    8  S   UNL     1       2.448  32.397  52.236  1.00  0.00    -0.086 SA
HETATM    9  C   UNL     1       3.981  31.380  52.339  1.00  0.00     0.135 C 
HETATM   10  C   UNL     1       3.149  31.501  47.989  1.00  0.00     0.069 C 
ENDROOT
BRANCH   6  11
HETATM   11  C   UNL     1       5.491  30.183  50.478  1.00  0.00     0.156 C 
BRANCH  11  12
HETATM   12  C   UNL     1       5.525  28.967  51.371  1.00  0.00     0.223 C 
HETATM   13  N   UNL     1       4.572  28.008  51.106  1.00  0.00    -0.359 N 
HETATM   14  H   UNL     1       3.928  28.120  50.327  1.00  0.00     0.162 HD
HETATM   15  O   UNL     1       6.326  28.870  52.292  1.00  0.00    -0.273 OA
BRANCH  13  16
HETATM   16  C   UNL     1       4.523  26.756  51.856  1.00  0.00     0.150 C 
BRANCH  16  17
HETATM   17  C   UNL     1       5.664  25.802  51.460  1.00  0.00     0.254 C 
BRANCH  17  18
HETATM   18  N   UNL     1       6.667  25.607  52.573  1.00  0.00    -0.070 N 
HETATM   19  H   UNL     1       6.964  26.527  52.927  1.00  0.00     0.279 HD
HETATM   20  C   UNL     1       7.923  24.850  52.153  1.00  0.00     0.235 C 
HETATM   21  C   UNL     1       7.786  23.498  52.820  1.00  0.00     0.029 C 
HETATM   22  C   UNL     1       7.139  23.839  54.145  1.00  0.00     0.029 C 
HETATM   23  C   UNL     1       6.077  24.847  53.761  1.00  0.00     0.235 C 
ENDBRANCH  17  18
ENDBRANCH  16  17
ENDBRANCH  13  16
ENDBRANCH  11  12
ENDBRANCH   6  11
BRANCH   7  24
HETATM   24  C   UNL     1       5.375  32.956  47.966  1.00  0.00    -0.009 A 
HETATM   25  C   UNL     1       6.405  33.735  48.529  1.00  0.00     0.042 A 
HETATM   26 CL   UNL     1       6.395  34.305  50.159  1.00  0.00    -0.084 Cl
HETATM   27  C   UNL     1       7.481  34.192  47.751  1.00  0.00     0.024 A 
HETATM   28  C   UNL     1       7.529  33.954  46.382  1.00  0.00     0.002 A 
HETATM   29  C   UNL     1       6.484  33.277  45.776  1.00  0.00     0.001 A 
HETATM   30  C   UNL     1       5.424  32.803  46.552  1.00  0.00     0.011 A 
ENDBRANCH   7  24
BRANCH  10  31
HETATM   31  C   UNL     1       3.668  30.266  47.350  1.00  0.00     0.294 C 
HETATM   32  O   UNL     1       3.848  30.206  46.141  1.00  0.00    -0.259 OA
BRANCH  31  33
HETATM   33  O   UNL     1       3.623  29.220  48.191  1.00  0.00    -0.313 OA
BRANCH  33  34
HETATM   34  C   UNL     1       3.445  27.906  47.617  1.00  0.00     0.124 C 
HETATM   35  C   UNL     1       4.744  27.129  47.747  1.00  0.00     0.040 C 
HETATM   36  C   UNL     1       2.312  27.224  48.376  1.00  0.00     0.040 C 
ENDBRANCH  33  34
ENDBRANCH  31  33
ENDBRANCH  10  31
TORSDOF 9
ENDMDL
MODEL 10
REMARK VINA RESULT:      -6.3      5.484      8.396
REMARK  9 active torsions:
REMARK  status: ('A' for Active; 'I' for Inactive)
REMARK    1  A    between atoms: C_6  and  C_7 
REMARK    2  A    between atoms: C_7  and  C_8 
REMARK       I    between atoms: C_8  and  N_9 
REMARK    3  A    between atoms: N_9  and  C_10 
REMARK    4  A    between atoms: C_10  and  C_11 
REMARK    5  A    between atoms: C_11  and  N_12 
REMARK    6  A    between atoms: C_19  and  C_20 
REMARK    7  A    between atoms: C_29  and  C_30 
REMARK    8  A    between atoms: C_30  and  O_31 
REMARK    9  A    between atoms: O_31  and  C_32 
ROOT
HETATM    1  C   UNL     1       5.335  25.778  51.186  1.00  0.00     0.071 C 
HETATM    2  C   UNL     1       4.964  26.818  50.153  1.00  0.00     0.048 C 
HETATM    3  N   UNL     1       4.466  26.268  48.960  1.00  0.00    -0.229 NA
HETATM    4  C   UNL     1       3.538  26.956  48.371  1.00  0.00     0.170 C 
HETATM    5  N   UNL     1       3.210  28.426  48.798  1.00  0.00    -0.318 N 
HETATM    6  C   UNL     1       1.934  28.471  49.018  1.00  0.00     0.011 C 
HETATM    7  C   UNL     1       4.485  29.019  49.242  1.00  0.00     0.168 C 
HETATM    8  S   UNL     1       2.284  26.319  47.376  1.00  0.00    -0.086 SA
HETATM    9  C   UNL     1       1.116  27.496  48.178  1.00  0.00     0.135 C 
HETATM   10  C   UNL     1       4.889  28.153  50.406  1.00  0.00     0.069 C 
ENDROOT
BRANCH   6  11
HETATM   11  C   UNL     1       1.401  29.249  50.184  1.00  0.00     0.156 C 
BRANCH  11  12
HETATM   12  C   UNL     1       0.778  30.576  49.827  1.00  0.00     0.223 C 
HETATM   13  N   UNL     1      -0.165  31.049  50.714  1.00  0.00    -0.359 N 
HETATM   14  H   UNL     1      -0.377  30.535  51.566  1.00  0.00     0.162 HD
HETATM   15  O   UNL     1       1.070  31.165  48.794  1.00  0.00    -0.273 OA
BRANCH  13  16
HETATM   16  C   UNL     1      -0.809  32.345  50.522  1.00  0.00     0.150 C 
BRANCH  16  17
HETATM   17  C   UNL     1      -1.050  33.072  51.857  1.00  0.00     0.254 C 
BRANCH  17  18
HETATM   18  N   UNL     1      -1.819  32.226  52.845  1.00  0.00    -0.070 N 
HETATM   19  H   UNL     1      -1.280  31.374  53.056  1.00  0.00     0.279 HD
HETATM   20  C   UNL     1      -3.194  31.788  52.351  1.00  0.00     0.235 C 
HETATM   21  C   UNL     1      -4.166  32.606  53.174  1.00  0.00     0.029 C 
HETATM   22  C   UNL     1      -3.491  32.674  54.526  1.00  0.00     0.029 C 
HETATM   23  C   UNL     1      -2.042  32.945  54.176  1.00  0.00     0.235 C 
ENDBRANCH  17  18
ENDBRANCH  16  17
ENDBRANCH  13  16
ENDBRANCH  11  12
ENDBRANCH   6  11
BRANCH   7  24
HETATM   24  C   UNL     1       4.780  30.514  49.188  1.00  0.00    -0.009 A 
HETATM   25  C   UNL     1       4.519  31.403  48.126  1.00  0.00     0.042 A 
HETATM   26 CL   UNL     1       3.805  30.926  46.629  1.00  0.00    -0.084 Cl
HETATM   27  C   UNL     1       4.925  32.747  48.184  1.00  0.00     0.024 A 
HETATM   28  C   UNL     1       5.665  33.226  49.260  1.00  0.00     0.002 A 
HETATM   29  C   UNL     1       6.026  32.356  50.275  1.00  0.00     0.001 A 
HETATM   30  C   UNL     1       5.604  31.026  50.229  1.00  0.00     0.011 A 
ENDBRANCH   7  24
BRANCH  10  31
HETATM   31  C   UNL     1       4.578  28.588  51.791  1.00  0.00     0.294 C 
HETATM   32  O   UNL     1       3.433  28.855  52.128  1.00  0.00    -0.259 OA
BRANCH  31  33
HETATM   33  O   UNL     1       5.692  28.910  52.468  1.00  0.00    -0.313 OA
BRANCH  33  34
HETATM   34  C   UNL     1       5.967  28.187  53.689  1.00  0.00     0.124 C 
HETATM   35  C   UNL     1       7.459  27.912  53.776  1.00  0.00     0.040 C 
HETATM   36  C   UNL     1       5.492  29.053  54.851  1.00  0.00     0.040 C 
ENDBRANCH  33  34
ENDBRANCH  31  33
ENDBRANCH  10  31
TORSDOF 9
ENDMDL
