MODEL 1
REMARK VINA RESULT:      -9.6      0.000      0.000
REMARK  11 active torsions:
REMARK  status: ('A' for Active; 'I' for Inactive)
REMARK    1  A    between atoms: O_2  and  C_3 
REMARK    2  A    between atoms: C_3  and  C_4 
REMARK    3  A    between atoms: C_4  and  C_5 
REMARK    4  A    between atoms: C_5  and  O_6 
REMARK    5  A    between atoms: O_6  and  C_7 
REMARK    6  A    between atoms: C_7  and  C_9 
REMARK    7  A    between atoms: C_13  and  C_15 
REMARK    8  A    between atoms: C_17  and  C_23 
REMARK    9  A    between atoms: C_20  and  C_21 
REMARK   10  A    between atoms: C_21  and  N_22 
REMARK       I    between atoms: C_23  and  N_25 
REMARK   11  A    between atoms: N_25  and  C_26 
ROOT
HETATM    1  C   UNL     1       7.646  27.834  57.198  1.00  0.00    -0.017 A 
HETATM    2  C   UNL     1       8.216  26.551  57.061  1.00  0.00     0.030 A 
HETATM    3  C   UNL     1       7.439  25.440  56.705  1.00  0.00     0.033 A 
HETATM    4  C   UNL     1       6.074  25.600  56.480  1.00  0.00     0.017 A 
HETATM    5  C   UNL     1       5.492  26.860  56.616  1.00  0.00     0.011 A 
HETATM    6  C   UNL     1       6.262  27.991  56.957  1.00  0.00    -0.020 A 
ENDROOT
BRANCH   1   7
HETATM    7  C   UNL     1       8.540  28.956  57.528  1.00  0.00    -0.024 A 
HETATM    8  C   UNL     1       9.704  29.213  56.790  1.00  0.00     0.012 A 
HETATM    9  C   UNL     1      10.533  30.291  57.113  1.00  0.00     0.002 A 
HETATM   10  C   UNL     1      10.200  31.138  58.171  1.00  0.00     0.017 A 
HETATM   11  C   UNL     1       9.035  30.912  58.911  1.00  0.00     0.040 A 
HETATM   12  C   UNL     1       8.217  29.818  58.589  1.00  0.00     0.030 A 
BRANCH  11  13
HETATM   13  C   UNL     1       8.705  31.835  60.032  1.00  0.00     0.293 C 
HETATM   14  O   UNL     1       9.029  33.010  60.061  1.00  0.00    -0.259 OA
BRANCH  13  15
HETATM   15  O   UNL     1       8.004  31.169  60.980  1.00  0.00    -0.317 OA
BRANCH  15  16
HETATM   16  C   UNL     1       8.578  31.110  62.296  1.00  0.00     0.181 C 
BRANCH  16  17
HETATM   17  C   UNL     1       8.047  32.242  63.169  1.00  0.00     0.053 C 
BRANCH  17  18
HETATM   18  C   UNL     1       6.527  32.332  63.105  1.00  0.00     0.169 C 
BRANCH  18  19
HETATM   19  O   UNL     1       6.052  33.164  64.159  1.00  0.00    -0.396 OA
HETATM   20  C   UNL     1       7.089  33.510  65.067  1.00  0.00     0.201 C 
ENDBRANCH  18  19
ENDBRANCH  17  18
ENDBRANCH  16  17
ENDBRANCH  15  16
ENDBRANCH  13  15
ENDBRANCH  11  13
ENDBRANCH   1   7
BRANCH   6  21
HETATM   21  C   UNL     1       5.559  29.331  56.997  1.00  0.00     0.306 C 
BRANCH  21  22
HETATM   22  N   UNL     1       4.526  29.360  58.026  1.00  0.00     0.082 N 
HETATM   23  H   UNL     1       4.956  29.580  58.922  1.00  0.00     0.313 HD
HETATM   24  H   UNL     1       3.881  30.122  57.824  1.00  0.00     0.313 HD
ENDBRANCH  21  22
ENDBRANCH   6  21
BRANCH   3  25
HETATM   25  C   UNL     1       8.056  24.102  56.480  1.00  0.00     0.256 C 
HETATM   26  O   UNL     1       8.725  23.611  57.381  1.00  0.00    -0.267 OA
HETATM   27  N   UNL     1       7.817  23.549  55.234  1.00  0.00    -0.323 N 
HETATM   28  H   UNL     1       7.405  24.153  54.534  1.00  0.00     0.169 HD
BRANCH  27  29
HETATM   29  C   UNL     1       8.144  22.242  54.810  1.00  0.00     0.037 A 
HETATM   30  C   UNL     1       8.392  21.185  55.680  1.00  0.00     0.049 A 
HETATM   31  C   UNL     1       8.674  19.939  55.143  1.00  0.00     0.118 A 
HETATM   32  N   UNL     1       8.724  19.681  53.818  1.00  0.00    -0.273 NA
HETATM   33  C   UNL     1       8.481  20.721  52.996  1.00  0.00     0.118 A 
HETATM   34  C   UNL     1       8.187  22.002  53.437  1.00  0.00     0.049 A 
ENDBRANCH  27  29
ENDBRANCH   3  25
TORSDOF 11
ENDMDL
MODEL 2
REMARK VINA RESULT:      -9.0      3.062     10.625
REMARK  11 active torsions:
REMARK  status: ('A' for Active; 'I' for Inactive)
REMARK    1  A    between atoms: O_2  and  C_3 
REMARK    2  A    between atoms: C_3  and  C_4 
REMARK    3  A    between atoms: C_4  and  C_5 
REMARK    4  A    between atoms: C_5  and  O_6 
REMARK    5  A    between atoms: O_6  and  C_7 
REMARK    6  A    between atoms: C_7  and  C_9 
REMARK    7  A    between atoms: C_13  and  C_15 
REMARK    8  A    between atoms: C_17  and  C_23 
REMARK    9  A    between atoms: C_20  and  C_21 
REMARK   10  A    between atoms: C_21  and  N_22 
REMARK       I    between atoms: C_23  and  N_25 
REMARK   11  A    between atoms: N_25  and  C_26 
ROOT
HETATM    1  C   UNL     1       8.424  29.921  57.928  1.00  0.00    -0.017 A 
HETATM    2  C   UNL     1       7.604  30.534  58.900  1.00  0.00     0.030 A 
HETATM    3  C   UNL     1       8.086  31.565  59.717  1.00  0.00     0.033 A 
HETATM    4  C   UNL     1       9.402  32.000  59.571  1.00  0.00     0.017 A 
HETATM    5  C   UNL     1      10.228  31.402  58.620  1.00  0.00     0.011 A 
HETATM    6  C   UNL     1       9.754  30.374  57.779  1.00  0.00    -0.020 A 
ENDROOT
BRANCH   1   7
HETATM    7  C   UNL     1       7.826  28.877  57.080  1.00  0.00    -0.024 A 
HETATM    8  C   UNL     1       7.022  29.195  55.975  1.00  0.00     0.012 A 
HETATM    9  C   UNL     1       6.475  28.188  55.175  1.00  0.00     0.002 A 
HETATM   10  C   UNL     1       6.738  26.847  55.460  1.00  0.00     0.017 A 
HETATM   11  C   UNL     1       7.550  26.506  56.546  1.00  0.00     0.040 A 
HETATM   12  C   UNL     1       8.083  27.523  57.352  1.00  0.00     0.030 A 
BRANCH  11  13
HETATM   13  C   UNL     1       7.814  25.067  56.822  1.00  0.00     0.293 C 
HETATM   14  O   UNL     1       8.770  24.663  57.463  1.00  0.00    -0.259 OA
BRANCH  13  15
HETATM   15  O   UNL     1       6.841  24.309  56.263  1.00  0.00    -0.317 OA
BRANCH  15  16
HETATM   16  C   UNL     1       7.262  23.240  55.400  1.00  0.00     0.181 C 
BRANCH  16  17
HETATM   17  C   UNL     1       7.183  23.663  53.937  1.00  0.00     0.053 C 
BRANCH  17  18
HETATM   18  C   UNL     1       7.739  22.587  53.013  1.00  0.00     0.169 C 
BRANCH  18  19
HETATM   19  O   UNL     1       8.106  21.443  53.778  1.00  0.00    -0.396 OA
HETATM   20  C   UNL     1       8.476  20.350  52.948  1.00  0.00     0.201 C 
ENDBRANCH  18  19
ENDBRANCH  17  18
ENDBRANCH  16  17
ENDBRANCH  15  16
ENDBRANCH  13  15
ENDBRANCH  11  13
ENDBRANCH   1   7
BRANCH   6  21
HETATM   21  C   UNL     1      10.696  29.846  56.719  1.00  0.00     0.306 C 
BRANCH  21  22
HETATM   22  N   UNL     1      12.058  29.726  57.229  1.00  0.00     0.082 N 
HETATM   23  H   UNL     1      12.310  28.741  57.273  1.00  0.00     0.313 HD
HETATM   24  H   UNL     1      12.698  30.156  56.563  1.00  0.00     0.313 HD
ENDBRANCH  21  22
ENDBRANCH   6  21
BRANCH   3  25
HETATM   25  C   UNL     1       7.197  32.268  60.684  1.00  0.00     0.256 C 
HETATM   26  O   UNL     1       6.154  32.757  60.266  1.00  0.00    -0.267 OA
HETATM   27  N   UNL     1       7.664  32.312  61.986  1.00  0.00    -0.323 N 
HETATM   28  H   UNL     1       8.624  32.029  62.140  1.00  0.00     0.169 HD
BRANCH  27  29
HETATM   29  C   UNL     1       6.963  32.771  63.123  1.00  0.00     0.037 A 
HETATM   30  C   UNL     1       5.576  32.783  63.226  1.00  0.00     0.049 A 
HETATM   31  C   UNL     1       5.004  33.230  64.407  1.00  0.00     0.118 A 
HETATM   32  N   UNL     1       5.713  33.657  65.474  1.00  0.00    -0.273 NA
HETATM   33  C   UNL     1       7.055  33.638  65.350  1.00  0.00     0.118 A 
HETATM   34  C   UNL     1       7.718  33.205  64.213  1.00  0.00     0.049 A 
ENDBRANCH  27  29
ENDBRANCH   3  25
TORSDOF 11
ENDMDL
MODEL 3
REMARK VINA RESULT:      -8.7      3.214     10.482
REMARK  11 active torsions:
REMARK  status: ('A' for Active; 'I' for Inactive)
REMARK    1  A    between atoms: O_2  and  C_3 
REMARK    2  A    between atoms: C_3  and  C_4 
REMARK    3  A    between atoms: C_4  and  C_5 
REMARK    4  A    between atoms: C_5  and  O_6 
REMARK    5  A    between atoms: O_6  and  C_7 
REMARK    6  A    between atoms: C_7  and  C_9 
REMARK    7  A    between atoms: C_13  and  C_15 
REMARK    8  A    between atoms: C_17  and  C_23 
REMARK    9  A    between atoms: C_20  and  C_21 
REMARK   10  A    between atoms: C_21  and  N_22 
REMARK       I    between atoms: C_23  and  N_25 
REMARK   11  A    between atoms: N_25  and  C_26 
ROOT
HETATM    1  C   UNL     1       8.561  29.555  57.950  1.00  0.00    -0.017 A 
HETATM    2  C   UNL     1       7.713  30.193  58.880  1.00  0.00     0.030 A 
HETATM    3  C   UNL     1       8.109  31.357  59.552  1.00  0.00     0.033 A 
HETATM    4  C   UNL     1       9.367  31.901  59.300  1.00  0.00     0.017 A 
HETATM    5  C   UNL     1      10.220  31.282  58.387  1.00  0.00     0.011 A 
HETATM    6  C   UNL     1       9.830  30.119  57.691  1.00  0.00    -0.020 A 
ENDROOT
BRANCH   1   7
HETATM    7  C   UNL     1       8.049  28.364  57.253  1.00  0.00    -0.024 A 
HETATM    8  C   UNL     1       7.782  27.168  57.935  1.00  0.00     0.012 A 
HETATM    9  C   UNL     1       7.285  26.052  57.257  1.00  0.00     0.002 A 
HETATM   10  C   UNL     1       7.032  26.122  55.886  1.00  0.00     0.017 A 
HETATM   11  C   UNL     1       7.274  27.309  55.186  1.00  0.00     0.040 A 
HETATM   12  C   UNL     1       7.788  28.419  55.874  1.00  0.00     0.030 A 
BRANCH  11  13
HETATM   13  C   UNL     1       6.992  27.352  53.725  1.00  0.00     0.293 C 
HETATM   14  O   UNL     1       6.983  28.378  53.066  1.00  0.00    -0.259 OA
BRANCH  13  15
HETATM   15  O   UNL     1       6.758  26.099  53.268  1.00  0.00    -0.317 OA
BRANCH  15  16
HETATM   16  C   UNL     1       7.723  25.545  52.360  1.00  0.00     0.181 C 
BRANCH  16  17
HETATM   17  C   UNL     1       8.078  24.115  52.755  1.00  0.00     0.053 C 
BRANCH  17  18
HETATM   18  C   UNL     1       6.891  23.398  53.385  1.00  0.00     0.169 C 
BRANCH  18  19
HETATM   19  O   UNL     1       7.275  22.848  54.641  1.00  0.00    -0.396 OA
HETATM   20  C   UNL     1       8.682  22.913  54.838  1.00  0.00     0.201 C 
ENDBRANCH  18  19
ENDBRANCH  17  18
ENDBRANCH  16  17
ENDBRANCH  15  16
ENDBRANCH  13  15
ENDBRANCH  11  13
ENDBRANCH   1   7
BRANCH   6  21
HETATM   21  C   UNL     1      10.789  29.567  56.657  1.00  0.00     0.306 C 
BRANCH  21  22
HETATM   22  N   UNL     1      12.164  29.583  57.144  1.00  0.00     0.082 N 
HETATM   23  H   UNL     1      12.178  29.970  58.086  1.00  0.00     0.313 HD
HETATM   24  H   UNL     1      12.496  28.624  57.224  1.00  0.00     0.313 HD
ENDBRANCH  21  22
ENDBRANCH   6  21
BRANCH   3  25
HETATM   25  C   UNL     1       7.183  32.076  60.471  1.00  0.00     0.256 C 
HETATM   26  O   UNL     1       5.982  32.044  60.229  1.00  0.00    -0.267 OA
HETATM   27  N   UNL     1       7.794  32.738  61.521  1.00  0.00    -0.323 N 
HETATM   28  H   UNL     1       8.802  32.828  61.483  1.00  0.00     0.169 HD
BRANCH  27  29
HETATM   29  C   UNL     1       7.157  33.361  62.616  1.00  0.00     0.037 A 
HETATM   30  C   UNL     1       6.192  34.355  62.489  1.00  0.00     0.049 A 
HETATM   31  C   UNL     1       5.616  34.870  63.640  1.00  0.00     0.118 A 
HETATM   32  N   UNL     1       5.933  34.464  64.889  1.00  0.00    -0.273 NA
HETATM   33  C   UNL     1       6.871  33.502  64.987  1.00  0.00     0.118 A 
HETATM   34  C   UNL     1       7.501  32.923  63.896  1.00  0.00     0.049 A 
ENDBRANCH  27  29
ENDBRANCH   3  25
TORSDOF 11
ENDMDL
MODEL 4
REMARK VINA RESULT:      -8.5      1.809      2.549
REMARK  11 active torsions:
REMARK  status: ('A' for Active; 'I' for Inactive)
REMARK    1  A    between atoms: O_2  and  C_3 
REMARK    2  A    between atoms: C_3  and  C_4 
REMARK    3  A    between atoms: C_4  and  C_5 
REMARK    4  A    between atoms: C_5  and  O_6 
REMARK    5  A    between atoms: O_6  and  C_7 
REMARK    6  A    between atoms: C_7  and  C_9 
REMARK    7  A    between atoms: C_13  and  C_15 
REMARK    8  A    between atoms: C_17  and  C_23 
REMARK    9  A    between atoms: C_20  and  C_21 
REMARK   10  A    between atoms: C_21  and  N_22 
REMARK       I    between atoms: C_23  and  N_25 
REMARK   11  A    between atoms: N_25  and  C_26 
ROOT
HETATM    1  C   UNL     1       7.718  28.135  56.835  1.00  0.00    -0.017 A 
HETATM    2  C   UNL     1       8.250  26.829  56.802  1.00  0.00     0.030 A 
HETATM    3  C   UNL     1       7.591  25.787  56.136  1.00  0.00     0.033 A 
HETATM    4  C   UNL     1       6.383  26.041  55.489  1.00  0.00     0.017 A 
HETATM    5  C   UNL     1       5.839  27.325  55.515  1.00  0.00     0.011 A 
HETATM    6  C   UNL     1       6.498  28.388  56.168  1.00  0.00    -0.020 A 
ENDROOT
BRANCH   1   7
HETATM    7  C   UNL     1       8.498  29.182  57.517  1.00  0.00    -0.024 A 
HETATM    8  C   UNL     1       9.706  29.662  56.991  1.00  0.00     0.012 A 
HETATM    9  C   UNL     1      10.424  30.665  57.648  1.00  0.00     0.002 A 
HETATM   10  C   UNL     1       9.934  31.214  58.834  1.00  0.00     0.017 A 
HETATM   11  C   UNL     1       8.722  30.764  59.369  1.00  0.00     0.040 A 
HETATM   12  C   UNL     1       8.016  29.746  58.710  1.00  0.00     0.030 A 
BRANCH  11  13
HETATM   13  C   UNL     1       8.225  31.371  60.634  1.00  0.00     0.293 C 
HETATM   14  O   UNL     1       8.373  30.866  61.733  1.00  0.00    -0.259 OA
BRANCH  13  15
HETATM   15  O   UNL     1       7.604  32.544  60.363  1.00  0.00    -0.317 OA
BRANCH  15  16
HETATM   16  C   UNL     1       6.252  32.688  60.825  1.00  0.00     0.181 C 
BRANCH  16  17
HETATM   17  C   UNL     1       5.263  32.259  59.746  1.00  0.00     0.053 C 
BRANCH  17  18
HETATM   18  C   UNL     1       5.728  32.685  58.360  1.00  0.00     0.169 C 
BRANCH  18  19
HETATM   19  O   UNL     1       5.097  33.910  57.999  1.00  0.00    -0.396 OA
HETATM   20  C   UNL     1       3.727  33.929  58.376  1.00  0.00     0.201 C 
ENDBRANCH  18  19
ENDBRANCH  17  18
ENDBRANCH  16  17
ENDBRANCH  15  16
ENDBRANCH  13  15
ENDBRANCH  11  13
ENDBRANCH   1   7
BRANCH   6  21
HETATM   21  C   UNL     1       5.875  29.764  56.070  1.00  0.00     0.306 C 
BRANCH  21  22
HETATM   22  N   UNL     1       5.271  29.983  54.761  1.00  0.00     0.082 N 
HETATM   23  H   UNL     1       5.677  29.330  54.094  1.00  0.00     0.313 HD
HETATM   24  H   UNL     1       4.279  29.758  54.814  1.00  0.00     0.313 HD
ENDBRANCH  21  22
ENDBRANCH   6  21
BRANCH   3  25
HETATM   25  C   UNL     1       8.194  24.429  56.031  1.00  0.00     0.256 C 
HETATM   26  O   UNL     1       8.969  24.067  56.908  1.00  0.00    -0.267 OA
HETATM   27  N   UNL     1       7.820  23.706  54.911  1.00  0.00    -0.323 N 
HETATM   28  H   UNL     1       7.323  24.207  54.186  1.00  0.00     0.169 HD
BRANCH  27  29
HETATM   29  C   UNL     1       8.112  22.351  54.641  1.00  0.00     0.037 A 
HETATM   30  C   UNL     1       8.423  21.862  53.376  1.00  0.00     0.049 A 
HETATM   31  C   UNL     1       8.722  20.516  53.243  1.00  0.00     0.118 A 
HETATM   32  N   UNL     1       8.730  19.638  54.270  1.00  0.00    -0.273 NA
HETATM   33  C   UNL     1       8.424  20.135  55.485  1.00  0.00     0.118 A 
HETATM   34  C   UNL     1       8.116  21.466  55.720  1.00  0.00     0.049 A 
ENDBRANCH  27  29
ENDBRANCH   3  25
TORSDOF 11
ENDMDL
MODEL 5
REMARK VINA RESULT:      -8.2      4.318      5.773
REMARK  11 active torsions:
REMARK  status: ('A' for Active; 'I' for Inactive)
REMARK    1  A    between atoms: O_2  and  C_3 
REMARK    2  A    between atoms: C_3  and  C_4 
REMARK    3  A    between atoms: C_4  and  C_5 
REMARK    4  A    between atoms: C_5  and  O_6 
REMARK    5  A    between atoms: O_6  and  C_7 
REMARK    6  A    between atoms: C_7  and  C_9 
REMARK    7  A    between atoms: C_13  and  C_15 
REMARK    8  A    between atoms: C_17  and  C_23 
REMARK    9  A    between atoms: C_20  and  C_21 
REMARK   10  A    between atoms: C_21  and  N_22 
REMARK       I    between atoms: C_23  and  N_25 
REMARK   11  A    between atoms: N_25  and  C_26 
ROOT
HETATM    1  C   UNL     1       6.935  26.251  55.087  1.00  0.00    -0.017 A 
HETATM    2  C   UNL     1       6.192  26.366  53.893  1.00  0.00     0.030 A 
HETATM    3  C   UNL     1       6.108  25.307  52.979  1.00  0.00     0.033 A 
HETATM    4  C   UNL     1       6.772  24.112  53.250  1.00  0.00     0.017 A 
HETATM    5  C   UNL     1       7.516  23.983  54.422  1.00  0.00     0.011 A 
HETATM    6  C   UNL     1       7.597  25.033  55.360  1.00  0.00    -0.020 A 
ENDROOT
BRANCH   1   7
HETATM    7  C   UNL     1       6.933  27.394  56.015  1.00  0.00    -0.024 A 
HETATM    8  C   UNL     1       5.757  27.833  56.641  1.00  0.00     0.012 A 
HETATM    9  C   UNL     1       5.779  28.913  57.529  1.00  0.00     0.002 A 
HETATM   10  C   UNL     1       6.982  29.559  57.815  1.00  0.00     0.017 A 
HETATM   11  C   UNL     1       8.171  29.128  57.217  1.00  0.00     0.040 A 
HETATM   12  C   UNL     1       8.136  28.053  56.316  1.00  0.00     0.030 A 
BRANCH  11  13
HETATM   13  C   UNL     1       9.439  29.836  57.545  1.00  0.00     0.293 C 
HETATM   14  O   UNL     1      10.362  29.974  56.760  1.00  0.00    -0.259 OA
BRANCH  13  15
HETATM   15  O   UNL     1       9.391  30.290  58.820  1.00  0.00    -0.317 OA
BRANCH  15  16
HETATM   16  C   UNL     1       9.719  31.672  59.034  1.00  0.00     0.181 C 
BRANCH  16  17
HETATM   17  C   UNL     1       9.631  32.026  60.515  1.00  0.00     0.053 C 
BRANCH  17  18
HETATM   18  C   UNL     1       9.268  30.811  61.360  1.00  0.00     0.169 C 
BRANCH  18  19
HETATM   19  O   UNL     1       8.585  31.232  62.536  1.00  0.00    -0.396 OA
HETATM   20  C   UNL     1       7.188  31.372  62.314  1.00  0.00     0.201 C 
ENDBRANCH  18  19
ENDBRANCH  17  18
ENDBRANCH  16  17
ENDBRANCH  15  16
ENDBRANCH  13  15
ENDBRANCH  11  13
ENDBRANCH   1   7
BRANCH   6  21
HETATM   21  C   UNL     1       8.357  24.770  56.643  1.00  0.00     0.306 C 
BRANCH  21  22
HETATM   22  N   UNL     1       7.967  23.499  57.241  1.00  0.00     0.082 N 
HETATM   23  H   UNL     1       7.522  22.920  56.532  1.00  0.00     0.313 HD
HETATM   24  H   UNL     1       8.807  23.000  57.531  1.00  0.00     0.313 HD
ENDBRANCH  21  22
ENDBRANCH   6  21
BRANCH   3  25
HETATM   25  C   UNL     1       5.256  25.399  51.761  1.00  0.00     0.256 C 
HETATM   26  O   UNL     1       4.484  24.478  51.520  1.00  0.00    -0.267 OA
HETATM   27  N   UNL     1       5.443  26.539  50.998  1.00  0.00    -0.323 N 
HETATM   28  H   UNL     1       6.244  27.116  51.224  1.00  0.00     0.169 HD
BRANCH  27  29
HETATM   29  C   UNL     1       4.670  26.955  49.893  1.00  0.00     0.037 A 
HETATM   30  C   UNL     1       4.656  26.299  48.666  1.00  0.00     0.049 A 
HETATM   31  C   UNL     1       3.831  26.787  47.665  1.00  0.00     0.118 A 
HETATM   32  N   UNL     1       3.033  27.868  47.803  1.00  0.00    -0.273 NA
HETATM   33  C   UNL     1       3.066  28.488  48.999  1.00  0.00     0.118 A 
HETATM   34  C   UNL     1       3.853  28.074  50.062  1.00  0.00     0.049 A 
ENDBRANCH  27  29
ENDBRANCH   3  25
TORSDOF 11
ENDMDL
MODEL 6
REMARK VINA RESULT:      -8.2      3.003     10.278
REMARK  11 active torsions:
REMARK  status: ('A' for Active; 'I' for Inactive)
REMARK    1  A    between atoms: O_2  and  C_3 
REMARK    2  A    between atoms: C_3  and  C_4 
REMARK    3  A    between atoms: C_4  and  C_5 
REMARK    4  A    between atoms: C_5  and  O_6 
REMARK    5  A    between atoms: O_6  and  C_7 
REMARK    6  A    between atoms: C_7  and  C_9 
REMARK    7  A    between atoms: C_13  and  C_15 
REMARK    8  A    between atoms: C_17  and  C_23 
REMARK    9  A    between atoms: C_20  and  C_21 
REMARK   10  A    between atoms: C_21  and  N_22 
REMARK       I    between atoms: C_23  and  N_25 
REMARK   11  A    between atoms: N_25  and  C_26 
ROOT
HETATM    1  C   UNL     1       6.693  28.798  56.775  1.00  0.00    -0.017 A 
HETATM    2  C   UNL     1       7.262  29.546  57.828  1.00  0.00     0.030 A 
HETATM    3  C   UNL     1       6.852  30.859  58.096  1.00  0.00     0.033 A 
HETATM    4  C   UNL     1       5.862  31.444  57.309  1.00  0.00     0.017 A 
HETATM    5  C   UNL     1       5.292  30.722  56.261  1.00  0.00     0.011 A 
HETATM    6  C   UNL     1       5.682  29.394  55.988  1.00  0.00    -0.020 A 
ENDROOT
BRANCH   1   7
HETATM    7  C   UNL     1       7.147  27.410  56.591  1.00  0.00    -0.024 A 
HETATM    8  C   UNL     1       7.490  26.595  57.679  1.00  0.00     0.012 A 
HETATM    9  C   UNL     1       7.906  25.275  57.483  1.00  0.00     0.002 A 
HETATM   10  C   UNL     1       7.970  24.746  56.193  1.00  0.00     0.017 A 
HETATM   11  C   UNL     1       7.617  25.534  55.092  1.00  0.00     0.040 A 
HETATM   12  C   UNL     1       7.214  26.862  55.299  1.00  0.00     0.030 A 
BRANCH  11  13
HETATM   13  C   UNL     1       7.693  24.940  53.729  1.00  0.00     0.293 C 
HETATM   14  O   UNL     1       8.073  25.549  52.744  1.00  0.00    -0.259 OA
BRANCH  13  15
HETATM   15  O   UNL     1       7.284  23.649  53.771  1.00  0.00    -0.317 OA
BRANCH  15  16
HETATM   16  C   UNL     1       8.053  22.698  53.017  1.00  0.00     0.181 C 
BRANCH  16  17
HETATM   17  C   UNL     1       7.682  21.271  53.410  1.00  0.00     0.053 C 
BRANCH  17  18
HETATM   18  C   UNL     1       8.895  20.497  53.912  1.00  0.00     0.169 C 
BRANCH  18  19
HETATM   19  O   UNL     1       9.045  20.700  55.314  1.00  0.00    -0.396 OA
HETATM   20  C   UNL     1       7.812  20.545  56.005  1.00  0.00     0.201 C 
ENDBRANCH  18  19
ENDBRANCH  17  18
ENDBRANCH  16  17
ENDBRANCH  15  16
ENDBRANCH  13  15
ENDBRANCH  11  13
ENDBRANCH   1   7
BRANCH   6  21
HETATM   21  C   UNL     1       4.948  28.661  54.885  1.00  0.00     0.306 C 
BRANCH  21  22
HETATM   22  N   UNL     1       5.147  29.307  53.593  1.00  0.00     0.082 N 
HETATM   23  H   UNL     1       4.717  30.229  53.614  1.00  0.00     0.313 HD
HETATM   24  H   UNL     1       6.143  29.459  53.450  1.00  0.00     0.313 HD
ENDBRANCH  21  22
ENDBRANCH   6  21
BRANCH   3  25
HETATM   25  C   UNL     1       7.392  31.618  59.259  1.00  0.00     0.256 C 
HETATM   26  O   UNL     1       8.463  32.198  59.129  1.00  0.00    -0.267 OA
HETATM   27  N   UNL     1       6.614  31.571  60.403  1.00  0.00    -0.323 N 
HETATM   28  H   UNL     1       5.854  30.902  60.415  1.00  0.00     0.169 HD
BRANCH  27  29
HETATM   29  C   UNL     1       6.802  32.316  61.587  1.00  0.00     0.037 A 
HETATM   30  C   UNL     1       6.077  33.458  61.908  1.00  0.00     0.049 A 
HETATM   31  C   UNL     1       6.333  34.087  63.117  1.00  0.00     0.118 A 
HETATM   32  N   UNL     1       7.250  33.658  64.011  1.00  0.00    -0.273 NA
HETATM   33  C   UNL     1       7.941  32.551  63.677  1.00  0.00     0.118 A 
HETATM   34  C   UNL     1       7.754  31.851  62.496  1.00  0.00     0.049 A 
ENDBRANCH  27  29
ENDBRANCH   3  25
TORSDOF 11
ENDMDL
MODEL 7
REMARK VINA RESULT:      -8.1      2.938     10.196
REMARK  11 active torsions:
REMARK  status: ('A' for Active; 'I' for Inactive)
REMARK    1  A    between atoms: O_2  and  C_3 
REMARK    2  A    between atoms: C_3  and  C_4 
REMARK    3  A    between atoms: C_4  and  C_5 
REMARK    4  A    between atoms: C_5  and  O_6 
REMARK    5  A    between atoms: O_6  and  C_7 
REMARK    6  A    between atoms: C_7  and  C_9 
REMARK    7  A    between atoms: C_13  and  C_15 
REMARK    8  A    between atoms: C_17  and  C_23 
REMARK    9  A    between atoms: C_20  and  C_21 
REMARK   10  A    between atoms: C_21  and  N_22 
REMARK       I    between atoms: C_23  and  N_25 
REMARK   11  A    between atoms: N_25  and  C_26 
ROOT
HETATM    1  C   UNL     1       8.343  29.900  58.003  1.00  0.00    -0.017 A 
HETATM    2  C   UNL     1       7.712  30.416  59.155  1.00  0.00     0.030 A 
HETATM    3  C   UNL     1       8.348  31.354  59.978  1.00  0.00     0.033 A 
HETATM    4  C   UNL     1       9.632  31.792  59.658  1.00  0.00     0.017 A 
HETATM    5  C   UNL     1      10.273  31.289  58.525  1.00  0.00     0.011 A 
HETATM    6  C   UNL     1       9.640  30.356  57.678  1.00  0.00    -0.020 A 
ENDROOT
BRANCH   1   7
HETATM    7  C   UNL     1       7.587  28.954  57.166  1.00  0.00    -0.024 A 
HETATM    8  C   UNL     1       6.521  29.373  56.357  1.00  0.00     0.012 A 
HETATM    9  C   UNL     1       5.824  28.460  55.561  1.00  0.00     0.002 A 
HETATM   10  C   UNL     1       6.195  27.114  55.551  1.00  0.00     0.017 A 
HETATM   11  C   UNL     1       7.266  26.675  56.337  1.00  0.00     0.040 A 
HETATM   12  C   UNL     1       7.949  27.597  57.144  1.00  0.00     0.030 A 
BRANCH  11  13
HETATM   13  C   UNL     1       7.638  25.234  56.303  1.00  0.00     0.293 C 
HETATM   14  O   UNL     1       7.605  24.501  57.277  1.00  0.00    -0.259 OA
BRANCH  13  15
HETATM   15  O   UNL     1       8.004  24.887  55.046  1.00  0.00    -0.317 OA
BRANCH  15  16
HETATM   16  C   UNL     1       7.512  23.633  54.546  1.00  0.00     0.181 C 
BRANCH  16  17
HETATM   17  C   UNL     1       7.031  23.776  53.106  1.00  0.00     0.053 C 
BRANCH  17  18
HETATM   18  C   UNL     1       7.778  24.885  52.375  1.00  0.00     0.169 C 
BRANCH  18  19
HETATM   19  O   UNL     1       6.868  25.924  52.025  1.00  0.00    -0.396 OA
HETATM   20  C   UNL     1       5.540  25.438  51.886  1.00  0.00     0.201 C 
ENDBRANCH  18  19
ENDBRANCH  17  18
ENDBRANCH  16  17
ENDBRANCH  15  16
ENDBRANCH  13  15
ENDBRANCH  11  13
ENDBRANCH   1   7
BRANCH   6  21
HETATM   21  C   UNL     1      10.380  29.933  56.426  1.00  0.00     0.306 C 
BRANCH  21  22
HETATM   22  N   UNL     1      11.613  29.225  56.751  1.00  0.00     0.082 N 
HETATM   23  H   UNL     1      11.413  28.230  56.832  1.00  0.00     0.313 HD
HETATM   24  H   UNL     1      12.263  29.323  55.974  1.00  0.00     0.313 HD
ENDBRANCH  21  22
ENDBRANCH   6  21
BRANCH   3  25
HETATM   25  C   UNL     1       7.650  31.961  61.147  1.00  0.00     0.256 C 
HETATM   26  O   UNL     1       8.321  32.560  61.979  1.00  0.00    -0.267 OA
HETATM   27  N   UNL     1       6.281  31.762  61.180  1.00  0.00    -0.323 N 
HETATM   28  H   UNL     1       5.898  31.092  60.525  1.00  0.00     0.169 HD
BRANCH  27  29
HETATM   29  C   UNL     1       5.361  32.349  62.076  1.00  0.00     0.037 A 
HETATM   30  C   UNL     1       5.608  32.530  63.433  1.00  0.00     0.049 A 
HETATM   31  C   UNL     1       4.637  33.147  64.205  1.00  0.00     0.118 A 
HETATM   32  N   UNL     1       3.456  33.590  63.721  1.00  0.00    -0.273 NA
HETATM   33  C   UNL     1       3.239  33.403  62.405  1.00  0.00     0.118 A 
HETATM   34  C   UNL     1       4.150  32.800  61.551  1.00  0.00     0.049 A 
ENDBRANCH  27  29
ENDBRANCH   3  25
TORSDOF 11
ENDMDL
MODEL 8
REMARK VINA RESULT:      -8.1      5.256      8.605
REMARK  11 active torsions:
REMARK  status: ('A' for Active; 'I' for Inactive)
REMARK    1  A    between atoms: O_2  and  C_3 
REMARK    2  A    between atoms: C_3  and  C_4 
REMARK    3  A    between atoms: C_4  and  C_5 
REMARK    4  A    between atoms: C_5  and  O_6 
REMARK    5  A    between atoms: O_6  and  C_7 
REMARK    6  A    between atoms: C_7  and  C_9 
REMARK    7  A    between atoms: C_13  and  C_15 
REMARK    8  A    between atoms: C_17  and  C_23 
REMARK    9  A    between atoms: C_20  and  C_21 
REMARK   10  A    between atoms: C_21  and  N_22 
REMARK       I    between atoms: C_23  and  N_25 
REMARK   11  A    between atoms: N_25  and  C_26 
ROOT
HETATM    1  C   UNL     1       6.067  27.528  54.936  1.00  0.00    -0.017 A 
HETATM    2  C   UNL     1       6.756  26.304  54.794  1.00  0.00     0.030 A 
HETATM    3  C   UNL     1       7.529  25.776  55.836  1.00  0.00     0.033 A 
HETATM    4  C   UNL     1       7.625  26.469  57.041  1.00  0.00     0.017 A 
HETATM    5  C   UNL     1       6.956  27.683  57.197  1.00  0.00     0.011 A 
HETATM    6  C   UNL     1       6.160  28.220  56.164  1.00  0.00    -0.020 A 
ENDROOT
BRANCH   1   7
HETATM    7  C   UNL     1       5.239  27.989  53.809  1.00  0.00    -0.024 A 
HETATM    8  C   UNL     1       3.853  28.158  53.934  1.00  0.00     0.012 A 
HETATM    9  C   UNL     1       3.087  28.609  52.855  1.00  0.00     0.002 A 
HETATM   10  C   UNL     1       3.701  28.913  51.639  1.00  0.00     0.017 A 
HETATM   11  C   UNL     1       5.085  28.768  51.496  1.00  0.00     0.040 A 
HETATM   12  C   UNL     1       5.843  28.301  52.580  1.00  0.00     0.030 A 
BRANCH  11  13
HETATM   13  C   UNL     1       5.710  29.103  50.187  1.00  0.00     0.293 C 
HETATM   14  O   UNL     1       6.279  30.157  49.957  1.00  0.00    -0.259 OA
BRANCH  13  15
HETATM   15  O   UNL     1       5.549  28.070  49.326  1.00  0.00    -0.317 OA
BRANCH  15  16
HETATM   16  C   UNL     1       5.306  28.400  47.950  1.00  0.00     0.181 C 
BRANCH  16  17
HETATM   17  C   UNL     1       3.854  28.818  47.742  1.00  0.00     0.053 C 
BRANCH  17  18
HETATM   18  C   UNL     1       3.006  27.658  47.236  1.00  0.00     0.169 C 
BRANCH  18  19
HETATM   19  O   UNL     1       3.819  26.498  47.089  1.00  0.00    -0.396 OA
HETATM   20  C   UNL     1       3.219  25.353  47.681  1.00  0.00     0.201 C 
ENDBRANCH  18  19
ENDBRANCH  17  18
ENDBRANCH  16  17
ENDBRANCH  15  16
ENDBRANCH  13  15
ENDBRANCH  11  13
ENDBRANCH   1   7
BRANCH   6  21
HETATM   21  C   UNL     1       5.404  29.499  56.455  1.00  0.00     0.306 C 
BRANCH  21  22
HETATM   22  N   UNL     1       6.081  30.659  55.888  1.00  0.00     0.082 N 
HETATM   23  H   UNL     1       5.678  31.505  56.286  1.00  0.00     0.313 HD
HETATM   24  H   UNL     1       7.057  30.645  56.176  1.00  0.00     0.313 HD
ENDBRANCH  21  22
ENDBRANCH   6  21
BRANCH   3  25
HETATM   25  C   UNL     1       8.187  24.444  55.716  1.00  0.00     0.256 C 
HETATM   26  O   UNL     1       9.086  24.166  56.501  1.00  0.00    -0.267 OA
HETATM   27  N   UNL     1       7.713  23.646  54.688  1.00  0.00    -0.323 N 
HETATM   28  H   UNL     1       7.101  24.085  54.012  1.00  0.00     0.169 HD
BRANCH  27  29
HETATM   29  C   UNL     1       8.042  22.295  54.445  1.00  0.00     0.037 A 
HETATM   30  C   UNL     1       8.372  21.791  53.191  1.00  0.00     0.049 A 
HETATM   31  C   UNL     1       8.705  20.450  53.083  1.00  0.00     0.118 A 
HETATM   32  N   UNL     1       8.731  19.593  54.127  1.00  0.00    -0.273 NA
HETATM   33  C   UNL     1       8.406  20.103  55.331  1.00  0.00     0.118 A 
HETATM   34  C   UNL     1       8.063  21.430  55.539  1.00  0.00     0.049 A 
ENDBRANCH  27  29
ENDBRANCH   3  25
TORSDOF 11
ENDMDL
MODEL 9
REMARK VINA RESULT:      -8.1      5.747     10.275
REMARK  11 active torsions:
REMARK  status: ('A' for Active; 'I' for Inactive)
REMARK    1  A    between atoms: O_2  and  C_3 
REMARK    2  A    between atoms: C_3  and  C_4 
REMARK    3  A    between atoms: C_4  and  C_5 
REMARK    4  A    between atoms: C_5  and  O_6 
REMARK    5  A    between atoms: O_6  and  C_7 
REMARK    6  A    between atoms: C_7  and  C_9 
REMARK    7  A    between atoms: C_13  and  C_15 
REMARK    8  A    between atoms: C_17  and  C_23 
REMARK    9  A    between atoms: C_20  and  C_21 
REMARK   10  A    between atoms: C_21  and  N_22 
REMARK       I    between atoms: C_23  and  N_25 
REMARK   11  A    between atoms: N_25  and  C_26 
ROOT
HETATM    1  C   UNL     1       5.668  27.263  54.137  1.00  0.00    -0.017 A 
HETATM    2  C   UNL     1       6.158  27.990  55.244  1.00  0.00     0.030 A 
HETATM    3  C   UNL     1       6.860  27.360  56.279  1.00  0.00     0.033 A 
HETATM    4  C   UNL     1       7.084  25.986  56.221  1.00  0.00     0.017 A 
HETATM    5  C   UNL     1       6.603  25.250  55.138  1.00  0.00     0.011 A 
HETATM    6  C   UNL     1       5.908  25.872  54.080  1.00  0.00    -0.020 A 
ENDROOT
BRANCH   1   7
HETATM    7  C   UNL     1       4.981  28.009  53.070  1.00  0.00    -0.024 A 
HETATM    8  C   UNL     1       3.608  28.289  53.132  1.00  0.00     0.012 A 
HETATM    9  C   UNL     1       2.978  29.010  52.114  1.00  0.00     0.002 A 
HETATM   10  C   UNL     1       3.717  29.475  51.025  1.00  0.00     0.017 A 
HETATM   11  C   UNL     1       5.091  29.223  50.950  1.00  0.00     0.040 A 
HETATM   12  C   UNL     1       5.712  28.486  51.969  1.00  0.00     0.030 A 
BRANCH  11  13
HETATM   13  C   UNL     1       5.852  29.736  49.777  1.00  0.00     0.293 C 
HETATM   14  O   UNL     1       6.199  30.898  49.649  1.00  0.00    -0.259 OA
BRANCH  13  15
HETATM   15  O   UNL     1       6.088  28.724  48.908  1.00  0.00    -0.317 OA
BRANCH  15  16
HETATM   16  C   UNL     1       5.134  28.537  47.851  1.00  0.00     0.181 C 
BRANCH  16  17
HETATM   17  C   UNL     1       4.703  27.076  47.764  1.00  0.00     0.053 C 
BRANCH  17  18
HETATM   18  C   UNL     1       3.249  26.948  47.328  1.00  0.00     0.169 C 
BRANCH  18  19
HETATM   19  O   UNL     1       2.392  27.332  48.400  1.00  0.00    -0.396 OA
HETATM   20  C   UNL     1       1.023  27.304  48.017  1.00  0.00     0.201 C 
ENDBRANCH  18  19
ENDBRANCH  17  18
ENDBRANCH  16  17
ENDBRANCH  15  16
ENDBRANCH  13  15
ENDBRANCH  11  13
ENDBRANCH   1   7
BRANCH   6  21
HETATM   21  C   UNL     1       5.499  25.007  52.907  1.00  0.00     0.306 C 
BRANCH  21  22
HETATM   22  N   UNL     1       4.068  24.726  52.925  1.00  0.00     0.082 N 
HETATM   23  H   UNL     1       3.762  24.499  51.981  1.00  0.00     0.313 HD
HETATM   24  H   UNL     1       3.903  23.893  53.487  1.00  0.00     0.313 HD
ENDBRANCH  21  22
ENDBRANCH   6  21
BRANCH   3  25
HETATM   25  C   UNL     1       7.449  28.140  57.404  1.00  0.00     0.256 C 
HETATM   26  O   UNL     1       7.894  27.527  58.367  1.00  0.00    -0.267 OA
HETATM   27  N   UNL     1       7.414  29.515  57.246  1.00  0.00    -0.323 N 
HETATM   28  H   UNL     1       6.850  29.876  56.486  1.00  0.00     0.169 HD
BRANCH  27  29
HETATM   29  C   UNL     1       8.033  30.479  58.072  1.00  0.00     0.037 A 
HETATM   30  C   UNL     1       9.401  30.733  58.075  1.00  0.00     0.049 A 
HETATM   31  C   UNL     1       9.887  31.726  58.911  1.00  0.00     0.118 A 
HETATM   32  N   UNL     1       9.112  32.471  59.729  1.00  0.00    -0.273 NA
HETATM   33  C   UNL     1       7.791  32.205  59.709  1.00  0.00     0.118 A 
HETATM   34  C   UNL     1       7.210  31.236  58.906  1.00  0.00     0.049 A 
ENDBRANCH  27  29
ENDBRANCH   3  25
TORSDOF 11
ENDMDL
MODEL 10
REMARK VINA RESULT:      -8.0      3.930      4.928
REMARK  11 active torsions:
REMARK  status: ('A' for Active; 'I' for Inactive)
REMARK    1  A    between atoms: O_2  and  C_3 
REMARK    2  A    between atoms: C_3  and  C_4 
REMARK    3  A    between atoms: C_4  and  C_5 
REMARK    4  A    between atoms: C_5  and  O_6 
REMARK    5  A    between atoms: O_6  and  C_7 
REMARK    6  A    between atoms: C_7  and  C_9 
REMARK    7  A    between atoms: C_13  and  C_15 
REMARK    8  A    between atoms: C_17  and  C_23 
REMARK    9  A    between atoms: C_20  and  C_21 
REMARK   10  A    between atoms: C_21  and  N_22 
REMARK       I    between atoms: C_23  and  N_25 
REMARK   11  A    between atoms: N_25  and  C_26 
ROOT
HETATM    1  C   UNL     1       7.476  27.475  56.157  1.00  0.00    -0.017 A 
HETATM    2  C   UNL     1       6.784  27.840  54.982  1.00  0.00     0.030 A 
HETATM    3  C   UNL     1       5.994  26.919  54.282  1.00  0.00     0.033 A 
HETATM    4  C   UNL     1       5.885  25.611  54.752  1.00  0.00     0.017 A 
HETATM    5  C   UNL     1       6.565  25.231  55.908  1.00  0.00     0.011 A 
HETATM    6  C   UNL     1       7.351  26.150  56.633  1.00  0.00    -0.020 A 
ENDROOT
BRANCH   1   7
HETATM    7  C   UNL     1       8.246  28.516  56.857  1.00  0.00    -0.024 A 
HETATM    8  C   UNL     1       9.625  28.672  56.659  1.00  0.00     0.012 A 
HETATM    9  C   UNL     1      10.335  29.676  57.324  1.00  0.00     0.002 A 
HETATM   10  C   UNL     1       9.671  30.549  58.187  1.00  0.00     0.017 A 
HETATM   11  C   UNL     1       8.292  30.424  58.388  1.00  0.00     0.040 A 
HETATM   12  C   UNL     1       7.591  29.404  57.727  1.00  0.00     0.030 A 
BRANCH  11  13
HETATM   13  C   UNL     1       7.612  31.372  59.312  1.00  0.00     0.293 C 
HETATM   14  O   UNL     1       6.767  32.177  58.957  1.00  0.00    -0.259 OA
BRANCH  13  15
HETATM   15  O   UNL     1       8.072  31.191  60.573  1.00  0.00    -0.317 OA
BRANCH  15  16
HETATM   16  C   UNL     1       7.227  31.635  61.646  1.00  0.00     0.181 C 
BRANCH  16  17
HETATM   17  C   UNL     1       7.981  31.616  62.971  1.00  0.00     0.053 C 
BRANCH  17  18
HETATM   18  C   UNL     1       7.966  32.984  63.642  1.00  0.00     0.169 C 
BRANCH  18  19
HETATM   19  O   UNL     1       7.331  32.886  64.914  1.00  0.00    -0.396 OA
HETATM   20  C   UNL     1       6.156  33.682  64.981  1.00  0.00     0.201 C 
ENDBRANCH  18  19
ENDBRANCH  17  18
ENDBRANCH  16  17
ENDBRANCH  15  16
ENDBRANCH  13  15
ENDBRANCH  11  13
ENDBRANCH   1   7
BRANCH   6  21
HETATM   21  C   UNL     1       7.982  25.669  57.922  1.00  0.00     0.306 C 
BRANCH  21  22
HETATM   22  N   UNL     1       8.464  24.298  57.800  1.00  0.00     0.082 N 
HETATM   23  H   UNL     1       8.243  23.791  58.654  1.00  0.00     0.313 HD
HETATM   24  H   UNL     1       7.952  23.834  57.052  1.00  0.00     0.313 HD
ENDBRANCH  21  22
ENDBRANCH   6  21
BRANCH   3  25
HETATM   25  C   UNL     1       5.199  27.326  53.090  1.00  0.00     0.256 C 
HETATM   26  O   UNL     1       4.177  27.979  53.268  1.00  0.00    -0.267 OA
HETATM   27  N   UNL     1       5.702  26.897  51.874  1.00  0.00    -0.323 N 
HETATM   28  H   UNL     1       6.447  26.213  51.901  1.00  0.00     0.169 HD
BRANCH  27  29
HETATM   29  C   UNL     1       5.244  27.266  50.590  1.00  0.00     0.037 A 
HETATM   30  C   UNL     1       4.620  26.389  49.708  1.00  0.00     0.049 A 
HETATM   31  C   UNL     1       4.188  26.877  48.486  1.00  0.00     0.118 A 
HETATM   32  N   UNL     1       4.332  28.161  48.091  1.00  0.00    -0.273 NA
HETATM   33  C   UNL     1       4.941  28.990  48.961  1.00  0.00     0.118 A 
HETATM   34  C   UNL     1       5.404  28.598  50.207  1.00  0.00     0.049 A 
ENDBRANCH  27  29
ENDBRANCH   3  25
TORSDOF 11
ENDMDL
