MODEL 1
REMARK VINA RESULT:     -10.4      0.000      0.000
REMARK  3 active torsions:
REMARK  status: ('A' for Active; 'I' for Inactive)
REMARK    1  A    between atoms: C_3  and  C_4 
REMARK       I    between atoms: C_4  and  N_5 
REMARK    2  A    between atoms: N_5  and  N_6 
REMARK       I    between atoms: N_6  and  C_7 
REMARK    3  A    between atoms: C_7  and  C_8 
ROOT
HETATM    1  N   UNL     1       7.376  27.257  57.378  1.00  0.00    -0.263 N 
HETATM    2  C   UNL     1       7.068  28.445  56.754  1.00  0.00     0.272 C 
HETATM    3  O   UNL     1       7.027  28.530  55.525  1.00  0.00    -0.266 OA
HETATM    4  H   UNL     1       7.423  27.140  58.389  1.00  0.00     0.190 HD
ENDROOT
BRANCH   1   5
HETATM    5  N   UNL     1       7.650  26.128  56.600  1.00  0.00    -0.261 N 
HETATM    6  C   UNL     1       6.724  25.104  56.532  1.00  0.00     0.294 C 
HETATM    7  O   UNL     1       5.656  25.163  57.142  1.00  0.00    -0.264 OA
HETATM    8  H   UNL     1       8.537  26.092  56.101  1.00  0.00     0.190 HD
BRANCH   6   9
HETATM    9  C   UNL     1       7.130  23.991  55.696  1.00  0.00     0.152 A 
HETATM   10  C   UNL     1       7.091  23.799  54.318  1.00  0.00    -0.009 A 
HETATM   11  C   UNL     1       6.595  24.733  53.274  1.00  0.00     0.052 C 
HETATM   12  C   UNL     1       7.637  22.498  54.084  1.00  0.00     0.007 A 
HETATM   13  C   UNL     1       7.967  21.987  55.331  1.00  0.00     0.087 A 
HETATM   14  C   UNL     1       7.886  21.704  52.950  1.00  0.00     0.015 A 
HETATM   15  O   UNL     1       7.661  22.883  56.304  1.00  0.00    -0.304 OA
HETATM   16  C   UNL     1       8.532  20.730  55.540  1.00  0.00     0.038 A 
HETATM   17  C   UNL     1       8.772  19.956  54.399  1.00  0.00     0.003 A 
HETATM   18  C   UNL     1       8.454  20.434  53.124  1.00  0.00     0.001 A 
ENDBRANCH   6   9
ENDBRANCH   1   5
BRANCH   2  19
HETATM   19  C   UNL     1       6.791  29.594  57.620  1.00  0.00     0.064 A 
HETATM   20  C   UNL     1       7.650  30.434  58.417  1.00  0.00     0.046 A 
HETATM   21  C   UNL     1       6.840  31.387  59.048  1.00  0.00     0.046 A 
HETATM   22  C   UNL     1       9.035  30.502  58.686  1.00  0.00     0.130 A 
HETATM   23  C   UNL     1       7.344  32.374  59.907  1.00  0.00     0.030 A 
HETATM   24  N   UNL     1       5.545  31.146  58.657  1.00  0.00    -0.364 N 
HETATM   25  C   UNL     1       8.721  32.402  60.142  1.00  0.00     0.005 A 
HETATM   26  C   UNL     1       9.562  31.474  59.537  1.00  0.00     0.043 A 
HETATM   27  H   UNL     1       4.742  31.683  58.958  1.00  0.00     0.165 HD
HETATM   28  C   UNL     1       5.504  30.080  57.806  1.00  0.00     0.106 A 
HETATM   29  F   UNL     1       9.882  29.629  58.124  1.00  0.00    -0.205 F 
ENDBRANCH   2  19
TORSDOF 3
ENDMDL
MODEL 2
REMARK VINA RESULT:     -10.4      2.109      9.096
REMARK  3 active torsions:
REMARK  status: ('A' for Active; 'I' for Inactive)
REMARK    1  A    between atoms: C_3  and  C_4 
REMARK       I    between atoms: C_4  and  N_5 
REMARK    2  A    between atoms: N_5  and  N_6 
REMARK       I    between atoms: N_6  and  C_7 
REMARK    3  A    between atoms: C_7  and  C_8 
ROOT
HETATM    1  N   UNL     1       7.746  26.566  56.296  1.00  0.00    -0.263 N 
HETATM    2  C   UNL     1       7.042  25.394  56.452  1.00  0.00     0.272 C 
HETATM    3  O   UNL     1       6.348  25.192  57.450  1.00  0.00    -0.266 OA
HETATM    4  H   UNL     1       8.333  26.776  55.490  1.00  0.00     0.190 HD
ENDROOT
BRANCH   1   5
HETATM    5  N   UNL     1       7.673  27.544  57.293  1.00  0.00    -0.261 N 
HETATM    6  C   UNL     1       8.096  28.831  57.020  1.00  0.00     0.294 C 
HETATM    7  O   UNL     1       8.536  29.141  55.912  1.00  0.00    -0.264 OA
HETATM    8  H   UNL     1       7.307  27.275  58.205  1.00  0.00     0.190 HD
BRANCH   6   9
HETATM    9  C   UNL     1       7.971  29.747  58.137  1.00  0.00     0.152 A 
HETATM   10  C   UNL     1       7.063  30.766  58.409  1.00  0.00    -0.009 A 
HETATM   11  C   UNL     1       5.914  31.216  57.583  1.00  0.00     0.052 C 
HETATM   12  C   UNL     1       7.450  31.314  59.672  1.00  0.00     0.007 A 
HETATM   13  C   UNL     1       8.565  30.597  60.081  1.00  0.00     0.087 A 
HETATM   14  C   UNL     1       6.972  32.339  60.510  1.00  0.00     0.015 A 
HETATM   15  O   UNL     1       8.883  29.653  59.158  1.00  0.00    -0.304 OA
HETATM   16  C   UNL     1       9.251  30.823  61.272  1.00  0.00     0.038 A 
HETATM   17  C   UNL     1       8.759  31.846  62.090  1.00  0.00     0.003 A 
HETATM   18  C   UNL     1       7.639  32.593  61.717  1.00  0.00     0.001 A 
ENDBRANCH   6   9
ENDBRANCH   1   5
BRANCH   2  19
HETATM   19  C   UNL     1       7.158  24.406  55.376  1.00  0.00     0.064 A 
HETATM   20  C   UNL     1       7.644  23.049  55.355  1.00  0.00     0.046 A 
HETATM   21  C   UNL     1       7.521  22.577  54.042  1.00  0.00     0.046 A 
HETATM   22  C   UNL     1       8.183  22.152  56.303  1.00  0.00     0.130 A 
HETATM   23  C   UNL     1       7.903  21.285  53.653  1.00  0.00     0.030 A 
HETATM   24  N   UNL     1       6.984  23.594  53.290  1.00  0.00    -0.364 N 
HETATM   25  C   UNL     1       8.430  20.433  54.627  1.00  0.00     0.005 A 
HETATM   26  C   UNL     1       8.569  20.861  55.942  1.00  0.00     0.043 A 
HETATM   27  H   UNL     1       6.784  23.535  52.300  1.00  0.00     0.165 HD
HETATM   28  C   UNL     1       6.764  24.688  54.074  1.00  0.00     0.106 A 
HETATM   29  F   UNL     1       8.334  22.522  57.583  1.00  0.00    -0.205 F 
ENDBRANCH   2  19
TORSDOF 3
ENDMDL
MODEL 3
REMARK VINA RESULT:     -10.2      2.866      9.687
REMARK  3 active torsions:
REMARK  status: ('A' for Active; 'I' for Inactive)
REMARK    1  A    between atoms: C_3  and  C_4 
REMARK       I    between atoms: C_4  and  N_5 
REMARK    2  A    between atoms: N_5  and  N_6 
REMARK       I    between atoms: N_6  and  C_7 
REMARK    3  A    between atoms: C_7  and  C_8 
ROOT
HETATM    1  N   UNL     1       7.022  29.517  57.330  1.00  0.00    -0.263 N 
HETATM    2  C   UNL     1       7.449  28.209  57.288  1.00  0.00     0.272 C 
HETATM    3  O   UNL     1       7.773  27.608  58.314  1.00  0.00    -0.266 OA
HETATM    4  H   UNL     1       6.746  30.052  56.508  1.00  0.00     0.190 HD
ENDROOT
BRANCH   1   5
HETATM    5  N   UNL     1       6.957  30.175  58.562  1.00  0.00    -0.261 N 
HETATM    6  C   UNL     1       8.003  30.986  58.958  1.00  0.00     0.294 C 
HETATM    7  O   UNL     1       8.995  31.149  58.247  1.00  0.00    -0.264 OA
HETATM    8  H   UNL     1       6.131  30.032  59.141  1.00  0.00     0.190 HD
BRANCH   6   9
HETATM    9  C   UNL     1       7.815  31.607  60.255  1.00  0.00     0.152 A 
HETATM   10  C   UNL     1       8.421  31.387  61.489  1.00  0.00    -0.009 A 
HETATM   11  C   UNL     1       9.481  30.404  61.829  1.00  0.00     0.052 C 
HETATM   12  C   UNL     1       7.818  32.314  62.396  1.00  0.00     0.007 A 
HETATM   13  C   UNL     1       6.887  33.031  61.657  1.00  0.00     0.087 A 
HETATM   14  C   UNL     1       7.965  32.621  63.762  1.00  0.00     0.015 A 
HETATM   15  O   UNL     1       6.882  32.606  60.368  1.00  0.00    -0.304 OA
HETATM   16  C   UNL     1       6.081  34.040  62.178  1.00  0.00     0.038 A 
HETATM   17  C   UNL     1       6.242  34.330  63.537  1.00  0.00     0.003 A 
HETATM   18  C   UNL     1       7.168  33.632  64.317  1.00  0.00     0.001 A 
ENDBRANCH   6   9
ENDBRANCH   1   5
BRANCH   2  19
HETATM   19  C   UNL     1       7.497  27.572  55.969  1.00  0.00     0.064 A 
HETATM   20  C   UNL     1       7.343  26.201  55.549  1.00  0.00     0.046 A 
HETATM   21  C   UNL     1       7.486  26.168  54.156  1.00  0.00     0.046 A 
HETATM   22  C   UNL     1       7.099  24.967  56.191  1.00  0.00     0.130 A 
HETATM   23  C   UNL     1       7.397  24.988  53.404  1.00  0.00     0.030 A 
HETATM   24  N   UNL     1       7.716  27.457  53.738  1.00  0.00    -0.364 N 
HETATM   25  C   UNL     1       7.153  23.791  54.083  1.00  0.00     0.005 A 
HETATM   26  C   UNL     1       7.005  23.779  55.465  1.00  0.00     0.043 A 
HETATM   27  H   UNL     1       7.858  27.734  52.776  1.00  0.00     0.165 HD
HETATM   28  C   UNL     1       7.723  28.301  54.809  1.00  0.00     0.106 A 
HETATM   29  F   UNL     1       6.948  24.908  57.521  1.00  0.00    -0.205 F 
ENDBRANCH   2  19
TORSDOF 3
ENDMDL
MODEL 4
REMARK VINA RESULT:     -10.1      1.809      2.605
REMARK  3 active torsions:
REMARK  status: ('A' for Active; 'I' for Inactive)
REMARK    1  A    between atoms: C_3  and  C_4 
REMARK       I    between atoms: C_4  and  N_5 
REMARK    2  A    between atoms: N_5  and  N_6 
REMARK       I    between atoms: N_6  and  C_7 
REMARK    3  A    between atoms: C_7  and  C_8 
ROOT
HETATM    1  N   UNL     1       7.266  27.956  56.075  1.00  0.00    -0.263 N 
HETATM    2  C   UNL     1       7.396  28.227  57.419  1.00  0.00     0.272 C 
HETATM    3  O   UNL     1       7.790  27.367  58.209  1.00  0.00    -0.266 OA
HETATM    4  H   UNL     1       6.943  28.634  55.386  1.00  0.00     0.190 HD
ENDROOT
BRANCH   1   5
HETATM    5  N   UNL     1       7.586  26.680  55.601  1.00  0.00    -0.261 N 
HETATM    6  C   UNL     1       6.573  25.811  55.244  1.00  0.00     0.294 C 
HETATM    7  O   UNL     1       5.388  26.135  55.330  1.00  0.00    -0.264 OA
HETATM    8  H   UNL     1       8.570  26.424  55.536  1.00  0.00     0.190 HD
BRANCH   6   9
HETATM    9  C   UNL     1       7.037  24.520  54.773  1.00  0.00     0.152 A 
HETATM   10  C   UNL     1       7.431  24.074  53.515  1.00  0.00    -0.009 A 
HETATM   11  C   UNL     1       7.485  24.842  52.244  1.00  0.00     0.052 C 
HETATM   12  C   UNL     1       7.789  22.699  53.677  1.00  0.00     0.007 A 
HETATM   13  C   UNL     1       7.587  22.401  55.016  1.00  0.00     0.087 A 
HETATM   14  C   UNL     1       8.264  21.680  52.830  1.00  0.00     0.015 A 
HETATM   15  O   UNL     1       7.132  23.495  55.680  1.00  0.00    -0.304 OA
HETATM   16  C   UNL     1       7.822  21.152  55.586  1.00  0.00     0.038 A 
HETATM   17  C   UNL     1       8.294  20.152  54.728  1.00  0.00     0.003 A 
HETATM   18  C   UNL     1       8.511  20.411  53.372  1.00  0.00     0.001 A 
ENDBRANCH   6   9
ENDBRANCH   1   5
BRANCH   2  19
HETATM   19  C   UNL     1       7.045  29.580  57.857  1.00  0.00     0.064 A 
HETATM   20  C   UNL     1       5.829  30.347  57.751  1.00  0.00     0.046 A 
HETATM   21  C   UNL     1       6.063  31.593  58.347  1.00  0.00     0.046 A 
HETATM   22  C   UNL     1       4.541  30.135  57.213  1.00  0.00     0.130 A 
HETATM   23  C   UNL     1       5.091  32.601  58.424  1.00  0.00     0.030 A 
HETATM   24  N   UNL     1       7.360  31.592  58.800  1.00  0.00    -0.364 N 
HETATM   25  C   UNL     1       3.831  32.344  57.878  1.00  0.00     0.005 A 
HETATM   26  C   UNL     1       3.556  31.121  57.277  1.00  0.00     0.043 A 
HETATM   27  H   UNL     1       7.805  32.366  59.275  1.00  0.00     0.165 HD
HETATM   28  C   UNL     1       7.954  30.398  58.513  1.00  0.00     0.106 A 
HETATM   29  F   UNL     1       4.232  28.971  56.624  1.00  0.00    -0.205 F 
ENDBRANCH   2  19
TORSDOF 3
ENDMDL
MODEL 5
REMARK VINA RESULT:      -9.8      2.247      9.036
REMARK  3 active torsions:
REMARK  status: ('A' for Active; 'I' for Inactive)
REMARK    1  A    between atoms: C_3  and  C_4 
REMARK       I    between atoms: C_4  and  N_5 
REMARK    2  A    between atoms: N_5  and  N_6 
REMARK       I    between atoms: N_6  and  C_7 
REMARK    3  A    between atoms: C_7  and  C_8 
ROOT
HETATM    1  N   UNL     1       7.544  27.056  56.910  1.00  0.00    -0.263 N 
HETATM    2  C   UNL     1       7.923  25.790  57.296  1.00  0.00     0.272 C 
HETATM    3  O   UNL     1       8.142  25.520  58.478  1.00  0.00    -0.266 OA
HETATM    4  H   UNL     1       7.354  27.326  55.947  1.00  0.00     0.190 HD
ENDROOT
BRANCH   1   5
HETATM    5  N   UNL     1       7.407  28.053  57.882  1.00  0.00    -0.261 N 
HETATM    6  C   UNL     1       8.216  29.172  57.830  1.00  0.00     0.294 C 
HETATM    7  O   UNL     1       9.057  29.316  56.942  1.00  0.00    -0.264 OA
HETATM    8  H   UNL     1       6.708  27.921  58.611  1.00  0.00     0.190 HD
BRANCH   6   9
HETATM    9  C   UNL     1       7.977  30.127  58.895  1.00  0.00     0.152 A 
HETATM   10  C   UNL     1       7.091  31.194  59.009  1.00  0.00    -0.009 A 
HETATM   11  C   UNL     1       6.096  31.670  58.014  1.00  0.00     0.052 C 
HETATM   12  C   UNL     1       7.319  31.763  60.301  1.00  0.00     0.007 A 
HETATM   13  C   UNL     1       8.327  31.008  60.884  1.00  0.00     0.087 A 
HETATM   14  C   UNL     1       6.777  32.834  61.035  1.00  0.00     0.015 A 
HETATM   15  O   UNL     1       8.727  30.023  60.039  1.00  0.00    -0.304 OA
HETATM   16  C   UNL     1       8.845  31.240  62.156  1.00  0.00     0.038 A 
HETATM   17  C   UNL     1       8.293  32.310  62.869  1.00  0.00     0.003 A 
HETATM   18  C   UNL     1       7.276  33.094  62.319  1.00  0.00     0.001 A 
ENDBRANCH   6   9
ENDBRANCH   1   5
BRANCH   2  19
HETATM   19  C   UNL     1       8.051  24.788  56.234  1.00  0.00     0.064 A 
HETATM   20  C   UNL     1       7.880  24.864  54.805  1.00  0.00     0.046 A 
HETATM   21  C   UNL     1       8.130  23.589  54.281  1.00  0.00     0.046 A 
HETATM   22  C   UNL     1       7.536  25.873  53.878  1.00  0.00     0.130 A 
HETATM   23  C   UNL     1       8.054  23.294  52.913  1.00  0.00     0.030 A 
HETATM   24  N   UNL     1       8.442  22.768  55.338  1.00  0.00    -0.364 N 
HETATM   25  C   UNL     1       7.710  24.325  52.034  1.00  0.00     0.005 A 
HETATM   26  C   UNL     1       7.453  25.605  52.511  1.00  0.00     0.043 A 
HETATM   27  H   UNL     1       8.670  21.786  55.256  1.00  0.00     0.165 HD
HETATM   28  C   UNL     1       8.398  23.471  56.505  1.00  0.00     0.106 A 
HETATM   29  F   UNL     1       7.280  27.122  54.294  1.00  0.00    -0.205 F 
ENDBRANCH   2  19
TORSDOF 3
ENDMDL
MODEL 6
REMARK VINA RESULT:      -9.6      5.127      8.809
REMARK  3 active torsions:
REMARK  status: ('A' for Active; 'I' for Inactive)
REMARK    1  A    between atoms: C_3  and  C_4 
REMARK       I    between atoms: C_4  and  N_5 
REMARK    2  A    between atoms: N_5  and  N_6 
REMARK       I    between atoms: N_6  and  C_7 
REMARK    3  A    between atoms: C_7  and  C_8 
ROOT
HETATM    1  N   UNL     1       6.337  25.700  53.529  1.00  0.00    -0.263 N 
HETATM    2  C   UNL     1       7.535  25.020  53.530  1.00  0.00     0.272 C 
HETATM    3  O   UNL     1       8.330  25.125  52.595  1.00  0.00    -0.266 OA
HETATM    4  H   UNL     1       5.649  25.643  54.278  1.00  0.00     0.190 HD
ENDROOT
BRANCH   1   5
HETATM    5  N   UNL     1       6.020  26.522  52.443  1.00  0.00    -0.261 N 
HETATM    6  C   UNL     1       5.190  26.046  51.446  1.00  0.00     0.294 C 
HETATM    7  O   UNL     1       4.716  24.910  51.492  1.00  0.00    -0.264 OA
HETATM    8  H   UNL     1       6.418  27.459  52.417  1.00  0.00     0.190 HD
BRANCH   6   9
HETATM    9  C   UNL     1       4.943  26.994  50.377  1.00  0.00     0.152 A 
HETATM   10  C   UNL     1       4.279  26.873  49.159  1.00  0.00    -0.009 A 
HETATM   11  C   UNL     1       3.609  25.674  48.595  1.00  0.00     0.052 C 
HETATM   12  C   UNL     1       4.361  28.156  48.534  1.00  0.00     0.007 A 
HETATM   13  C   UNL     1       5.069  28.969  49.408  1.00  0.00     0.087 A 
HETATM   14  C   UNL     1       3.909  28.713  47.323  1.00  0.00     0.015 A 
HETATM   15  O   UNL     1       5.422  28.271  50.518  1.00  0.00    -0.304 OA
HETATM   16  C   UNL     1       5.367  30.308  49.168  1.00  0.00     0.038 A 
HETATM   17  C   UNL     1       4.909  30.842  47.959  1.00  0.00     0.003 A 
HETATM   18  C   UNL     1       4.192  30.059  47.050  1.00  0.00     0.001 A 
ENDBRANCH   6   9
ENDBRANCH   1   5
BRANCH   2  19
HETATM   19  C   UNL     1       7.811  24.174  54.693  1.00  0.00     0.064 A 
HETATM   20  C   UNL     1       7.986  22.750  54.835  1.00  0.00     0.046 A 
HETATM   21  C   UNL     1       8.231  22.487  56.189  1.00  0.00     0.046 A 
HETATM   22  C   UNL     1       7.964  21.635  53.967  1.00  0.00     0.130 A 
HETATM   23  C   UNL     1       8.448  21.196  56.692  1.00  0.00     0.030 A 
HETATM   24  N   UNL     1       8.210  23.692  56.849  1.00  0.00    -0.364 N 
HETATM   25  C   UNL     1       8.418  20.125  55.795  1.00  0.00     0.005 A 
HETATM   26  C   UNL     1       8.178  20.341  54.443  1.00  0.00     0.043 A 
HETATM   27  H   UNL     1       8.357  23.806  57.843  1.00  0.00     0.165 HD
HETATM   28  C   UNL     1       7.961  24.703  55.968  1.00  0.00     0.106 A 
HETATM   29  F   UNL     1       7.738  21.797  52.656  1.00  0.00    -0.205 F 
ENDBRANCH   2  19
TORSDOF 3
ENDMDL
MODEL 7
REMARK VINA RESULT:      -9.5      2.965      9.746
REMARK  3 active torsions:
REMARK  status: ('A' for Active; 'I' for Inactive)
REMARK    1  A    between atoms: C_3  and  C_4 
REMARK       I    between atoms: C_4  and  N_5 
REMARK    2  A    between atoms: N_5  and  N_6 
REMARK       I    between atoms: N_6  and  C_7 
REMARK    3  A    between atoms: C_7  and  C_8 
ROOT
HETATM    1  N   UNL     1       6.959  29.788  57.441  1.00  0.00    -0.263 N 
HETATM    2  C   UNL     1       7.521  28.534  57.369  1.00  0.00     0.272 C 
HETATM    3  O   UNL     1       7.991  27.985  58.367  1.00  0.00    -0.266 OA
HETATM    4  H   UNL     1       6.561  30.281  56.643  1.00  0.00     0.190 HD
ENDROOT
BRANCH   1   5
HETATM    5  N   UNL     1       6.924  30.451  58.672  1.00  0.00    -0.261 N 
HETATM    6  C   UNL     1       6.455  31.749  58.736  1.00  0.00     0.294 C 
HETATM    7  O   UNL     1       6.062  32.340  57.729  1.00  0.00    -0.264 OA
HETATM    8  H   UNL     1       7.253  29.951  59.497  1.00  0.00     0.190 HD
BRANCH   6   9
HETATM    9  C   UNL     1       6.474  32.322  60.068  1.00  0.00     0.152 A 
HETATM   10  C   UNL     1       5.656  33.261  60.689  1.00  0.00    -0.009 A 
HETATM   11  C   UNL     1       4.478  33.968  60.126  1.00  0.00     0.052 C 
HETATM   12  C   UNL     1       6.172  33.420  62.013  1.00  0.00     0.007 A 
HETATM   13  C   UNL     1       7.267  32.574  62.107  1.00  0.00     0.087 A 
HETATM   14  C   UNL     1       5.825  34.190  63.139  1.00  0.00     0.015 A 
HETATM   15  O   UNL     1       7.453  31.912  60.936  1.00  0.00    -0.304 OA
HETATM   16  C   UNL     1       8.055  32.433  63.248  1.00  0.00     0.038 A 
HETATM   17  C   UNL     1       7.693  33.207  64.356  1.00  0.00     0.003 A 
HETATM   18  C   UNL     1       6.597  34.072  64.304  1.00  0.00     0.001 A 
ENDBRANCH   6   9
ENDBRANCH   1   5
BRANCH   2  19
HETATM   19  C   UNL     1       7.531  27.889  56.053  1.00  0.00     0.064 A 
HETATM   20  C   UNL     1       7.276  26.533  55.637  1.00  0.00     0.046 A 
HETATM   21  C   UNL     1       7.428  26.483  54.245  1.00  0.00     0.046 A 
HETATM   22  C   UNL     1       6.931  25.324  56.281  1.00  0.00     0.130 A 
HETATM   23  C   UNL     1       7.254  25.310  53.497  1.00  0.00     0.030 A 
HETATM   24  N   UNL     1       7.759  27.748  53.824  1.00  0.00    -0.364 N 
HETATM   25  C   UNL     1       6.913  24.138  54.178  1.00  0.00     0.005 A 
HETATM   26  C   UNL     1       6.752  24.143  55.559  1.00  0.00     0.043 A 
HETATM   27  H   UNL     1       7.930  28.009  52.862  1.00  0.00     0.165 HD
HETATM   28  C   UNL     1       7.823  28.594  54.892  1.00  0.00     0.106 A 
HETATM   29  F   UNL     1       6.766  25.283  57.610  1.00  0.00    -0.205 F 
ENDBRANCH   2  19
TORSDOF 3
ENDMDL
MODEL 8
REMARK VINA RESULT:      -9.3      2.145      9.172
REMARK  3 active torsions:
REMARK  status: ('A' for Active; 'I' for Inactive)
REMARK    1  A    between atoms: C_3  and  C_4 
REMARK       I    between atoms: C_4  and  N_5 
REMARK    2  A    between atoms: N_5  and  N_6 
REMARK       I    between atoms: N_6  and  C_7 
REMARK    3  A    between atoms: C_7  and  C_8 
ROOT
HETATM    1  N   UNL     1       6.793  26.226  55.408  1.00  0.00    -0.263 N 
HETATM    2  C   UNL     1       7.709  25.246  55.718  1.00  0.00     0.272 C 
HETATM    3  O   UNL     1       8.369  25.293  56.757  1.00  0.00    -0.266 OA
HETATM    4  H   UNL     1       6.227  26.230  54.561  1.00  0.00     0.190 HD
ENDROOT
BRANCH   1   5
HETATM    5  N   UNL     1       6.613  27.296  56.291  1.00  0.00    -0.261 N 
HETATM    6  C   UNL     1       7.220  28.509  56.025  1.00  0.00     0.294 C 
HETATM    7  O   UNL     1       7.916  28.674  55.023  1.00  0.00    -0.264 OA
HETATM    8  H   UNL     1       6.035  27.147  57.116  1.00  0.00     0.190 HD
BRANCH   6   9
HETATM    9  C   UNL     1       6.958  29.533  57.018  1.00  0.00     0.152 A 
HETATM   10  C   UNL     1       7.787  30.183  57.927  1.00  0.00    -0.009 A 
HETATM   11  C   UNL     1       9.245  29.993  58.139  1.00  0.00     0.052 C 
HETATM   12  C   UNL     1       6.952  31.100  58.640  1.00  0.00     0.007 A 
HETATM   13  C   UNL     1       5.675  30.945  58.121  1.00  0.00     0.087 A 
HETATM   14  C   UNL     1       7.146  32.043  59.666  1.00  0.00     0.015 A 
HETATM   15  O   UNL     1       5.674  30.000  57.145  1.00  0.00    -0.304 OA
HETATM   16  C   UNL     1       4.561  31.663  58.549  1.00  0.00     0.038 A 
HETATM   17  C   UNL     1       4.774  32.595  59.570  1.00  0.00     0.003 A 
HETATM   18  C   UNL     1       6.045  32.783  60.121  1.00  0.00     0.001 A 
ENDBRANCH   6   9
ENDBRANCH   1   5
BRANCH   2  19
HETATM   19  C   UNL     1       7.855  24.151  54.755  1.00  0.00     0.064 A 
HETATM   20  C   UNL     1       8.111  22.743  54.923  1.00  0.00     0.046 A 
HETATM   21  C   UNL     1       8.151  22.166  53.646  1.00  0.00     0.046 A 
HETATM   22  C   UNL     1       8.319  21.874  56.016  1.00  0.00     0.130 A 
HETATM   23  C   UNL     1       8.382  20.800  53.429  1.00  0.00     0.030 A 
HETATM   24  N   UNL     1       7.928  23.172  52.737  1.00  0.00    -0.364 N 
HETATM   25  C   UNL     1       8.582  19.981  54.542  1.00  0.00     0.005 A 
HETATM   26  C   UNL     1       8.551  20.511  55.827  1.00  0.00     0.043 A 
HETATM   27  H   UNL     1       7.901  23.046  51.734  1.00  0.00     0.165 HD
HETATM   28  C   UNL     1       7.750  24.358  53.386  1.00  0.00     0.106 A 
HETATM   29  F   UNL     1       8.298  22.342  57.272  1.00  0.00    -0.205 F 
ENDBRANCH   2  19
TORSDOF 3
ENDMDL
MODEL 9
REMARK VINA RESULT:      -9.2      5.778      8.009
REMARK  3 active torsions:
REMARK  status: ('A' for Active; 'I' for Inactive)
REMARK    1  A    between atoms: C_3  and  C_4 
REMARK       I    between atoms: C_4  and  N_5 
REMARK    2  A    between atoms: N_5  and  N_6 
REMARK       I    between atoms: N_6  and  C_7 
REMARK    3  A    between atoms: C_7  and  C_8 
ROOT
HETATM    1  N   UNL     1       4.732  26.800  51.800  1.00  0.00    -0.263 N 
HETATM    2  C   UNL     1       4.520  26.891  50.443  1.00  0.00     0.272 C 
HETATM    3  O   UNL     1       4.892  26.000  49.676  1.00  0.00    -0.266 OA
HETATM    4  H   UNL     1       4.445  27.511  52.470  1.00  0.00     0.190 HD
ENDROOT
BRANCH   1   5
HETATM    5  N   UNL     1       5.384  25.675  52.316  1.00  0.00    -0.261 N 
HETATM    6  C   UNL     1       5.864  25.698  53.611  1.00  0.00     0.294 C 
HETATM    7  O   UNL     1       5.729  26.690  54.328  1.00  0.00    -0.264 OA
HETATM    8  H   UNL     1       5.489  24.861  51.712  1.00  0.00     0.190 HD
BRANCH   6   9
HETATM    9  C   UNL     1       6.521  24.473  54.022  1.00  0.00     0.152 A 
HETATM   10  C   UNL     1       6.860  23.973  55.276  1.00  0.00    -0.009 A 
HETATM   11  C   UNL     1       6.628  24.594  56.605  1.00  0.00     0.052 C 
HETATM   12  C   UNL     1       7.488  22.710  55.043  1.00  0.00     0.007 A 
HETATM   13  C   UNL     1       7.493  22.528  53.667  1.00  0.00     0.087 A 
HETATM   14  C   UNL     1       8.050  21.704  55.851  1.00  0.00     0.015 A 
HETATM   15  O   UNL     1       6.913  23.588  53.049  1.00  0.00    -0.304 OA
HETATM   16  C   UNL     1       8.021  21.410  53.026  1.00  0.00     0.038 A 
HETATM   17  C   UNL     1       8.575  20.422  53.847  1.00  0.00     0.003 A 
HETATM   18  C   UNL     1       8.591  20.565  55.237  1.00  0.00     0.001 A 
ENDBRANCH   6   9
ENDBRANCH   1   5
BRANCH   2  19
HETATM   19  C   UNL     1       3.834  28.092  49.961  1.00  0.00     0.064 A 
HETATM   20  C   UNL     1       2.762  28.282  49.016  1.00  0.00     0.046 A 
HETATM   21  C   UNL     1       2.505  29.657  48.939  1.00  0.00     0.046 A 
HETATM   22  C   UNL     1       1.968  27.443  48.203  1.00  0.00     0.130 A 
HETATM   23  C   UNL     1       1.517  30.207  48.110  1.00  0.00     0.030 A 
HETATM   24  N   UNL     1       3.376  30.283  49.797  1.00  0.00    -0.364 N 
HETATM   25  C   UNL     1       0.757  29.337  47.324  1.00  0.00     0.005 A 
HETATM   26  C   UNL     1       0.979  27.965  47.369  1.00  0.00     0.043 A 
HETATM   27  H   UNL     1       3.418  31.283  49.948  1.00  0.00     0.165 HD
HETATM   28  C   UNL     1       4.172  29.361  50.411  1.00  0.00     0.106 A 
HETATM   29  F   UNL     1       2.147  26.115  48.215  1.00  0.00    -0.205 F 
ENDBRANCH   2  19
TORSDOF 3
ENDMDL
MODEL 10
REMARK VINA RESULT:      -8.8      5.654      9.008
REMARK  3 active torsions:
REMARK  status: ('A' for Active; 'I' for Inactive)
REMARK    1  A    between atoms: C_3  and  C_4 
REMARK       I    between atoms: C_4  and  N_5 
REMARK    2  A    between atoms: N_5  and  N_6 
REMARK       I    between atoms: N_6  and  C_7 
REMARK    3  A    between atoms: C_7  and  C_8 
ROOT
HETATM    1  N   UNL     1       4.817  26.649  53.214  1.00  0.00    -0.263 N 
HETATM    2  C   UNL     1       5.103  25.307  53.328  1.00  0.00     0.272 C 
HETATM    3  O   UNL     1       4.704  24.494  52.491  1.00  0.00    -0.266 OA
HETATM    4  H   UNL     1       5.124  27.355  53.881  1.00  0.00     0.190 HD
ENDROOT
BRANCH   1   5
HETATM    5  N   UNL     1       4.057  27.094  52.128  1.00  0.00    -0.261 N 
HETATM    6  C   UNL     1       4.684  27.715  51.064  1.00  0.00     0.294 C 
HETATM    7  O   UNL     1       5.904  27.883  51.047  1.00  0.00    -0.264 OA
HETATM    8  H   UNL     1       3.049  26.949  52.155  1.00  0.00     0.190 HD
BRANCH   6   9
HETATM    9  C   UNL     1       3.785  28.132  50.006  1.00  0.00     0.152 A 
HETATM   10  C   UNL     1       3.562  27.638  48.724  1.00  0.00    -0.009 A 
HETATM   11  C   UNL     1       4.222  26.487  48.056  1.00  0.00     0.052 C 
HETATM   12  C   UNL     1       2.546  28.466  48.152  1.00  0.00     0.007 A 
HETATM   13  C   UNL     1       2.222  29.406  49.119  1.00  0.00     0.087 A 
HETATM   14  C   UNL     1       1.868  28.515  46.920  1.00  0.00     0.015 A 
HETATM   15  O   UNL     1       2.967  29.209  50.237  1.00  0.00    -0.304 OA
HETATM   16  C   UNL     1       1.265  30.405  48.953  1.00  0.00     0.038 A 
HETATM   17  C   UNL     1       0.602  30.437  47.721  1.00  0.00     0.003 A 
HETATM   18  C   UNL     1       0.898  29.508  46.720  1.00  0.00     0.001 A 
ENDBRANCH   6   9
ENDBRANCH   1   5
BRANCH   2  19
HETATM   19  C   UNL     1       5.902  24.899  54.486  1.00  0.00     0.064 A 
HETATM   20  C   UNL     1       6.976  23.949  54.636  1.00  0.00     0.046 A 
HETATM   21  C   UNL     1       7.371  23.966  55.980  1.00  0.00     0.046 A 
HETATM   22  C   UNL     1       7.670  23.063  53.783  1.00  0.00     0.130 A 
HETATM   23  C   UNL     1       8.399  23.159  56.487  1.00  0.00     0.030 A 
HETATM   24  N   UNL     1       6.579  24.884  56.627  1.00  0.00    -0.364 N 
HETATM   25  C   UNL     1       9.057  22.298  55.605  1.00  0.00     0.005 A 
HETATM   26  C   UNL     1       8.698  22.249  54.263  1.00  0.00     0.043 A 
HETATM   27  H   UNL     1       6.641  25.107  57.611  1.00  0.00     0.165 HD
HETATM   28  C   UNL     1       5.701  25.445  55.747  1.00  0.00     0.106 A 
HETATM   29  F   UNL     1       7.357  22.983  52.482  1.00  0.00    -0.205 F 
ENDBRANCH   2  19
TORSDOF 3
ENDMDL
