MODEL 1
REMARK VINA RESULT:      -8.6      0.000      0.000
REMARK  8 active torsions:
REMARK  status: ('A' for Active; 'I' for Inactive)
REMARK    1  A    between atoms: C_2  and  C_3 
REMARK    2  A    between atoms: C_3  and  N_4 
REMARK    3  A    between atoms: C_7  and  C_8 
REMARK       I    between atoms: C_8  and  N_9 
REMARK    4  A    between atoms: N_9  and  C_10 
REMARK    5  A    between atoms: C_13  and  O_14 
REMARK    6  A    between atoms: O_14  and  C_15 
REMARK    7  A    between atoms: C_15  and  C_16 
REMARK       I    between atoms: C_16  and  N_17 
REMARK    8  A    between atoms: C_23  and  C_24 
ROOT
HETATM    1  C   UNL     1       5.782  26.460  54.930  1.00  0.00     0.259 C 
HETATM    2  N   UNL     1       6.068  27.685  55.481  1.00  0.00    -0.323 N 
HETATM    3  O   UNL     1       4.728  26.377  54.295  1.00  0.00    -0.267 OA
HETATM    4  H   UNL     1       5.281  28.305  55.327  1.00  0.00     0.169 HD
ENDROOT
BRANCH   2   5
HETATM    5  C   UNL     1       7.182  28.261  56.107  1.00  0.00     0.035 A 
HETATM    6  C   UNL     1       8.321  28.735  55.458  1.00  0.00     0.032 A 
HETATM    7  C   UNL     1       9.352  29.336  56.195  1.00  0.00     0.039 A 
HETATM    8  C   UNL     1       9.231  29.498  57.574  1.00  0.00     0.069 A 
HETATM    9  C   UNL     1       8.110  29.013  58.236  1.00  0.00     0.039 A 
HETATM   10  C   UNL     1       7.090  28.407  57.502  1.00  0.00     0.032 A 
BRANCH   8  11
HETATM   11  O   UNL     1      10.258  30.100  58.246  1.00  0.00    -0.342 OA
BRANCH  11  12
HETATM   12  C   UNL     1      10.060  31.512  58.365  1.00  0.00     0.278 C 
BRANCH  12  13
HETATM   13  C   UNL     1       9.228  31.913  59.585  1.00  0.00     0.241 C 
HETATM   14  N   UNL     1       9.611  31.299  60.758  1.00  0.00    -0.364 N 
HETATM   15  C   UNL     1       8.908  31.529  61.994  1.00  0.00     0.149 C 
HETATM   16  H   UNL     1      10.235  30.503  60.679  1.00  0.00     0.161 HD
HETATM   17  O   UNL     1       8.330  32.749  59.520  1.00  0.00    -0.271 OA
ENDBRANCH  12  13
ENDBRANCH  11  12
ENDBRANCH   8  11
ENDBRANCH   2   5
BRANCH   1  18
HETATM   18  C   UNL     1       6.582  25.287  55.193  1.00  0.00     0.076 C 
HETATM   19  C   UNL     1       7.032  24.852  56.461  1.00  0.00     0.158 C 
HETATM   20  N   UNL     1       7.579  23.637  56.433  1.00  0.00    -0.183 NA
HETATM   21  N   UNL     1       7.385  23.232  55.160  1.00  0.00    -0.268 N 
HETATM   22  C   UNL     1       6.918  24.241  54.343  1.00  0.00     0.052 C 
BRANCH  21  23
HETATM   23  C   UNL     1       7.635  21.836  54.790  1.00  0.00     0.106 C 
HETATM   24  C   UNL     1       7.653  20.885  55.994  1.00  0.00     0.034 C 
BRANCH  23  25
HETATM   25  C   UNL     1       8.871  21.670  53.886  1.00  0.00     0.022 C 
HETATM   26  C   UNL     1       8.793  20.527  52.886  1.00  0.00     0.007 C 
ENDBRANCH  23  25
ENDBRANCH  21  23
BRANCH  22  27
HETATM   27  C   UNL     1       6.832  24.137  52.818  1.00  0.00     0.038 A 
HETATM   28  C   UNL     1       6.778  25.309  51.874  1.00  0.00     0.011 A 
HETATM   29  C   UNL     1       8.062  24.576  52.047  1.00  0.00     0.011 A 
ENDBRANCH  22  27
ENDBRANCH   1  18
TORSDOF 8
ENDMDL
MODEL 2
REMARK VINA RESULT:      -8.0      2.470      9.365
REMARK  8 active torsions:
REMARK  status: ('A' for Active; 'I' for Inactive)
REMARK    1  A    between atoms: C_2  and  C_3 
REMARK    2  A    between atoms: C_3  and  N_4 
REMARK    3  A    between atoms: C_7  and  C_8 
REMARK       I    between atoms: C_8  and  N_9 
REMARK    4  A    between atoms: N_9  and  C_10 
REMARK    5  A    between atoms: C_13  and  O_14 
REMARK    6  A    between atoms: O_14  and  C_15 
REMARK    7  A    between atoms: C_15  and  C_16 
REMARK       I    between atoms: C_16  and  N_17 
REMARK    8  A    between atoms: C_23  and  C_24 
ROOT
HETATM    1  C   UNL     1       9.283  31.282  58.689  1.00  0.00     0.259 C 
HETATM    2  N   UNL     1       9.102  30.292  57.756  1.00  0.00    -0.323 N 
HETATM    3  O   UNL     1      10.112  32.152  58.412  1.00  0.00    -0.267 OA
HETATM    4  H   UNL     1       9.776  30.418  57.009  1.00  0.00     0.169 HD
ENDROOT
BRANCH   2   5
HETATM    5  C   UNL     1       8.186  29.245  57.577  1.00  0.00     0.035 A 
HETATM    6  C   UNL     1       6.798  29.371  57.600  1.00  0.00     0.032 A 
HETATM    7  C   UNL     1       5.986  28.253  57.359  1.00  0.00     0.039 A 
HETATM    8  C   UNL     1       6.558  27.018  57.060  1.00  0.00     0.069 A 
HETATM    9  C   UNL     1       7.939  26.874  57.052  1.00  0.00     0.039 A 
HETATM   10  C   UNL     1       8.745  27.986  57.301  1.00  0.00     0.032 A 
BRANCH   8  11
HETATM   11  O   UNL     1       5.724  25.961  56.821  1.00  0.00    -0.342 OA
BRANCH  11  12
HETATM   12  C   UNL     1       6.436  24.823  56.324  1.00  0.00     0.278 C 
BRANCH  12  13
HETATM   13  C   UNL     1       6.181  24.541  54.842  1.00  0.00     0.241 C 
HETATM   14  N   UNL     1       5.123  25.243  54.306  1.00  0.00    -0.364 N 
HETATM   15  C   UNL     1       4.718  25.066  52.936  1.00  0.00     0.149 C 
HETATM   16  H   UNL     1       4.492  25.695  54.959  1.00  0.00     0.161 HD
HETATM   17  O   UNL     1       6.896  23.788  54.187  1.00  0.00    -0.271 OA
ENDBRANCH  12  13
ENDBRANCH  11  12
ENDBRANCH   8  11
ENDBRANCH   2   5
BRANCH   1  18
HETATM   18  C   UNL     1       8.658  31.244  59.990  1.00  0.00     0.076 C 
HETATM   19  C   UNL     1       9.158  30.585  61.136  1.00  0.00     0.158 C 
HETATM   20  N   UNL     1       8.482  30.880  62.246  1.00  0.00    -0.183 NA
HETATM   21  N   UNL     1       7.605  31.823  61.841  1.00  0.00    -0.268 N 
HETATM   22  C   UNL     1       7.576  31.972  60.469  1.00  0.00     0.052 C 
BRANCH  21  23
HETATM   23  C   UNL     1       6.837  32.581  62.832  1.00  0.00     0.106 C 
HETATM   24  C   UNL     1       7.636  32.899  64.103  1.00  0.00     0.034 C 
BRANCH  23  25
HETATM   25  C   UNL     1       5.466  31.949  63.136  1.00  0.00     0.022 C 
HETATM   26  C   UNL     1       4.273  32.879  62.973  1.00  0.00     0.007 C 
ENDBRANCH  23  25
ENDBRANCH  21  23
BRANCH  22  27
HETATM   27  C   UNL     1       6.522  32.791  59.719  1.00  0.00     0.038 A 
HETATM   28  C   UNL     1       6.008  32.479  58.340  1.00  0.00     0.011 A 
HETATM   29  C   UNL     1       5.174  32.123  59.521  1.00  0.00     0.011 A 
ENDBRANCH  22  27
ENDBRANCH   1  18
TORSDOF 8
ENDMDL
MODEL 3
REMARK VINA RESULT:      -7.9      3.815      7.666
REMARK  8 active torsions:
REMARK  status: ('A' for Active; 'I' for Inactive)
REMARK    1  A    between atoms: C_2  and  C_3 
REMARK    2  A    between atoms: C_3  and  N_4 
REMARK    3  A    between atoms: C_7  and  C_8 
REMARK       I    between atoms: C_8  and  N_9 
REMARK    4  A    between atoms: N_9  and  C_10 
REMARK    5  A    between atoms: C_13  and  O_14 
REMARK    6  A    between atoms: O_14  and  C_15 
REMARK    7  A    between atoms: C_15  and  C_16 
REMARK       I    between atoms: C_16  and  N_17 
REMARK    8  A    between atoms: C_23  and  C_24 
ROOT
HETATM    1  C   UNL     1       7.455  27.709  54.277  1.00  0.00     0.259 C 
HETATM    2  N   UNL     1       6.642  28.672  53.735  1.00  0.00    -0.323 N 
HETATM    3  O   UNL     1       8.331  28.103  55.051  1.00  0.00    -0.267 OA
HETATM    4  H   UNL     1       6.978  29.585  54.020  1.00  0.00     0.169 HD
ENDROOT
BRANCH   2   5
HETATM    5  C   UNL     1       5.461  28.670  52.978  1.00  0.00     0.035 A 
HETATM    6  C   UNL     1       4.175  28.482  53.483  1.00  0.00     0.032 A 
HETATM    7  C   UNL     1       3.066  28.550  52.627  1.00  0.00     0.039 A 
HETATM    8  C   UNL     1       3.236  28.840  51.275  1.00  0.00     0.069 A 
HETATM    9  C   UNL     1       4.513  29.010  50.755  1.00  0.00     0.039 A 
HETATM   10  C   UNL     1       5.615  28.933  51.606  1.00  0.00     0.032 A 
BRANCH   8  11
HETATM   11  O   UNL     1       2.123  28.906  50.483  1.00  0.00    -0.342 OA
BRANCH  11  12
HETATM   12  C   UNL     1       2.448  28.775  49.096  1.00  0.00     0.278 C 
BRANCH  12  13
HETATM   13  C   UNL     1       2.079  27.412  48.508  1.00  0.00     0.241 C 
HETATM   14  N   UNL     1       3.105  26.491  48.525  1.00  0.00    -0.364 N 
HETATM   15  C   UNL     1       2.944  25.172  47.972  1.00  0.00     0.149 C 
HETATM   16  H   UNL     1       4.038  26.845  48.711  1.00  0.00     0.161 HD
HETATM   17  O   UNL     1       0.948  27.158  48.102  1.00  0.00    -0.271 OA
ENDBRANCH  12  13
ENDBRANCH  11  12
ENDBRANCH   8  11
ENDBRANCH   2   5
BRANCH   1  18
HETATM   18  C   UNL     1       7.402  26.327  53.863  1.00  0.00     0.076 C 
HETATM   19  C   UNL     1       7.681  25.833  52.568  1.00  0.00     0.158 C 
HETATM   20  N   UNL     1       7.749  24.503  52.519  1.00  0.00    -0.183 NA
HETATM   21  N   UNL     1       7.621  24.131  53.810  1.00  0.00    -0.268 N 
HETATM   22  C   UNL     1       7.270  25.180  54.636  1.00  0.00     0.052 C 
BRANCH  21  23
HETATM   23  C   UNL     1       7.886  22.745  54.202  1.00  0.00     0.106 C 
HETATM   24  C   UNL     1       9.128  22.594  55.091  1.00  0.00     0.034 C 
BRANCH  23  25
HETATM   25  C   UNL     1       7.895  21.777  53.004  1.00  0.00     0.022 C 
HETATM   26  C   UNL     1       8.318  20.352  53.326  1.00  0.00     0.007 C 
ENDBRANCH  23  25
ENDBRANCH  21  23
BRANCH  22  27
HETATM   27  C   UNL     1       6.831  25.013  56.093  1.00  0.00     0.038 A 
HETATM   28  C   UNL     1       6.458  26.140  57.017  1.00  0.00     0.011 A 
HETATM   29  C   UNL     1       5.378  25.325  56.394  1.00  0.00     0.011 A 
ENDBRANCH  22  27
ENDBRANCH   1  18
TORSDOF 8
ENDMDL
MODEL 4
REMARK VINA RESULT:      -7.8      4.425      8.738
REMARK  8 active torsions:
REMARK  status: ('A' for Active; 'I' for Inactive)
REMARK    1  A    between atoms: C_2  and  C_3 
REMARK    2  A    between atoms: C_3  and  N_4 
REMARK    3  A    between atoms: C_7  and  C_8 
REMARK       I    between atoms: C_8  and  N_9 
REMARK    4  A    between atoms: N_9  and  C_10 
REMARK    5  A    between atoms: C_13  and  O_14 
REMARK    6  A    between atoms: O_14  and  C_15 
REMARK    7  A    between atoms: C_15  and  C_16 
REMARK       I    between atoms: C_16  and  N_17 
REMARK    8  A    between atoms: C_23  and  C_24 
ROOT
HETATM    1  C   UNL     1       6.400  27.756  53.309  1.00  0.00     0.259 C 
HETATM    2  N   UNL     1       5.942  28.269  52.121  1.00  0.00    -0.323 N 
HETATM    3  O   UNL     1       6.563  28.563  54.228  1.00  0.00    -0.267 OA
HETATM    4  H   UNL     1       5.898  29.279  52.195  1.00  0.00     0.169 HD
ENDROOT
BRANCH   2   5
HETATM    5  C   UNL     1       5.470  27.727  50.917  1.00  0.00     0.035 A 
HETATM    6  C   UNL     1       4.953  26.443  50.754  1.00  0.00     0.032 A 
HETATM    7  C   UNL     1       4.466  26.033  49.503  1.00  0.00     0.039 A 
HETATM    8  C   UNL     1       4.462  26.917  48.426  1.00  0.00     0.069 A 
HETATM    9  C   UNL     1       4.991  28.193  48.569  1.00  0.00     0.039 A 
HETATM   10  C   UNL     1       5.483  28.595  49.811  1.00  0.00     0.032 A 
BRANCH   8  11
HETATM   11  O   UNL     1       3.966  26.474  47.230  1.00  0.00    -0.342 OA
BRANCH  11  12
HETATM   12  C   UNL     1       2.702  25.823  47.386  1.00  0.00     0.278 C 
BRANCH  12  13
HETATM   13  C   UNL     1       1.513  26.785  47.374  1.00  0.00     0.241 C 
HETATM   14  N   UNL     1       0.892  26.903  46.149  1.00  0.00    -0.364 N 
HETATM   15  C   UNL     1      -0.217  27.798  45.948  1.00  0.00     0.149 C 
HETATM   16  H   UNL     1       1.388  26.534  45.344  1.00  0.00     0.161 HD
HETATM   17  O   UNL     1       1.124  27.360  48.388  1.00  0.00    -0.271 OA
ENDBRANCH  12  13
ENDBRANCH  11  12
ENDBRANCH   8  11
ENDBRANCH   2   5
BRANCH   1  18
HETATM   18  C   UNL     1       6.814  26.380  53.451  1.00  0.00     0.076 C 
HETATM   19  C   UNL     1       7.820  25.731  52.699  1.00  0.00     0.158 C 
HETATM   20  N   UNL     1       8.131  24.525  53.173  1.00  0.00    -0.183 NA
HETATM   21  N   UNL     1       7.402  24.432  54.305  1.00  0.00    -0.268 N 
HETATM   22  C   UNL     1       6.490  25.460  54.440  1.00  0.00     0.052 C 
BRANCH  21  23
HETATM   23  C   UNL     1       7.652  23.340  55.249  1.00  0.00     0.106 C 
HETATM   24  C   UNL     1       8.815  23.623  56.208  1.00  0.00     0.034 C 
BRANCH  23  25
HETATM   25  C   UNL     1       7.776  21.970  54.557  1.00  0.00     0.022 C 
HETATM   26  C   UNL     1       7.778  20.770  55.492  1.00  0.00     0.007 C 
ENDBRANCH  23  25
ENDBRANCH  21  23
BRANCH  22  27
HETATM   27  C   UNL     1       5.380  25.487  55.493  1.00  0.00     0.038 A 
HETATM   28  C   UNL     1       5.546  25.083  56.933  1.00  0.00     0.011 A 
HETATM   29  C   UNL     1       5.519  26.531  56.585  1.00  0.00     0.011 A 
ENDBRANCH  22  27
ENDBRANCH   1  18
TORSDOF 8
ENDMDL
MODEL 5
REMARK VINA RESULT:      -7.8      1.668      2.675
REMARK  8 active torsions:
REMARK  status: ('A' for Active; 'I' for Inactive)
REMARK    1  A    between atoms: C_2  and  C_3 
REMARK    2  A    between atoms: C_3  and  N_4 
REMARK    3  A    between atoms: C_7  and  C_8 
REMARK       I    between atoms: C_8  and  N_9 
REMARK    4  A    between atoms: N_9  and  C_10 
REMARK    5  A    between atoms: C_13  and  O_14 
REMARK    6  A    between atoms: O_14  and  C_15 
REMARK    7  A    between atoms: C_15  and  C_16 
REMARK       I    between atoms: C_16  and  N_17 
REMARK    8  A    between atoms: C_23  and  C_24 
ROOT
HETATM    1  C   UNL     1       6.144  28.090  53.708  1.00  0.00     0.259 C 
HETATM    2  N   UNL     1       6.325  29.048  54.674  1.00  0.00    -0.323 N 
HETATM    3  O   UNL     1       5.434  28.405  52.749  1.00  0.00    -0.267 OA
HETATM    4  H   UNL     1       5.746  29.851  54.452  1.00  0.00     0.169 HD
ENDROOT
BRANCH   2   5
HETATM    5  C   UNL     1       7.151  29.187  55.799  1.00  0.00     0.035 A 
HETATM    6  C   UNL     1       8.469  28.745  55.895  1.00  0.00     0.032 A 
HETATM    7  C   UNL     1       9.209  28.987  57.062  1.00  0.00     0.039 A 
HETATM    8  C   UNL     1       8.646  29.701  58.118  1.00  0.00     0.069 A 
HETATM    9  C   UNL     1       7.327  30.130  58.043  1.00  0.00     0.039 A 
HETATM   10  C   UNL     1       6.590  29.880  56.885  1.00  0.00     0.032 A 
BRANCH   8  11
HETATM   11  O   UNL     1       9.411  29.921  59.229  1.00  0.00    -0.342 OA
BRANCH  11  12
HETATM   12  C   UNL     1       9.145  31.199  59.815  1.00  0.00     0.278 C 
BRANCH  12  13
HETATM   13  C   UNL     1       8.951  31.149  61.331  1.00  0.00     0.241 C 
HETATM   14  N   UNL     1       8.253  32.219  61.849  1.00  0.00    -0.364 N 
HETATM   15  C   UNL     1       8.018  32.354  63.263  1.00  0.00     0.149 C 
HETATM   16  H   UNL     1       8.127  33.024  61.243  1.00  0.00     0.161 HD
HETATM   17  O   UNL     1       9.348  30.206  62.012  1.00  0.00    -0.271 OA
ENDBRANCH  12  13
ENDBRANCH  11  12
ENDBRANCH   8  11
ENDBRANCH   2   5
BRANCH   1  18
HETATM   18  C   UNL     1       6.624  26.737  53.859  1.00  0.00     0.076 C 
HETATM   19  C   UNL     1       7.726  26.164  53.185  1.00  0.00     0.158 C 
HETATM   20  N   UNL     1       8.066  24.966  53.662  1.00  0.00    -0.183 NA
HETATM   21  N   UNL     1       7.249  24.806  54.725  1.00  0.00    -0.268 N 
HETATM   22  C   UNL     1       6.271  25.777  54.799  1.00  0.00     0.052 C 
BRANCH  21  23
HETATM   23  C   UNL     1       7.481  23.708  55.666  1.00  0.00     0.106 C 
HETATM   24  C   UNL     1       8.644  23.972  56.631  1.00  0.00     0.034 C 
BRANCH  23  25
HETATM   25  C   UNL     1       7.589  22.337  54.971  1.00  0.00     0.022 C 
HETATM   26  C   UNL     1       7.823  21.156  55.900  1.00  0.00     0.007 C 
ENDBRANCH  23  25
ENDBRANCH  21  23
BRANCH  22  27
HETATM   27  C   UNL     1       5.075  25.716  55.753  1.00  0.00     0.038 A 
HETATM   28  C   UNL     1       5.110  25.150  57.146  1.00  0.00     0.011 A 
HETATM   29  C   UNL     1       5.139  26.627  56.964  1.00  0.00     0.011 A 
ENDBRANCH  22  27
ENDBRANCH   1  18
TORSDOF 8
ENDMDL
MODEL 6
REMARK VINA RESULT:      -7.6      6.328     12.262
REMARK  8 active torsions:
REMARK  status: ('A' for Active; 'I' for Inactive)
REMARK    1  A    between atoms: C_2  and  C_3 
REMARK    2  A    between atoms: C_3  and  N_4 
REMARK    3  A    between atoms: C_7  and  C_8 
REMARK       I    between atoms: C_8  and  N_9 
REMARK    4  A    between atoms: N_9  and  C_10 
REMARK    5  A    between atoms: C_13  and  O_14 
REMARK    6  A    between atoms: O_14  and  C_15 
REMARK    7  A    between atoms: C_15  and  C_16 
REMARK       I    between atoms: C_16  and  N_17 
REMARK    8  A    between atoms: C_23  and  C_24 
ROOT
HETATM    1  C   UNL     1       4.001  34.296  64.793  1.00  0.00     0.259 C 
HETATM    2  N   UNL     1       4.660  33.139  64.459  1.00  0.00    -0.323 N 
HETATM    3  O   UNL     1       3.070  34.185  65.594  1.00  0.00    -0.267 OA
HETATM    4  H   UNL     1       4.185  32.354  64.891  1.00  0.00     0.169 HD
ENDROOT
BRANCH   2   5
HETATM    5  C   UNL     1       5.832  32.826  63.755  1.00  0.00     0.035 A 
HETATM    6  C   UNL     1       7.131  33.095  64.183  1.00  0.00     0.032 A 
HETATM    7  C   UNL     1       8.226  32.689  63.407  1.00  0.00     0.039 A 
HETATM    8  C   UNL     1       8.027  31.981  62.223  1.00  0.00     0.069 A 
HETATM    9  C   UNL     1       6.738  31.723  61.775  1.00  0.00     0.039 A 
HETATM   10  C   UNL     1       5.650  32.137  62.544  1.00  0.00     0.032 A 
BRANCH   8  11
HETATM   11  O   UNL     1       9.127  31.596  61.507  1.00  0.00    -0.342 OA
BRANCH  11  12
HETATM   12  C   UNL     1       8.769  30.844  60.344  1.00  0.00     0.278 C 
BRANCH  12  13
HETATM   13  C   UNL     1       9.576  31.221  59.100  1.00  0.00     0.241 C 
HETATM   14  N   UNL     1       9.795  30.175  58.229  1.00  0.00    -0.364 N 
HETATM   15  C   UNL     1      10.573  30.343  57.029  1.00  0.00     0.149 C 
HETATM   16  H   UNL     1       9.607  29.240  58.576  1.00  0.00     0.161 HD
HETATM   17  O   UNL     1       9.949  32.371  58.884  1.00  0.00    -0.271 OA
ENDBRANCH  12  13
ENDBRANCH  11  12
ENDBRANCH   8  11
ENDBRANCH   2   5
BRANCH   1  18
HETATM   18  C   UNL     1       4.269  35.556  64.140  1.00  0.00     0.076 C 
HETATM   19  C   UNL     1       4.792  36.717  64.753  1.00  0.00     0.158 C 
HETATM   20  N   UNL     1       5.123  37.666  63.877  1.00  0.00    -0.183 NA
HETATM   21  N   UNL     1       4.916  37.078  62.680  1.00  0.00    -0.268 N 
HETATM   22  C   UNL     1       4.271  35.862  62.785  1.00  0.00     0.052 C 
BRANCH  21  23
HETATM   23  C   UNL     1       5.398  37.723  61.456  1.00  0.00     0.106 C 
HETATM   24  C   UNL     1       6.717  38.483  61.651  1.00  0.00     0.034 C 
BRANCH  23  25
HETATM   25  C   UNL     1       4.319  38.577  60.766  1.00  0.00     0.022 C 
HETATM   26  C   UNL     1       4.841  39.772  59.983  1.00  0.00     0.007 C 
ENDBRANCH  23  25
ENDBRANCH  21  23
BRANCH  22  27
HETATM   27  C   UNL     1       3.702  35.089  61.593  1.00  0.00     0.038 A 
HETATM   28  C   UNL     1       2.558  34.114  61.663  1.00  0.00     0.011 A 
HETATM   29  C   UNL     1       2.309  35.486  61.141  1.00  0.00     0.011 A 
ENDBRANCH  22  27
ENDBRANCH   1  18
TORSDOF 8
ENDMDL
MODEL 7
REMARK VINA RESULT:      -7.5      4.880      8.553
REMARK  8 active torsions:
REMARK  status: ('A' for Active; 'I' for Inactive)
REMARK    1  A    between atoms: C_2  and  C_3 
REMARK    2  A    between atoms: C_3  and  N_4 
REMARK    3  A    between atoms: C_7  and  C_8 
REMARK       I    between atoms: C_8  and  N_9 
REMARK    4  A    between atoms: N_9  and  C_10 
REMARK    5  A    between atoms: C_13  and  O_14 
REMARK    6  A    between atoms: O_14  and  C_15 
REMARK    7  A    between atoms: C_15  and  C_16 
REMARK       I    between atoms: C_16  and  N_17 
REMARK    8  A    between atoms: C_23  and  C_24 
ROOT
HETATM    1  C   UNL     1       5.605  29.694  50.673  1.00  0.00     0.259 C 
HETATM    2  N   UNL     1       5.818  29.188  51.930  1.00  0.00    -0.323 N 
HETATM    3  O   UNL     1       5.839  30.896  50.518  1.00  0.00    -0.267 OA
HETATM    4  H   UNL     1       6.062  29.949  52.554  1.00  0.00     0.169 HD
ENDROOT
BRANCH   2   5
HETATM    5  C   UNL     1       5.850  27.906  52.497  1.00  0.00     0.035 A 
HETATM    6  C   UNL     1       4.917  26.896  52.268  1.00  0.00     0.032 A 
HETATM    7  C   UNL     1       5.086  25.634  52.859  1.00  0.00     0.039 A 
HETATM    8  C   UNL     1       6.203  25.370  53.648  1.00  0.00     0.069 A 
HETATM    9  C   UNL     1       7.131  26.373  53.900  1.00  0.00     0.039 A 
HETATM   10  C   UNL     1       6.955  27.630  53.319  1.00  0.00     0.032 A 
BRANCH   8  11
HETATM   11  O   UNL     1       6.329  24.122  54.193  1.00  0.00    -0.342 OA
BRANCH  11  12
HETATM   12  C   UNL     1       7.194  23.287  53.417  1.00  0.00     0.278 C 
BRANCH  12  13
HETATM   13  C   UNL     1       8.131  22.423  54.263  1.00  0.00     0.241 C 
HETATM   14  N   UNL     1       7.958  21.066  54.093  1.00  0.00    -0.364 N 
HETATM   15  C   UNL     1       8.726  20.108  54.843  1.00  0.00     0.149 C 
HETATM   16  H   UNL     1       7.114  20.766  53.614  1.00  0.00     0.161 HD
HETATM   17  O   UNL     1       8.992  22.910  54.992  1.00  0.00    -0.271 OA
ENDBRANCH  12  13
ENDBRANCH  11  12
ENDBRANCH   8  11
ENDBRANCH   2   5
BRANCH   1  18
HETATM   18  C   UNL     1       5.000  28.917  49.617  1.00  0.00     0.076 C 
HETATM   19  C   UNL     1       5.684  28.252  48.574  1.00  0.00     0.158 C 
HETATM   20  N   UNL     1       4.896  27.450  47.859  1.00  0.00    -0.183 NA
HETATM   21  N   UNL     1       3.713  27.509  48.507  1.00  0.00    -0.268 N 
HETATM   22  C   UNL     1       3.687  28.484  49.484  1.00  0.00     0.052 C 
BRANCH  21  23
HETATM   23  C   UNL     1       2.644  26.568  48.165  1.00  0.00     0.106 C 
HETATM   24  C   UNL     1       3.113  25.107  48.125  1.00  0.00     0.034 C 
BRANCH  23  25
HETATM   25  C   UNL     1       1.872  26.976  46.896  1.00  0.00     0.022 C 
HETATM   26  C   UNL     1       0.476  27.529  47.138  1.00  0.00     0.007 C 
ENDBRANCH  23  25
ENDBRANCH  21  23
BRANCH  22  27
HETATM   27  C   UNL     1       2.416  28.932  50.212  1.00  0.00     0.038 A 
HETATM   28  C   UNL     1       2.248  30.246  50.924  1.00  0.00     0.011 A 
HETATM   29  C   UNL     1       1.646  30.072  49.573  1.00  0.00     0.011 A 
ENDBRANCH  22  27
ENDBRANCH   1  18
TORSDOF 8
ENDMDL
MODEL 8
REMARK VINA RESULT:      -7.4      6.018     12.300
REMARK  8 active torsions:
REMARK  status: ('A' for Active; 'I' for Inactive)
REMARK    1  A    between atoms: C_2  and  C_3 
REMARK    2  A    between atoms: C_3  and  N_4 
REMARK    3  A    between atoms: C_7  and  C_8 
REMARK       I    between atoms: C_8  and  N_9 
REMARK    4  A    between atoms: N_9  and  C_10 
REMARK    5  A    between atoms: C_13  and  O_14 
REMARK    6  A    between atoms: O_14  and  C_15 
REMARK    7  A    between atoms: C_15  and  C_16 
REMARK       I    between atoms: C_16  and  N_17 
REMARK    8  A    between atoms: C_23  and  C_24 
ROOT
HETATM    1  C   UNL     1       3.997  35.211  64.590  1.00  0.00     0.259 C 
HETATM    2  N   UNL     1       4.852  34.197  64.942  1.00  0.00    -0.323 N 
HETATM    3  O   UNL     1       3.373  35.747  65.509  1.00  0.00    -0.267 OA
HETATM    4  H   UNL     1       4.748  34.010  65.933  1.00  0.00     0.169 HD
ENDROOT
BRANCH   2   5
HETATM    5  C   UNL     1       5.844  33.455  64.285  1.00  0.00     0.035 A 
HETATM    6  C   UNL     1       7.219  33.631  64.432  1.00  0.00     0.032 A 
HETATM    7  C   UNL     1       8.113  32.790  63.753  1.00  0.00     0.039 A 
HETATM    8  C   UNL     1       7.636  31.751  62.956  1.00  0.00     0.069 A 
HETATM    9  C   UNL     1       6.269  31.576  62.785  1.00  0.00     0.039 A 
HETATM   10  C   UNL     1       5.381  32.420  63.454  1.00  0.00     0.032 A 
BRANCH   8  11
HETATM   11  O   UNL     1       8.547  30.952  62.324  1.00  0.00    -0.342 OA
BRANCH  11  12
HETATM   12  C   UNL     1       9.338  31.685  61.384  1.00  0.00     0.278 C 
BRANCH  12  13
HETATM   13  C   UNL     1       8.941  31.438  59.927  1.00  0.00     0.241 C 
HETATM   14  N   UNL     1       8.343  30.217  59.702  1.00  0.00    -0.364 N 
HETATM   15  C   UNL     1       7.945  29.804  58.381  1.00  0.00     0.149 C 
HETATM   16  H   UNL     1       8.415  29.525  60.441  1.00  0.00     0.161 HD
HETATM   17  O   UNL     1       9.103  32.284  59.051  1.00  0.00    -0.271 OA
ENDBRANCH  12  13
ENDBRANCH  11  12
ENDBRANCH   8  11
ENDBRANCH   2   5
BRANCH   1  18
HETATM   18  C   UNL     1       3.717  35.545  63.213  1.00  0.00     0.076 C 
HETATM   19  C   UNL     1       2.532  35.240  62.505  1.00  0.00     0.158 C 
HETATM   20  N   UNL     1       2.464  35.840  61.317  1.00  0.00    -0.183 NA
HETATM   21  N   UNL     1       3.560  36.627  61.296  1.00  0.00    -0.268 N 
HETATM   22  C   UNL     1       4.417  36.379  62.350  1.00  0.00     0.052 C 
BRANCH  21  23
HETATM   23  C   UNL     1       3.716  37.636  60.245  1.00  0.00     0.106 C 
HETATM   24  C   UNL     1       2.469  38.509  60.055  1.00  0.00     0.034 C 
BRANCH  23  25
HETATM   25  C   UNL     1       4.232  37.044  58.920  1.00  0.00     0.022 C 
HETATM   26  C   UNL     1       4.964  38.023  58.015  1.00  0.00     0.007 C 
ENDBRANCH  23  25
ENDBRANCH  21  23
BRANCH  22  27
HETATM   27  C   UNL     1       5.834  36.949  62.453  1.00  0.00     0.038 A 
HETATM   28  C   UNL     1       6.240  38.334  62.028  1.00  0.00     0.011 A 
HETATM   29  C   UNL     1       6.039  38.050  63.476  1.00  0.00     0.011 A 
ENDBRANCH  22  27
ENDBRANCH   1  18
TORSDOF 8
ENDMDL
MODEL 9
REMARK VINA RESULT:      -7.4      4.461     10.925
REMARK  8 active torsions:
REMARK  status: ('A' for Active; 'I' for Inactive)
REMARK    1  A    between atoms: C_2  and  C_3 
REMARK    2  A    between atoms: C_3  and  N_4 
REMARK    3  A    between atoms: C_7  and  C_8 
REMARK       I    between atoms: C_8  and  N_9 
REMARK    4  A    between atoms: N_9  and  C_10 
REMARK    5  A    between atoms: C_13  and  O_14 
REMARK    6  A    between atoms: O_14  and  C_15 
REMARK    7  A    between atoms: C_15  and  C_16 
REMARK       I    between atoms: C_16  and  N_17 
REMARK    8  A    between atoms: C_23  and  C_24 
ROOT
HETATM    1  C   UNL     1       4.061  34.012  60.173  1.00  0.00     0.259 C 
HETATM    2  N   UNL     1       4.843  33.482  59.178  1.00  0.00    -0.323 N 
HETATM    3  O   UNL     1       3.155  34.769  59.815  1.00  0.00    -0.267 OA
HETATM    4  H   UNL     1       4.572  33.895  58.293  1.00  0.00     0.169 HD
ENDROOT
BRANCH   2   5
HETATM    5  C   UNL     1       5.830  32.488  59.108  1.00  0.00     0.035 A 
HETATM    6  C   UNL     1       6.896  32.341  59.993  1.00  0.00     0.032 A 
HETATM    7  C   UNL     1       7.793  31.273  59.843  1.00  0.00     0.039 A 
HETATM    8  C   UNL     1       7.604  30.331  58.834  1.00  0.00     0.069 A 
HETATM    9  C   UNL     1       6.557  30.475  57.933  1.00  0.00     0.039 A 
HETATM   10  C   UNL     1       5.672  31.544  58.078  1.00  0.00     0.032 A 
BRANCH   8  11
HETATM   11  O   UNL     1       8.499  29.301  58.736  1.00  0.00    -0.342 OA
BRANCH  11  12
HETATM   12  C   UNL     1       8.604  28.813  57.395  1.00  0.00     0.278 C 
BRANCH  12  13
HETATM   13  C   UNL     1       8.027  27.408  57.208  1.00  0.00     0.241 C 
HETATM   14  N   UNL     1       7.649  27.119  55.914  1.00  0.00    -0.364 N 
HETATM   15  C   UNL     1       7.046  25.858  55.568  1.00  0.00     0.149 C 
HETATM   16  H   UNL     1       7.579  27.900  55.269  1.00  0.00     0.161 HD
HETATM   17  O   UNL     1       7.956  26.601  58.131  1.00  0.00    -0.271 OA
ENDBRANCH  12  13
ENDBRANCH  11  12
ENDBRANCH   8  11
ENDBRANCH   2   5
BRANCH   1  18
HETATM   18  C   UNL     1       4.357  33.826  61.574  1.00  0.00     0.076 C 
HETATM   19  C   UNL     1       4.045  32.684  62.347  1.00  0.00     0.158 C 
HETATM   20  N   UNL     1       4.610  32.700  63.555  1.00  0.00    -0.183 NA
HETATM   21  N   UNL     1       5.383  33.807  63.528  1.00  0.00    -0.268 N 
HETATM   22  C   UNL     1       5.156  34.591  62.414  1.00  0.00     0.052 C 
BRANCH  21  23
HETATM   23  C   UNL     1       6.358  34.044  64.595  1.00  0.00     0.106 C 
HETATM   24  C   UNL     1       7.609  33.163  64.479  1.00  0.00     0.034 C 
BRANCH  23  25
HETATM   25  C   UNL     1       5.729  33.996  66.000  1.00  0.00     0.022 C 
HETATM   26  C   UNL     1       4.872  35.198  66.367  1.00  0.00     0.007 C 
ENDBRANCH  23  25
ENDBRANCH  21  23
BRANCH  22  27
HETATM   27  C   UNL     1       5.711  36.006  62.237  1.00  0.00     0.038 A 
HETATM   28  C   UNL     1       4.959  37.158  61.628  1.00  0.00     0.011 A 
HETATM   29  C   UNL     1       5.092  37.082  63.109  1.00  0.00     0.011 A 
ENDBRANCH  22  27
ENDBRANCH   1  18
TORSDOF 8
ENDMDL
MODEL 10
REMARK VINA RESULT:      -7.3      4.199      8.142
REMARK  8 active torsions:
REMARK  status: ('A' for Active; 'I' for Inactive)
REMARK    1  A    between atoms: C_2  and  C_3 
REMARK    2  A    between atoms: C_3  and  N_4 
REMARK    3  A    between atoms: C_7  and  C_8 
REMARK       I    between atoms: C_8  and  N_9 
REMARK    4  A    between atoms: N_9  and  C_10 
REMARK    5  A    between atoms: C_13  and  O_14 
REMARK    6  A    between atoms: O_14  and  C_15 
REMARK    7  A    between atoms: C_15  and  C_16 
REMARK       I    between atoms: C_16  and  N_17 
REMARK    8  A    between atoms: C_23  and  C_24 
ROOT
HETATM    1  C   UNL     1       4.585  28.535  54.597  1.00  0.00     0.259 C 
HETATM    2  N   UNL     1       4.411  29.469  53.606  1.00  0.00    -0.323 N 
HETATM    3  O   UNL     1       4.389  28.919  55.753  1.00  0.00    -0.267 OA
HETATM    4  H   UNL     1       4.225  30.370  54.033  1.00  0.00     0.169 HD
ENDROOT
BRANCH   2   5
HETATM    5  C   UNL     1       4.358  29.439  52.205  1.00  0.00     0.035 A 
HETATM    6  C   UNL     1       5.459  29.355  51.355  1.00  0.00     0.032 A 
HETATM    7  C   UNL     1       5.272  29.283  49.966  1.00  0.00     0.039 A 
HETATM    8  C   UNL     1       3.986  29.259  49.429  1.00  0.00     0.069 A 
HETATM    9  C   UNL     1       2.881  29.361  50.264  1.00  0.00     0.039 A 
HETATM   10  C   UNL     1       3.070  29.442  51.644  1.00  0.00     0.032 A 
BRANCH   8  11
HETATM   11  O   UNL     1       3.855  29.177  48.070  1.00  0.00    -0.342 OA
BRANCH  11  12
HETATM   12  C   UNL     1       2.882  28.200  47.687  1.00  0.00     0.278 C 
BRANCH  12  13
HETATM   13  C   UNL     1       3.437  26.775  47.626  1.00  0.00     0.241 C 
HETATM   14  N   UNL     1       2.591  25.815  48.138  1.00  0.00    -0.364 N 
HETATM   15  C   UNL     1       2.972  24.428  48.199  1.00  0.00     0.149 C 
HETATM   16  H   UNL     1       1.805  26.142  48.691  1.00  0.00     0.161 HD
HETATM   17  O   UNL     1       4.526  26.517  47.118  1.00  0.00    -0.271 OA
ENDBRANCH  12  13
ENDBRANCH  11  12
ENDBRANCH   8  11
ENDBRANCH   2   5
BRANCH   1  18
HETATM   18  C   UNL     1       5.112  27.216  54.335  1.00  0.00     0.076 C 
HETATM   19  C   UNL     1       4.490  26.210  53.562  1.00  0.00     0.158 C 
HETATM   20  N   UNL     1       5.287  25.168  53.322  1.00  0.00    -0.183 NA
HETATM   21  N   UNL     1       6.470  25.547  53.850  1.00  0.00    -0.268 N 
HETATM   22  C   UNL     1       6.378  26.707  54.592  1.00  0.00     0.052 C 
BRANCH  21  23
HETATM   23  C   UNL     1       7.677  24.764  53.574  1.00  0.00     0.106 C 
HETATM   24  C   UNL     1       8.050  24.730  52.087  1.00  0.00     0.034 C 
BRANCH  23  25
HETATM   25  C   UNL     1       7.636  23.360  54.207  1.00  0.00     0.022 C 
HETATM   26  C   UNL     1       8.491  22.311  53.512  1.00  0.00     0.007 C 
ENDBRANCH  23  25
ENDBRANCH  21  23
BRANCH  22  27
HETATM   27  C   UNL     1       7.497  27.239  55.491  1.00  0.00     0.038 A 
HETATM   28  C   UNL     1       7.301  27.793  56.876  1.00  0.00     0.011 A 
HETATM   29  C   UNL     1       7.822  26.407  56.717  1.00  0.00     0.011 A 
ENDBRANCH  22  27
ENDBRANCH   1  18
TORSDOF 8
ENDMDL
