MODEL 1
REMARK VINA RESULT:      -8.8      0.000      0.000
REMARK  8 active torsions:
REMARK  status: ('A' for Active; 'I' for Inactive)
REMARK    1  A    between atoms: C_7  and  N_8 
REMARK    2  A    between atoms: N_8  and  C_9 
REMARK    3  A    between atoms: C_9  and  C_10 
REMARK    4  A    between atoms: C_10  and  C_11 
REMARK    5  A    between atoms: C_11  and  O_12 
REMARK    6  A    between atoms: C_14  and  N_15 
REMARK    7  A    between atoms: N_15  and  C_16 
REMARK    8  A    between atoms: C_16  and  C_17 
ROOT
HETATM    1  C   UNL     1       4.980  25.270  51.695  1.00  0.00     0.001 A 
HETATM    2  C   UNL     1       5.387  25.110  53.022  1.00  0.00     0.017 A 
HETATM    3  C   UNL     1       6.006  26.168  53.726  1.00  0.00     0.032 A 
HETATM    4  C   UNL     1       6.154  27.402  53.067  1.00  0.00     0.062 A 
HETATM    5  N   UNL     1       6.689  28.437  53.725  1.00  0.00    -0.189 N 
HETATM    6  H   UNL     1       6.825  29.326  53.266  1.00  0.00     0.184 HD
HETATM    7  C   UNL     1       7.092  28.332  54.991  1.00  0.00     0.702 A 
HETATM    8  N   UNL     1       7.001  27.178  55.677  1.00  0.00    -0.052 NA
HETATM    9  C   UNL     1       6.473  26.111  55.053  1.00  0.00     0.135 A 
HETATM   10  C   UNL     1       5.746  27.555  51.732  1.00  0.00     0.031 A 
HETATM   11  C   UNL     1       5.168  26.487  51.049  1.00  0.00     0.002 A 
ENDROOT
BRANCH   9  12
HETATM   12  N   UNL     1       6.423  24.955  55.833  1.00  0.00    -0.272 NA
HETATM   13  H   UNL     1       6.049  25.255  56.735  1.00  0.00     0.129 HD
BRANCH  12  14
HETATM   14  C   UNL     1       7.736  24.343  56.069  1.00  0.00     0.132 C 
BRANCH  14  15
HETATM   15  C   UNL     1       7.896  23.151  55.153  1.00  0.00    -0.045 A 
HETATM   16  C   UNL     1       8.205  23.331  53.795  1.00  0.00     0.011 A 
HETATM   17  C   UNL     1       8.328  22.227  52.949  1.00  0.00     0.043 A 
HETATM   18  C   UNL     1       8.131  20.948  53.455  1.00  0.00     0.116 A 
HETATM   19  F   UNL     1       8.246  19.891  52.642  1.00  0.00    -0.206 F 
HETATM   20  C   UNL     1       7.812  20.750  54.793  1.00  0.00     0.043 A 
HETATM   21  C   UNL     1       7.690  21.850  55.643  1.00  0.00     0.011 A 
ENDBRANCH  14  15
ENDBRANCH  12  14
ENDBRANCH   9  12
BRANCH   7  22
HETATM   22  N   UNL     1       7.658  29.449  55.560  1.00  0.00    -0.224 N 
HETATM   23  H   UNL     1       7.154  30.327  55.545  1.00  0.00     0.177 HD
BRANCH  22  24
HETATM   24  C   UNL     1       8.594  29.309  56.675  1.00  0.00     0.140 C 
BRANCH  24  25
HETATM   25  C   UNL     1      10.033  29.581  56.248  1.00  0.00     0.046 C 
BRANCH  25  26
HETATM   26  C   UNL     1      10.914  30.090  57.379  1.00  0.00     0.165 C 
BRANCH  26  27
HETATM   27  O   UNL     1      12.268  29.772  57.098  1.00  0.00    -0.401 OA
HETATM   28  H   UNL     1      12.548  29.064  57.708  1.00  0.00     0.209 HD
ENDBRANCH  26  27
ENDBRANCH  25  26
ENDBRANCH  24  25
ENDBRANCH  22  24
ENDBRANCH   7  22
TORSDOF 8
ENDMDL
MODEL 2
REMARK VINA RESULT:      -8.6      1.296      1.913
REMARK  8 active torsions:
REMARK  status: ('A' for Active; 'I' for Inactive)
REMARK    1  A    between atoms: C_7  and  N_8 
REMARK    2  A    between atoms: N_8  and  C_9 
REMARK    3  A    between atoms: C_9  and  C_10 
REMARK    4  A    between atoms: C_10  and  C_11 
REMARK    5  A    between atoms: C_11  and  O_12 
REMARK    6  A    between atoms: C_14  and  N_15 
REMARK    7  A    between atoms: N_15  and  C_16 
REMARK    8  A    between atoms: C_16  and  C_17 
ROOT
HETATM    1  C   UNL     1       4.953  25.551  53.520  1.00  0.00     0.001 A 
HETATM    2  C   UNL     1       5.592  25.079  54.669  1.00  0.00     0.017 A 
HETATM    3  C   UNL     1       6.131  25.974  55.622  1.00  0.00     0.032 A 
HETATM    4  C   UNL     1       5.959  27.353  55.403  1.00  0.00     0.062 A 
HETATM    5  N   UNL     1       6.411  28.222  56.314  1.00  0.00    -0.189 N 
HETATM    6  H   UNL     1       6.318  29.218  56.169  1.00  0.00     0.184 HD
HETATM    7  C   UNL     1       7.027  27.820  57.425  1.00  0.00     0.702 A 
HETATM    8  N   UNL     1       7.246  26.519  57.690  1.00  0.00    -0.052 NA
HETATM    9  C   UNL     1       6.810  25.611  56.800  1.00  0.00     0.135 A 
HETATM   10  C   UNL     1       5.318  27.821  54.245  1.00  0.00     0.031 A 
HETATM   11  C   UNL     1       4.825  26.919  53.304  1.00  0.00     0.002 A 
ENDROOT
BRANCH   9  12
HETATM   12  N   UNL     1       7.084  24.287  57.148  1.00  0.00    -0.272 NA
HETATM   13  H   UNL     1       7.040  24.263  58.168  1.00  0.00     0.129 HD
BRANCH  12  14
HETATM   14  C   UNL     1       8.420  23.833  56.743  1.00  0.00     0.132 C 
BRANCH  14  15
HETATM   15  C   UNL     1       8.281  22.829  55.622  1.00  0.00    -0.045 A 
HETATM   16  C   UNL     1       8.021  21.478  55.902  1.00  0.00     0.011 A 
HETATM   17  C   UNL     1       7.917  20.550  54.863  1.00  0.00     0.043 A 
HETATM   18  C   UNL     1       8.085  20.969  53.549  1.00  0.00     0.116 A 
HETATM   19  F   UNL     1       7.988  20.079  52.554  1.00  0.00    -0.206 F 
HETATM   20  C   UNL     1       8.356  22.299  53.252  1.00  0.00     0.043 A 
HETATM   21  C   UNL     1       8.458  23.231  54.286  1.00  0.00     0.011 A 
ENDBRANCH  14  15
ENDBRANCH  12  14
ENDBRANCH   9  12
BRANCH   7  22
HETATM   22  N   UNL     1       7.481  28.800  58.277  1.00  0.00    -0.224 N 
HETATM   23  H   UNL     1       7.524  28.617  59.272  1.00  0.00     0.177 HD
BRANCH  22  24
HETATM   24  C   UNL     1       8.447  29.791  57.803  1.00  0.00     0.140 C 
BRANCH  24  25
HETATM   25  C   UNL     1       9.691  29.136  57.211  1.00  0.00     0.046 C 
BRANCH  25  26
HETATM   26  C   UNL     1      10.711  30.136  56.688  1.00  0.00     0.165 C 
BRANCH  26  27
HETATM   27  O   UNL     1      12.011  29.736  57.092  1.00  0.00    -0.401 OA
HETATM   28  H   UNL     1      11.933  29.249  57.932  1.00  0.00     0.209 HD
ENDBRANCH  26  27
ENDBRANCH  25  26
ENDBRANCH  24  25
ENDBRANCH  22  24
ENDBRANCH   7  22
TORSDOF 8
ENDMDL
MODEL 3
REMARK VINA RESULT:      -8.5      3.586      5.513
REMARK  8 active torsions:
REMARK  status: ('A' for Active; 'I' for Inactive)
REMARK    1  A    between atoms: C_7  and  N_8 
REMARK    2  A    between atoms: N_8  and  C_9 
REMARK    3  A    between atoms: C_9  and  C_10 
REMARK    4  A    between atoms: C_10  and  C_11 
REMARK    5  A    between atoms: C_11  and  O_12 
REMARK    6  A    between atoms: C_14  and  N_15 
REMARK    7  A    between atoms: N_15  and  C_16 
REMARK    8  A    between atoms: C_16  and  C_17 
ROOT
HETATM    1  C   UNL     1       5.225  28.069  55.520  1.00  0.00     0.001 A 
HETATM    2  C   UNL     1       6.075  27.236  54.789  1.00  0.00     0.017 A 
HETATM    3  C   UNL     1       5.808  26.932  53.434  1.00  0.00     0.032 A 
HETATM    4  C   UNL     1       4.688  27.533  52.831  1.00  0.00     0.062 A 
HETATM    5  N   UNL     1       4.439  27.306  51.536  1.00  0.00    -0.189 N 
HETATM    6  H   UNL     1       3.630  27.710  51.086  1.00  0.00     0.184 HD
HETATM    7  C   UNL     1       5.221  26.518  50.798  1.00  0.00     0.702 A 
HETATM    8  N   UNL     1       6.295  25.893  51.312  1.00  0.00    -0.052 NA
HETATM    9  C   UNL     1       6.580  26.091  52.611  1.00  0.00     0.135 A 
HETATM   10  C   UNL     1       3.836  28.367  53.572  1.00  0.00     0.031 A 
HETATM   11  C   UNL     1       4.103  28.626  54.916  1.00  0.00     0.002 A 
ENDROOT
BRANCH   9  12
HETATM   12  N   UNL     1       7.705  25.400  53.065  1.00  0.00    -0.272 NA
HETATM   13  H   UNL     1       8.500  26.001  52.836  1.00  0.00     0.129 HD
BRANCH  12  14
HETATM   14  C   UNL     1       7.912  24.106  52.403  1.00  0.00     0.132 C 
BRANCH  14  15
HETATM   15  C   UNL     1       7.857  23.008  53.440  1.00  0.00    -0.045 A 
HETATM   16  C   UNL     1       7.748  23.320  54.805  1.00  0.00     0.011 A 
HETATM   17  C   UNL     1       7.722  22.301  55.760  1.00  0.00     0.043 A 
HETATM   18  C   UNL     1       7.818  20.976  55.354  1.00  0.00     0.116 A 
HETATM   19  F   UNL     1       7.797  20.001  56.270  1.00  0.00    -0.206 F 
HETATM   20  C   UNL     1       7.941  20.647  54.009  1.00  0.00     0.043 A 
HETATM   21  C   UNL     1       7.964  21.661  53.051  1.00  0.00     0.011 A 
ENDBRANCH  14  15
ENDBRANCH  12  14
ENDBRANCH   9  12
BRANCH   7  22
HETATM   22  N   UNL     1       4.853  26.327  49.486  1.00  0.00    -0.224 N 
HETATM   23  H   UNL     1       5.059  25.445  49.033  1.00  0.00     0.177 HD
BRANCH  22  24
HETATM   24  C   UNL     1       3.692  27.030  48.942  1.00  0.00     0.140 C 
BRANCH  24  25
HETATM   25  C   UNL     1       3.968  27.594  47.552  1.00  0.00     0.046 C 
BRANCH  25  26
HETATM   26  C   UNL     1       5.424  27.977  47.332  1.00  0.00     0.165 C 
BRANCH  26  27
HETATM   27  O   UNL     1       6.157  26.829  46.934  1.00  0.00    -0.401 OA
HETATM   28  H   UNL     1       5.888  26.595  46.027  1.00  0.00     0.209 HD
ENDBRANCH  26  27
ENDBRANCH  25  26
ENDBRANCH  24  25
ENDBRANCH  22  24
ENDBRANCH   7  22
TORSDOF 8
ENDMDL
MODEL 4
REMARK VINA RESULT:      -8.2      2.646      4.757
REMARK  8 active torsions:
REMARK  status: ('A' for Active; 'I' for Inactive)
REMARK    1  A    between atoms: C_7  and  N_8 
REMARK    2  A    between atoms: N_8  and  C_9 
REMARK    3  A    between atoms: C_9  and  C_10 
REMARK    4  A    between atoms: C_10  and  C_11 
REMARK    5  A    between atoms: C_11  and  O_12 
REMARK    6  A    between atoms: C_14  and  N_15 
REMARK    7  A    between atoms: N_15  and  C_16 
REMARK    8  A    between atoms: C_16  and  C_17 
ROOT
HETATM    1  C   UNL     1       8.207  26.549  57.262  1.00  0.00     0.001 A 
HETATM    2  C   UNL     1       7.582  25.912  56.187  1.00  0.00     0.017 A 
HETATM    3  C   UNL     1       7.079  26.654  55.093  1.00  0.00     0.032 A 
HETATM    4  C   UNL     1       7.273  28.048  55.096  1.00  0.00     0.062 A 
HETATM    5  N   UNL     1       6.855  28.770  54.050  1.00  0.00    -0.189 N 
HETATM    6  H   UNL     1       6.963  29.774  54.040  1.00  0.00     0.184 HD
HETATM    7  C   UNL     1       6.253  28.207  53.003  1.00  0.00     0.702 A 
HETATM    8  N   UNL     1       6.016  26.884  52.940  1.00  0.00    -0.052 NA
HETATM    9  C   UNL     1       6.417  26.121  53.972  1.00  0.00     0.135 A 
HETATM   10  C   UNL     1       7.898  28.682  56.181  1.00  0.00     0.031 A 
HETATM   11  C   UNL     1       8.356  27.932  57.263  1.00  0.00     0.002 A 
ENDROOT
BRANCH   9  12
HETATM   12  N   UNL     1       6.125  24.763  53.830  1.00  0.00    -0.272 NA
HETATM   13  H   UNL     1       6.179  24.376  54.774  1.00  0.00     0.129 HD
BRANCH  12  14
HETATM   14  C   UNL     1       7.084  24.037  52.988  1.00  0.00     0.132 C 
BRANCH  14  15
HETATM   15  C   UNL     1       7.513  22.777  53.704  1.00  0.00    -0.045 A 
HETATM   16  C   UNL     1       7.912  21.643  52.978  1.00  0.00     0.011 A 
HETATM   17  C   UNL     1       8.284  20.475  53.645  1.00  0.00     0.043 A 
HETATM   18  C   UNL     1       8.246  20.434  55.033  1.00  0.00     0.116 A 
HETATM   19  F   UNL     1       8.600  19.312  55.672  1.00  0.00    -0.206 F 
HETATM   20  C   UNL     1       7.842  21.540  55.770  1.00  0.00     0.043 A 
HETATM   21  C   UNL     1       7.471  22.712  55.108  1.00  0.00     0.011 A 
ENDBRANCH  14  15
ENDBRANCH  12  14
ENDBRANCH   9  12
BRANCH   7  22
HETATM   22  N   UNL     1       5.834  29.048  51.998  1.00  0.00    -0.224 N 
HETATM   23  H   UNL     1       6.479  29.306  51.261  1.00  0.00     0.177 HD
BRANCH  22  24
HETATM   24  C   UNL     1       4.426  29.074  51.605  1.00  0.00     0.140 C 
BRANCH  24  25
HETATM   25  C   UNL     1       4.243  28.770  50.121  1.00  0.00     0.046 C 
BRANCH  25  26
HETATM   26  C   UNL     1       4.288  27.284  49.798  1.00  0.00     0.165 C 
BRANCH  26  27
HETATM   27  O   UNL     1       5.632  26.832  49.851  1.00  0.00    -0.401 OA
HETATM   28  H   UNL     1       5.848  26.628  50.780  1.00  0.00     0.209 HD
ENDBRANCH  26  27
ENDBRANCH  25  26
ENDBRANCH  24  25
ENDBRANCH  22  24
ENDBRANCH   7  22
TORSDOF 8
ENDMDL
MODEL 5
REMARK VINA RESULT:      -8.2      3.686      6.582
REMARK  8 active torsions:
REMARK  status: ('A' for Active; 'I' for Inactive)
REMARK    1  A    between atoms: C_7  and  N_8 
REMARK    2  A    between atoms: N_8  and  C_9 
REMARK    3  A    between atoms: C_9  and  C_10 
REMARK    4  A    between atoms: C_10  and  C_11 
REMARK    5  A    between atoms: C_11  and  O_12 
REMARK    6  A    between atoms: C_14  and  N_15 
REMARK    7  A    between atoms: N_15  and  C_16 
REMARK    8  A    between atoms: C_16  and  C_17 
ROOT
HETATM    1  C   UNL     1       8.096  20.579  55.486  1.00  0.00     0.001 A 
HETATM    2  C   UNL     1       7.664  21.869  55.801  1.00  0.00     0.017 A 
HETATM    3  C   UNL     1       7.509  22.852  54.796  1.00  0.00     0.032 A 
HETATM    4  C   UNL     1       7.754  22.475  53.462  1.00  0.00     0.062 A 
HETATM    5  N   UNL     1       7.564  23.368  52.484  1.00  0.00    -0.189 N 
HETATM    6  H   UNL     1       7.754  23.128  51.522  1.00  0.00     0.184 HD
HETATM    7  C   UNL     1       7.154  24.611  52.737  1.00  0.00     0.702 A 
HETATM    8  N   UNL     1       6.921  25.047  53.988  1.00  0.00    -0.052 NA
HETATM    9  C   UNL     1       7.102  24.183  55.002  1.00  0.00     0.135 A 
HETATM   10  C   UNL     1       8.191  21.178  53.152  1.00  0.00     0.031 A 
HETATM   11  C   UNL     1       8.368  20.237  54.165  1.00  0.00     0.002 A 
ENDROOT
BRANCH   9  12
HETATM   12  N   UNL     1       6.845  24.718  56.266  1.00  0.00    -0.272 NA
HETATM   13  H   UNL     1       6.072  25.372  56.129  1.00  0.00     0.129 HD
BRANCH  12  14
HETATM   14  C   UNL     1       7.975  25.465  56.832  1.00  0.00     0.132 C 
BRANCH  14  15
HETATM   15  C   UNL     1       7.556  26.900  57.052  1.00  0.00    -0.045 A 
HETATM   16  C   UNL     1       8.516  27.895  57.299  1.00  0.00     0.011 A 
HETATM   17  C   UNL     1       8.121  29.215  57.525  1.00  0.00     0.043 A 
HETATM   18  C   UNL     1       6.770  29.538  57.517  1.00  0.00     0.116 A 
HETATM   19  F   UNL     1       6.392  30.803  57.738  1.00  0.00    -0.206 F 
HETATM   20  C   UNL     1       5.804  28.567  57.288  1.00  0.00     0.043 A 
HETATM   21  C   UNL     1       6.193  27.247  57.059  1.00  0.00     0.011 A 
ENDBRANCH  14  15
ENDBRANCH  12  14
ENDBRANCH   9  12
BRANCH   7  22
HETATM   22  N   UNL     1       7.024  25.456  51.659  1.00  0.00    -0.224 N 
HETATM   23  H   UNL     1       7.733  25.456  50.936  1.00  0.00     0.177 HD
BRANCH  22  24
HETATM   24  C   UNL     1       5.695  25.860  51.202  1.00  0.00     0.140 C 
BRANCH  24  25
HETATM   25  C   UNL     1       5.391  27.314  51.552  1.00  0.00     0.046 C 
BRANCH  25  26
HETATM   26  C   UNL     1       4.471  27.469  52.754  1.00  0.00     0.165 C 
BRANCH  26  27
HETATM   27  O   UNL     1       4.131  26.185  53.253  1.00  0.00    -0.401 OA
HETATM   28  H   UNL     1       4.458  26.117  54.169  1.00  0.00     0.209 HD
ENDBRANCH  26  27
ENDBRANCH  25  26
ENDBRANCH  24  25
ENDBRANCH  22  24
ENDBRANCH   7  22
TORSDOF 8
ENDMDL
MODEL 6
REMARK VINA RESULT:      -8.2      3.303      5.542
REMARK  8 active torsions:
REMARK  status: ('A' for Active; 'I' for Inactive)
REMARK    1  A    between atoms: C_7  and  N_8 
REMARK    2  A    between atoms: N_8  and  C_9 
REMARK    3  A    between atoms: C_9  and  C_10 
REMARK    4  A    between atoms: C_10  and  C_11 
REMARK    5  A    between atoms: C_11  and  O_12 
REMARK    6  A    between atoms: C_14  and  N_15 
REMARK    7  A    between atoms: N_15  and  C_16 
REMARK    8  A    between atoms: C_16  and  C_17 
ROOT
HETATM    1  C   UNL     1      10.607  29.758  56.589  1.00  0.00     0.001 A 
HETATM    2  C   UNL     1       9.547  29.355  55.774  1.00  0.00     0.017 A 
HETATM    3  C   UNL     1       8.223  29.309  56.271  1.00  0.00     0.032 A 
HETATM    4  C   UNL     1       8.000  29.730  57.595  1.00  0.00     0.062 A 
HETATM    5  N   UNL     1       6.752  29.747  58.075  1.00  0.00    -0.189 N 
HETATM    6  H   UNL     1       6.569  30.025  59.029  1.00  0.00     0.184 HD
HETATM    7  C   UNL     1       5.709  29.371  57.336  1.00  0.00     0.702 A 
HETATM    8  N   UNL     1       5.848  28.937  56.071  1.00  0.00    -0.052 NA
HETATM    9  C   UNL     1       7.087  28.900  55.548  1.00  0.00     0.135 A 
HETATM   10  C   UNL     1       9.071  30.131  58.409  1.00  0.00     0.031 A 
HETATM   11  C   UNL     1      10.371  30.136  57.907  1.00  0.00     0.002 A 
ENDROOT
BRANCH   9  12
HETATM   12  N   UNL     1       7.143  28.431  54.235  1.00  0.00    -0.272 NA
HETATM   13  H   UNL     1       7.004  29.256  53.648  1.00  0.00     0.129 HD
BRANCH  12  14
HETATM   14  C   UNL     1       6.091  27.461  53.907  1.00  0.00     0.132 C 
BRANCH  14  15
HETATM   15  C   UNL     1       6.723  26.107  53.678  1.00  0.00    -0.045 A 
HETATM   16  C   UNL     1       6.771  25.157  54.711  1.00  0.00     0.011 A 
HETATM   17  C   UNL     1       7.377  23.917  54.500  1.00  0.00     0.043 A 
HETATM   18  C   UNL     1       7.945  23.632  53.265  1.00  0.00     0.116 A 
HETATM   19  F   UNL     1       8.529  22.444  53.064  1.00  0.00    -0.206 F 
HETATM   20  C   UNL     1       7.920  24.563  52.233  1.00  0.00     0.043 A 
HETATM   21  C   UNL     1       7.312  25.803  52.438  1.00  0.00     0.011 A 
ENDBRANCH  14  15
ENDBRANCH  12  14
ENDBRANCH   9  12
BRANCH   7  22
HETATM   22  N   UNL     1       4.474  29.396  57.941  1.00  0.00    -0.224 N 
HETATM   23  H   UNL     1       4.355  28.972  58.853  1.00  0.00     0.177 HD
BRANCH  22  24
HETATM   24  C   UNL     1       3.542  30.488  57.657  1.00  0.00     0.140 C 
BRANCH  24  25
HETATM   25  C   UNL     1       3.843  31.725  58.497  1.00  0.00     0.046 C 
BRANCH  25  26
HETATM   26  C   UNL     1       3.413  31.590  59.951  1.00  0.00     0.165 C 
BRANCH  26  27
HETATM   27  O   UNL     1       2.702  30.374  60.119  1.00  0.00    -0.401 OA
HETATM   28  H   UNL     1       3.307  29.637  59.919  1.00  0.00     0.209 HD
ENDBRANCH  26  27
ENDBRANCH  25  26
ENDBRANCH  24  25
ENDBRANCH  22  24
ENDBRANCH   7  22
TORSDOF 8
ENDMDL
MODEL 7
REMARK VINA RESULT:      -8.1      2.004      2.586
REMARK  8 active torsions:
REMARK  status: ('A' for Active; 'I' for Inactive)
REMARK    1  A    between atoms: C_7  and  N_8 
REMARK    2  A    between atoms: N_8  and  C_9 
REMARK    3  A    between atoms: C_9  and  C_10 
REMARK    4  A    between atoms: C_10  and  C_11 
REMARK    5  A    between atoms: C_11  and  O_12 
REMARK    6  A    between atoms: C_14  and  N_15 
REMARK    7  A    between atoms: N_15  and  C_16 
REMARK    8  A    between atoms: C_16  and  C_17 
ROOT
HETATM    1  C   UNL     1       4.644  26.718  49.515  1.00  0.00     0.001 A 
HETATM    2  C   UNL     1       5.074  26.016  50.644  1.00  0.00     0.017 A 
HETATM    3  C   UNL     1       5.622  26.693  51.758  1.00  0.00     0.032 A 
HETATM    4  C   UNL     1       5.674  28.099  51.715  1.00  0.00     0.062 A 
HETATM    5  N   UNL     1       6.139  28.770  52.775  1.00  0.00    -0.189 N 
HETATM    6  H   UNL     1       6.206  29.778  52.760  1.00  0.00     0.184 HD
HETATM    7  C   UNL     1       6.562  28.144  53.873  1.00  0.00     0.702 A 
HETATM    8  N   UNL     1       6.561  26.803  53.977  1.00  0.00    -0.052 NA
HETATM    9  C   UNL     1       6.105  26.089  52.933  1.00  0.00     0.135 A 
HETATM   10  C   UNL     1       5.243  28.798  50.577  1.00  0.00     0.031 A 
HETATM   11  C   UNL     1       4.736  28.106  49.478  1.00  0.00     0.002 A 
ENDROOT
BRANCH   9  12
HETATM   12  N   UNL     1       6.147  24.706  53.120  1.00  0.00    -0.272 NA
HETATM   13  H   UNL     1       5.994  24.565  54.120  1.00  0.00     0.129 HD
BRANCH  12  14
HETATM   14  C   UNL     1       7.438  24.100  52.771  1.00  0.00     0.132 C 
BRANCH  14  15
HETATM   15  C   UNL     1       7.655  22.875  53.628  1.00  0.00    -0.045 A 
HETATM   16  C   UNL     1       7.603  22.964  55.029  1.00  0.00     0.011 A 
HETATM   17  C   UNL     1       7.828  21.833  55.816  1.00  0.00     0.043 A 
HETATM   18  C   UNL     1       8.117  20.618  55.206  1.00  0.00     0.116 A 
HETATM   19  F   UNL     1       8.337  19.535  55.961  1.00  0.00    -0.206 F 
HETATM   20  C   UNL     1       8.187  20.512  53.822  1.00  0.00     0.043 A 
HETATM   21  C   UNL     1       7.960  21.638  53.031  1.00  0.00     0.011 A 
ENDBRANCH  14  15
ENDBRANCH  12  14
ENDBRANCH   9  12
BRANCH   7  22
HETATM   22  N   UNL     1       7.051  28.930  54.891  1.00  0.00    -0.224 N 
HETATM   23  H   UNL     1       6.408  29.351  55.550  1.00  0.00     0.177 HD
BRANCH  22  24
HETATM   24  C   UNL     1       8.391  28.688  55.424  1.00  0.00     0.140 C 
BRANCH  24  25
HETATM   25  C   UNL     1       8.358  28.349  56.911  1.00  0.00     0.046 C 
BRANCH  25  26
HETATM   26  C   UNL     1       8.107  26.876  57.192  1.00  0.00     0.165 C 
BRANCH  26  27
HETATM   27  O   UNL     1       6.722  26.600  57.045  1.00  0.00    -0.401 OA
HETATM   28  H   UNL     1       6.524  26.531  56.093  1.00  0.00     0.209 HD
ENDBRANCH  26  27
ENDBRANCH  25  26
ENDBRANCH  24  25
ENDBRANCH  22  24
ENDBRANCH   7  22
TORSDOF 8
ENDMDL
MODEL 8
REMARK VINA RESULT:      -8.1      3.879      6.796
REMARK  8 active torsions:
REMARK  status: ('A' for Active; 'I' for Inactive)
REMARK    1  A    between atoms: C_7  and  N_8 
REMARK    2  A    between atoms: N_8  and  C_9 
REMARK    3  A    between atoms: C_9  and  C_10 
REMARK    4  A    between atoms: C_10  and  C_11 
REMARK    5  A    between atoms: C_11  and  O_12 
REMARK    6  A    between atoms: C_14  and  N_15 
REMARK    7  A    between atoms: N_15  and  C_16 
REMARK    8  A    between atoms: C_16  and  C_17 
ROOT
HETATM    1  C   UNL     1       8.148  23.180  55.456  1.00  0.00     0.001 A 
HETATM    2  C   UNL     1       7.127  24.129  55.537  1.00  0.00     0.017 A 
HETATM    3  C   UNL     1       6.479  24.604  54.373  1.00  0.00     0.032 A 
HETATM    4  C   UNL     1       6.860  24.053  53.136  1.00  0.00     0.062 A 
HETATM    5  N   UNL     1       6.228  24.443  52.023  1.00  0.00    -0.189 N 
HETATM    6  H   UNL     1       6.498  24.078  51.120  1.00  0.00     0.184 HD
HETATM    7  C   UNL     1       5.249  25.347  52.050  1.00  0.00     0.702 A 
HETATM    8  N   UNL     1       4.847  25.931  53.193  1.00  0.00    -0.052 NA
HETATM    9  C   UNL     1       5.457  25.570  54.336  1.00  0.00     0.135 A 
HETATM   10  C   UNL     1       7.889  23.101  53.061  1.00  0.00     0.031 A 
HETATM   11  C   UNL     1       8.535  22.673  54.219  1.00  0.00     0.002 A 
ENDROOT
BRANCH   9  12
HETATM   12  N   UNL     1       4.986  26.230  55.472  1.00  0.00    -0.272 NA
HETATM   13  H   UNL     1       3.991  26.001  55.522  1.00  0.00     0.129 HD
BRANCH  12  14
HETATM   14  C   UNL     1       5.111  27.691  55.404  1.00  0.00     0.132 C 
BRANCH  14  15
HETATM   15  C   UNL     1       6.441  28.099  55.993  1.00  0.00    -0.045 A 
HETATM   16  C   UNL     1       6.664  28.018  57.377  1.00  0.00     0.011 A 
HETATM   17  C   UNL     1       7.887  28.420  57.918  1.00  0.00     0.043 A 
HETATM   18  C   UNL     1       8.880  28.914  57.081  1.00  0.00     0.116 A 
HETATM   19  F   UNL     1      10.051  29.302  57.601  1.00  0.00    -0.206 F 
HETATM   20  C   UNL     1       8.674  29.015  55.710  1.00  0.00     0.043 A 
HETATM   21  C   UNL     1       7.455  28.612  55.164  1.00  0.00     0.011 A 
ENDBRANCH  14  15
ENDBRANCH  12  14
ENDBRANCH   9  12
BRANCH   7  22
HETATM   22  N   UNL     1       4.692  25.699  50.843  1.00  0.00    -0.224 N 
HETATM   23  H   UNL     1       3.756  25.387  50.614  1.00  0.00     0.177 HD
BRANCH  22  24
HETATM   24  C   UNL     1       5.089  26.946  50.190  1.00  0.00     0.140 C 
BRANCH  24  25
HETATM   25  C   UNL     1       4.338  27.167  48.880  1.00  0.00     0.046 C 
BRANCH  25  26
HETATM   26  C   UNL     1       5.175  27.852  47.810  1.00  0.00     0.165 C 
BRANCH  26  27
HETATM   27  O   UNL     1       5.817  26.868  47.014  1.00  0.00    -0.401 OA
HETATM   28  H   UNL     1       5.157  26.192  46.774  1.00  0.00     0.209 HD
ENDBRANCH  26  27
ENDBRANCH  25  26
ENDBRANCH  24  25
ENDBRANCH  22  24
ENDBRANCH   7  22
TORSDOF 8
ENDMDL
MODEL 9
REMARK VINA RESULT:      -8.0      2.368      4.734
REMARK  8 active torsions:
REMARK  status: ('A' for Active; 'I' for Inactive)
REMARK    1  A    between atoms: C_7  and  N_8 
REMARK    2  A    between atoms: N_8  and  C_9 
REMARK    3  A    between atoms: C_9  and  C_10 
REMARK    4  A    between atoms: C_10  and  C_11 
REMARK    5  A    between atoms: C_11  and  O_12 
REMARK    6  A    between atoms: C_14  and  N_15 
REMARK    7  A    between atoms: N_15  and  C_16 
REMARK    8  A    between atoms: C_16  and  C_17 
ROOT
HETATM    1  C   UNL     1       7.960  28.960  58.118  1.00  0.00     0.001 A 
HETATM    2  C   UNL     1       7.986  27.780  57.371  1.00  0.00     0.017 A 
HETATM    3  C   UNL     1       7.119  27.597  56.269  1.00  0.00     0.032 A 
HETATM    4  C   UNL     1       6.265  28.659  55.917  1.00  0.00     0.062 A 
HETATM    5  N   UNL     1       5.472  28.535  54.847  1.00  0.00    -0.189 N 
HETATM    6  H   UNL     1       4.835  29.275  54.587  1.00  0.00     0.184 HD
HETATM    7  C   UNL     1       5.460  27.428  54.105  1.00  0.00     0.702 A 
HETATM    8  N   UNL     1       6.233  26.365  54.393  1.00  0.00    -0.052 NA
HETATM    9  C   UNL     1       7.044  26.446  55.462  1.00  0.00     0.135 A 
HETATM   10  C   UNL     1       6.243  29.841  56.673  1.00  0.00     0.031 A 
HETATM   11  C   UNL     1       7.084  29.985  57.775  1.00  0.00     0.002 A 
ENDROOT
BRANCH   9  12
HETATM   12  N   UNL     1       7.804  25.298  55.695  1.00  0.00    -0.272 NA
HETATM   13  H   UNL     1       8.281  25.108  54.812  1.00  0.00     0.129 HD
BRANCH  12  14
HETATM   14  C   UNL     1       7.003  24.117  56.039  1.00  0.00     0.132 C 
BRANCH  14  15
HETATM   15  C   UNL     1       7.371  22.984  55.110  1.00  0.00    -0.045 A 
HETATM   16  C   UNL     1       7.619  21.697  55.616  1.00  0.00     0.011 A 
HETATM   17  C   UNL     1       7.982  20.660  54.755  1.00  0.00     0.043 A 
HETATM   18  C   UNL     1       8.110  20.909  53.394  1.00  0.00     0.116 A 
HETATM   19  F   UNL     1       8.462  19.915  52.570  1.00  0.00    -0.206 F 
HETATM   20  C   UNL     1       7.883  22.178  52.875  1.00  0.00     0.043 A 
HETATM   21  C   UNL     1       7.517  23.218  53.731  1.00  0.00     0.011 A 
ENDBRANCH  14  15
ENDBRANCH  12  14
ENDBRANCH   9  12
BRANCH   7  22
HETATM   22  N   UNL     1       4.581  27.395  53.047  1.00  0.00    -0.224 N 
HETATM   23  H   UNL     1       3.614  27.142  53.209  1.00  0.00     0.177 HD
BRANCH  22  24
HETATM   24  C   UNL     1       4.792  28.268  51.893  1.00  0.00     0.140 C 
BRANCH  24  25
HETATM   25  C   UNL     1       5.103  27.472  50.628  1.00  0.00     0.046 C 
BRANCH  25  26
HETATM   26  C   UNL     1       5.224  25.975  50.869  1.00  0.00     0.165 C 
BRANCH  26  27
HETATM   27  O   UNL     1       6.551  25.669  51.269  1.00  0.00    -0.401 OA
HETATM   28  H   UNL     1       6.689  24.711  51.158  1.00  0.00     0.209 HD
ENDBRANCH  26  27
ENDBRANCH  25  26
ENDBRANCH  24  25
ENDBRANCH  22  24
ENDBRANCH   7  22
TORSDOF 8
ENDMDL
MODEL 10
REMARK VINA RESULT:      -8.0      3.653      6.688
REMARK  8 active torsions:
REMARK  status: ('A' for Active; 'I' for Inactive)
REMARK    1  A    between atoms: C_7  and  N_8 
REMARK    2  A    between atoms: N_8  and  C_9 
REMARK    3  A    between atoms: C_9  and  C_10 
REMARK    4  A    between atoms: C_10  and  C_11 
REMARK    5  A    between atoms: C_11  and  O_12 
REMARK    6  A    between atoms: C_14  and  N_15 
REMARK    7  A    between atoms: N_15  and  C_16 
REMARK    8  A    between atoms: C_16  and  C_17 
ROOT
HETATM    1  C   UNL     1       9.109  22.524  55.024  1.00  0.00     0.001 A 
HETATM    2  C   UNL     1       8.620  23.648  55.696  1.00  0.00     0.017 A 
HETATM    3  C   UNL     1       7.564  24.417  55.156  1.00  0.00     0.032 A 
HETATM    4  C   UNL     1       6.986  23.988  53.947  1.00  0.00     0.062 A 
HETATM    5  N   UNL     1       5.950  24.665  53.439  1.00  0.00    -0.189 N 
HETATM    6  H   UNL     1       5.533  24.389  52.562  1.00  0.00     0.184 HD
HETATM    7  C   UNL     1       5.451  25.743  54.044  1.00  0.00     0.702 A 
HETATM    8  N   UNL     1       5.966  26.223  55.190  1.00  0.00    -0.052 NA
HETATM    9  C   UNL     1       7.010  25.574  55.734  1.00  0.00     0.135 A 
HETATM   10  C   UNL     1       7.483  22.860  53.276  1.00  0.00     0.031 A 
HETATM   11  C   UNL     1       8.547  22.137  53.812  1.00  0.00     0.002 A 
ENDROOT
BRANCH   9  12
HETATM   12  N   UNL     1       7.487  26.143  56.917  1.00  0.00    -0.272 NA
HETATM   13  H   UNL     1       7.258  25.469  57.650  1.00  0.00     0.129 HD
BRANCH  12  14
HETATM   14  C   UNL     1       6.847  27.418  57.260  1.00  0.00     0.132 C 
BRANCH  14  15
HETATM   15  C   UNL     1       7.915  28.467  57.464  1.00  0.00    -0.045 A 
HETATM   16  C   UNL     1       9.154  28.360  56.811  1.00  0.00     0.011 A 
HETATM   17  C   UNL     1      10.147  29.320  57.022  1.00  0.00     0.043 A 
HETATM   18  C   UNL     1       9.907  30.376  57.893  1.00  0.00     0.116 A 
HETATM   19  F   UNL     1      10.860  31.293  58.097  1.00  0.00    -0.206 F 
HETATM   20  C   UNL     1       8.693  30.492  58.559  1.00  0.00     0.043 A 
HETATM   21  C   UNL     1       7.697  29.537  58.350  1.00  0.00     0.011 A 
ENDBRANCH  14  15
ENDBRANCH  12  14
ENDBRANCH   9  12
BRANCH   7  22
HETATM   22  N   UNL     1       4.407  26.383  53.416  1.00  0.00    -0.224 N 
HETATM   23  H   UNL     1       3.454  26.142  53.660  1.00  0.00     0.177 HD
BRANCH  22  24
HETATM   24  C   UNL     1       4.577  27.748  52.920  1.00  0.00     0.140 C 
BRANCH  24  25
HETATM   25  C   UNL     1       4.196  27.870  51.448  1.00  0.00     0.046 C 
BRANCH  25  26
HETATM   26  C   UNL     1       5.361  27.631  50.499  1.00  0.00     0.165 C 
BRANCH  26  27
HETATM   27  O   UNL     1       5.899  26.339  50.733  1.00  0.00    -0.401 OA
HETATM   28  H   UNL     1       6.249  26.313  51.642  1.00  0.00     0.209 HD
ENDBRANCH  26  27
ENDBRANCH  25  26
ENDBRANCH  24  25
ENDBRANCH  22  24
ENDBRANCH   7  22
TORSDOF 8
ENDMDL
