MODEL 1
REMARK VINA RESULT:     -10.0      0.000      0.000
REMARK  5 active torsions:
REMARK  status: ('A' for Active; 'I' for Inactive)
REMARK    1  A    between atoms: C_2  and  C_3 
REMARK    2  A    between atoms: C_2  and  C_9 
REMARK    3  A    between atoms: C_9  and  C_10 
REMARK       I    between atoms: C_10  and  N_11 
REMARK    4  A    between atoms: N_11  and  C_12 
REMARK    5  A    between atoms: C_19  and  C_20 
REMARK       I    between atoms: C_20  and  N_21 
ROOT
HETATM    1  C   UNL     1       8.416  28.379  57.116  1.00  0.00     0.035 A 
HETATM    2  C   UNL     1       7.827  29.237  58.055  1.00  0.00     0.046 A 
HETATM    3  C   UNL     1       8.529  30.383  58.489  1.00  0.00     0.030 A 
HETATM    4  C   UNL     1       9.798  30.627  57.977  1.00  0.00     0.063 A 
HETATM    5  N   UNL     1      10.219  31.776  58.586  1.00  0.00    -0.277 N 
HETATM    6  H   UNL     1      11.106  32.249  58.456  1.00  0.00     0.189 HD
HETATM    7  N   UNL     1       9.333  32.312  59.440  1.00  0.00    -0.168 NA
HETATM    8  C   UNL     1       8.279  31.466  59.387  1.00  0.00     0.156 A 
HETATM    9  C   UNL     1      10.410  29.800  57.036  1.00  0.00     0.034 A 
HETATM   10  C   UNL     1       9.689  28.676  56.612  1.00  0.00     0.032 A 
ENDROOT
BRANCH   1  11
HETATM   11  N   UNL     1       7.781  27.224  56.606  1.00  0.00    -0.327 N 
HETATM   12  C   UNL     1       7.732  25.973  57.188  1.00  0.00     0.222 C 
HETATM   13  O   UNL     1       8.300  25.643  58.225  1.00  0.00    -0.273 OA
HETATM   14  H   UNL     1       7.429  27.306  55.663  1.00  0.00     0.169 HD
BRANCH  12  15
HETATM   15  C   UNL     1       6.806  24.974  56.502  1.00  0.00     0.112 C 
BRANCH  15  16
HETATM   16  C   UNL     1       7.047  24.670  55.014  1.00  0.00     0.023 C 
HETATM   17  C   UNL     1       5.810  25.069  54.199  1.00  0.00     0.015 C 
BRANCH  16  18
HETATM   18  C   UNL     1       7.418  23.232  54.701  1.00  0.00    -0.054 A 
HETATM   19  C   UNL     1       7.557  22.261  55.704  1.00  0.00     0.007 A 
HETATM   20  C   UNL     1       7.885  20.944  55.377  1.00  0.00     0.001 A 
HETATM   21  C   UNL     1       8.068  20.575  54.046  1.00  0.00     0.000 A 
HETATM   22  C   UNL     1       7.923  21.524  53.039  1.00  0.00     0.001 A 
HETATM   23  C   UNL     1       7.597  22.842  53.363  1.00  0.00     0.007 A 
ENDBRANCH  16  18
ENDBRANCH  15  16
ENDBRANCH  12  15
ENDBRANCH   1  11
BRANCH   8  24
HETATM   24  C   UNL     1       7.067  31.712  60.181  1.00  0.00     0.270 C 
HETATM   25  N   UNL     1       7.103  31.171  61.437  1.00  0.00    -0.365 N 
HETATM   26  H   UNL     1       7.934  30.666  61.725  1.00  0.00     0.159 HD
HETATM   27  H   UNL     1       6.319  31.298  62.058  1.00  0.00     0.159 HD
HETATM   28  O   UNL     1       6.092  32.347  59.794  1.00  0.00    -0.266 OA
ENDBRANCH   8  24
TORSDOF 5
ENDMDL
MODEL 2
REMARK VINA RESULT:      -9.3      1.653      2.238
REMARK  5 active torsions:
REMARK  status: ('A' for Active; 'I' for Inactive)
REMARK    1  A    between atoms: C_2  and  C_3 
REMARK    2  A    between atoms: C_2  and  C_9 
REMARK    3  A    between atoms: C_9  and  C_10 
REMARK       I    between atoms: C_10  and  N_11 
REMARK    4  A    between atoms: N_11  and  C_12 
REMARK    5  A    between atoms: C_19  and  C_20 
REMARK       I    between atoms: C_20  and  N_21 
ROOT
HETATM    1  C   UNL     1       7.639  28.089  57.171  1.00  0.00     0.035 A 
HETATM    2  C   UNL     1       8.385  29.105  57.786  1.00  0.00     0.046 A 
HETATM    3  C   UNL     1       7.737  30.287  58.208  1.00  0.00     0.030 A 
HETATM    4  C   UNL     1       6.370  30.416  57.995  1.00  0.00     0.063 A 
HETATM    5  N   UNL     1       6.042  31.648  58.488  1.00  0.00    -0.277 N 
HETATM    6  H   UNL     1       5.125  32.081  58.496  1.00  0.00     0.189 HD
HETATM    7  N   UNL     1       7.070  32.330  59.017  1.00  0.00    -0.168 NA
HETATM    8  C   UNL     1       8.126  31.499  58.857  1.00  0.00     0.156 A 
HETATM    9  C   UNL     1       5.596  29.423  57.395  1.00  0.00     0.034 A 
HETATM   10  C   UNL     1       6.259  28.255  56.995  1.00  0.00     0.032 A 
ENDROOT
BRANCH   1  11
HETATM   11  N   UNL     1       8.195  26.865  56.737  1.00  0.00    -0.327 N 
HETATM   12  C   UNL     1       8.275  25.685  57.448  1.00  0.00     0.222 C 
HETATM   13  O   UNL     1       7.934  25.529  58.618  1.00  0.00    -0.273 OA
HETATM   14  H   UNL     1       8.683  26.902  55.854  1.00  0.00     0.169 HD
BRANCH  12  15
HETATM   15  C   UNL     1       8.746  24.475  56.649  1.00  0.00     0.112 C 
BRANCH  15  16
HETATM   16  C   UNL     1       7.978  24.113  55.368  1.00  0.00     0.023 C 
HETATM   17  C   UNL     1       6.477  24.351  55.580  1.00  0.00     0.015 C 
BRANCH  16  18
HETATM   18  C   UNL     1       8.199  22.699  54.860  1.00  0.00    -0.054 A 
HETATM   19  C   UNL     1       8.571  21.649  55.712  1.00  0.00     0.007 A 
HETATM   20  C   UNL     1       8.751  20.358  55.213  1.00  0.00     0.001 A 
HETATM   21  C   UNL     1       8.552  20.094  53.860  1.00  0.00     0.000 A 
HETATM   22  C   UNL     1       8.171  21.123  53.003  1.00  0.00     0.001 A 
HETATM   23  C   UNL     1       7.992  22.415  53.499  1.00  0.00     0.007 A 
ENDBRANCH  16  18
ENDBRANCH  15  16
ENDBRANCH  12  15
ENDBRANCH   1  11
BRANCH   8  24
HETATM   24  C   UNL     1       9.466  31.874  59.330  1.00  0.00     0.270 C 
HETATM   25  N   UNL     1       9.559  32.017  60.688  1.00  0.00    -0.365 N 
HETATM   26  H   UNL     1       8.733  31.852  61.251  1.00  0.00     0.159 HD
HETATM   27  H   UNL     1      10.443  32.263  61.104  1.00  0.00     0.159 HD
HETATM   28  O   UNL     1      10.443  32.044  58.608  1.00  0.00    -0.266 OA
ENDBRANCH   8  24
TORSDOF 5
ENDMDL
MODEL 3
REMARK VINA RESULT:      -9.2      2.399      3.052
REMARK  5 active torsions:
REMARK  status: ('A' for Active; 'I' for Inactive)
REMARK    1  A    between atoms: C_2  and  C_3 
REMARK    2  A    between atoms: C_2  and  C_9 
REMARK    3  A    between atoms: C_9  and  C_10 
REMARK       I    between atoms: C_10  and  N_11 
REMARK    4  A    between atoms: N_11  and  C_12 
REMARK    5  A    between atoms: C_19  and  C_20 
REMARK       I    between atoms: C_20  and  N_21 
ROOT
HETATM    1  C   UNL     1       6.070  28.501  55.404  1.00  0.00     0.035 A 
HETATM    2  C   UNL     1       6.874  28.902  56.480  1.00  0.00     0.046 A 
HETATM    3  C   UNL     1       6.605  30.125  57.133  1.00  0.00     0.030 A 
HETATM    4  C   UNL     1       5.548  30.907  56.685  1.00  0.00     0.063 A 
HETATM    5  N   UNL     1       5.548  32.012  57.491  1.00  0.00    -0.277 N 
HETATM    6  H   UNL     1       4.914  32.802  57.447  1.00  0.00     0.189 HD
HETATM    7  N   UNL     1       6.503  32.015  58.434  1.00  0.00    -0.168 NA
HETATM    8  C   UNL     1       7.162  30.850  58.231  1.00  0.00     0.156 A 
HETATM    9  C   UNL     1       4.722  30.535  55.624  1.00  0.00     0.034 A 
HETATM   10  C   UNL     1       5.002  29.313  54.999  1.00  0.00     0.032 A 
ENDROOT
BRANCH   1  11
HETATM   11  N   UNL     1       6.248  27.286  54.704  1.00  0.00    -0.327 N 
HETATM   12  C   UNL     1       5.834  26.029  55.095  1.00  0.00     0.222 C 
HETATM   13  O   UNL     1       5.297  25.751  56.164  1.00  0.00    -0.273 OA
HETATM   14  H   UNL     1       6.843  27.341  53.890  1.00  0.00     0.169 HD
BRANCH  12  15
HETATM   15  C   UNL     1       5.990  24.937  54.042  1.00  0.00     0.112 C 
BRANCH  15  16
HETATM   16  C   UNL     1       7.411  24.450  53.713  1.00  0.00     0.023 C 
HETATM   17  C   UNL     1       7.746  24.781  52.252  1.00  0.00     0.015 C 
BRANCH  16  18
HETATM   18  C   UNL     1       7.664  22.975  53.968  1.00  0.00    -0.054 A 
HETATM   19  C   UNL     1       8.000  22.086  52.936  1.00  0.00     0.007 A 
HETATM   20  C   UNL     1       8.240  20.738  53.210  1.00  0.00     0.001 A 
HETATM   21  C   UNL     1       8.159  20.261  54.516  1.00  0.00     0.000 A 
HETATM   22  C   UNL     1       7.838  21.133  55.553  1.00  0.00     0.001 A 
HETATM   23  C   UNL     1       7.596  22.481  55.282  1.00  0.00     0.007 A 
ENDBRANCH  16  18
ENDBRANCH  15  16
ENDBRANCH  12  15
ENDBRANCH   1  11
BRANCH   8  24
HETATM   24  C   UNL     1       8.292  30.458  59.085  1.00  0.00     0.270 C 
HETATM   25  N   UNL     1       8.016  30.490  60.425  1.00  0.00    -0.365 N 
HETATM   26  H   UNL     1       7.086  30.761  60.722  1.00  0.00     0.159 HD
HETATM   27  H   UNL     1       8.728  30.227  61.087  1.00  0.00     0.159 HD
HETATM   28  O   UNL     1       9.397  30.118  58.675  1.00  0.00    -0.266 OA
ENDBRANCH   8  24
TORSDOF 5
ENDMDL
MODEL 4
REMARK VINA RESULT:      -9.1      5.910      8.753
REMARK  5 active torsions:
REMARK  status: ('A' for Active; 'I' for Inactive)
REMARK    1  A    between atoms: C_2  and  C_3 
REMARK    2  A    between atoms: C_2  and  C_9 
REMARK    3  A    between atoms: C_9  and  C_10 
REMARK       I    between atoms: C_10  and  N_11 
REMARK    4  A    between atoms: N_11  and  C_12 
REMARK    5  A    between atoms: C_19  and  C_20 
REMARK       I    between atoms: C_20  and  N_21 
ROOT
HETATM    1  C   UNL     1       5.506  26.658  51.426  1.00  0.00     0.035 A 
HETATM    2  C   UNL     1       4.776  25.976  50.444  1.00  0.00     0.046 A 
HETATM    3  C   UNL     1       4.283  26.683  49.325  1.00  0.00     0.030 A 
HETATM    4  C   UNL     1       4.531  28.047  49.230  1.00  0.00     0.063 A 
HETATM    5  N   UNL     1       3.928  28.445  48.069  1.00  0.00    -0.277 N 
HETATM    6  H   UNL     1       3.900  29.382  47.683  1.00  0.00     0.189 HD
HETATM    7  N   UNL     1       3.320  27.460  47.390  1.00  0.00    -0.168 NA
HETATM    8  C   UNL     1       3.536  26.361  48.150  1.00  0.00     0.156 A 
HETATM    9  C   UNL     1       5.260  28.756  50.185  1.00  0.00     0.034 A 
HETATM   10  C   UNL     1       5.748  28.031  51.280  1.00  0.00     0.032 A 
ENDROOT
BRANCH   1  11
HETATM   11  N   UNL     1       6.057  26.032  52.568  1.00  0.00    -0.327 N 
HETATM   12  C   UNL     1       7.286  25.412  52.669  1.00  0.00     0.222 C 
HETATM   13  O   UNL     1       8.081  25.243  51.748  1.00  0.00    -0.273 OA
HETATM   14  H   UNL     1       5.427  25.935  53.351  1.00  0.00     0.169 HD
BRANCH  12  15
HETATM   15  C   UNL     1       7.692  25.002  54.080  1.00  0.00     0.112 C 
BRANCH  15  16
HETATM   16  C   UNL     1       6.930  23.842  54.742  1.00  0.00     0.023 C 
HETATM   17  C   UNL     1       6.752  24.128  56.239  1.00  0.00     0.015 C 
BRANCH  16  18
HETATM   18  C   UNL     1       7.556  22.471  54.560  1.00  0.00    -0.054 A 
HETATM   19  C   UNL     1       7.871  21.957  53.294  1.00  0.00     0.007 A 
HETATM   20  C   UNL     1       8.461  20.697  53.165  1.00  0.00     0.001 A 
HETATM   21  C   UNL     1       8.753  19.939  54.297  1.00  0.00     0.000 A 
HETATM   22  C   UNL     1       8.456  20.441  55.561  1.00  0.00     0.001 A 
HETATM   23  C   UNL     1       7.866  21.699  55.693  1.00  0.00     0.007 A 
ENDBRANCH  16  18
ENDBRANCH  15  16
ENDBRANCH  12  15
ENDBRANCH   1  11
BRANCH   8  24
HETATM   24  C   UNL     1       3.036  25.042  47.737  1.00  0.00     0.270 C 
HETATM   25  N   UNL     1       2.668  24.971  46.422  1.00  0.00    -0.365 N 
HETATM   26  H   UNL     1       2.771  25.797  45.844  1.00  0.00     0.159 HD
HETATM   27  H   UNL     1       2.323  24.102  46.046  1.00  0.00     0.159 HD
HETATM   28  O   UNL     1       2.949  24.064  48.472  1.00  0.00    -0.266 OA
ENDBRANCH   8  24
TORSDOF 5
ENDMDL
MODEL 5
REMARK VINA RESULT:      -9.1      1.826      2.027
REMARK  5 active torsions:
REMARK  status: ('A' for Active; 'I' for Inactive)
REMARK    1  A    between atoms: C_2  and  C_3 
REMARK    2  A    between atoms: C_2  and  C_9 
REMARK    3  A    between atoms: C_9  and  C_10 
REMARK       I    between atoms: C_10  and  N_11 
REMARK    4  A    between atoms: N_11  and  C_12 
REMARK    5  A    between atoms: C_19  and  C_20 
REMARK       I    between atoms: C_20  and  N_21 
ROOT
HETATM    1  C   UNL     1       7.415  28.101  56.437  1.00  0.00     0.035 A 
HETATM    2  C   UNL     1       6.381  28.964  56.826  1.00  0.00     0.046 A 
HETATM    3  C   UNL     1       6.674  30.082  57.639  1.00  0.00     0.030 A 
HETATM    4  C   UNL     1       7.987  30.294  58.039  1.00  0.00     0.063 A 
HETATM    5  N   UNL     1       7.952  31.422  58.812  1.00  0.00    -0.277 N 
HETATM    6  H   UNL     1       8.733  31.869  59.279  1.00  0.00     0.189 HD
HETATM    7  N   UNL     1       6.735  31.973  58.940  1.00  0.00    -0.168 NA
HETATM    8  C   UNL     1       5.933  31.159  58.214  1.00  0.00     0.156 A 
HETATM    9  C   UNL     1       9.041  29.461  57.665  1.00  0.00     0.034 A 
HETATM   10  C   UNL     1       8.728  28.366  56.850  1.00  0.00     0.032 A 
ENDROOT
BRANCH   1  11
HETATM   11  N   UNL     1       7.221  26.972  55.609  1.00  0.00    -0.327 N 
HETATM   12  C   UNL     1       6.945  25.681  56.009  1.00  0.00     0.222 C 
HETATM   13  O   UNL     1       6.892  25.287  57.171  1.00  0.00    -0.273 OA
HETATM   14  H   UNL     1       7.422  27.117  54.630  1.00  0.00     0.169 HD
BRANCH  12  15
HETATM   15  C   UNL     1       6.590  24.714  54.885  1.00  0.00     0.112 C 
BRANCH  15  16
HETATM   16  C   UNL     1       7.733  24.181  54.004  1.00  0.00     0.023 C 
HETATM   17  C   UNL     1       7.411  24.440  52.527  1.00  0.00     0.015 C 
BRANCH  16  18
HETATM   18  C   UNL     1       8.066  22.712  54.199  1.00  0.00    -0.054 A 
HETATM   19  C   UNL     1       8.290  22.160  55.469  1.00  0.00     0.007 A 
HETATM   20  C   UNL     1       8.580  20.801  55.612  1.00  0.00     0.001 A 
HETATM   21  C   UNL     1       8.640  19.975  54.492  1.00  0.00     0.000 A 
HETATM   22  C   UNL     1       8.409  20.506  53.226  1.00  0.00     0.001 A 
HETATM   23  C   UNL     1       8.120  21.864  53.080  1.00  0.00     0.007 A 
ENDBRANCH  16  18
ENDBRANCH  15  16
ENDBRANCH  12  15
ENDBRANCH   1  11
BRANCH   8  24
HETATM   24  C   UNL     1       4.495  31.432  58.082  1.00  0.00     0.270 C 
HETATM   25  N   UNL     1       3.693  30.495  58.675  1.00  0.00    -0.365 N 
HETATM   26  H   UNL     1       4.129  29.715  59.153  1.00  0.00     0.159 HD
HETATM   27  H   UNL     1       2.692  30.604  58.645  1.00  0.00     0.159 HD
HETATM   28  O   UNL     1       4.015  32.404  57.509  1.00  0.00    -0.266 OA
ENDBRANCH   8  24
TORSDOF 5
ENDMDL
MODEL 6
REMARK VINA RESULT:      -8.5      3.582      4.339
REMARK  5 active torsions:
REMARK  status: ('A' for Active; 'I' for Inactive)
REMARK    1  A    between atoms: C_2  and  C_3 
REMARK    2  A    between atoms: C_2  and  C_9 
REMARK    3  A    between atoms: C_9  and  C_10 
REMARK       I    between atoms: C_10  and  N_11 
REMARK    4  A    between atoms: N_11  and  C_12 
REMARK    5  A    between atoms: C_19  and  C_20 
REMARK       I    between atoms: C_20  and  N_21 
ROOT
HETATM    1  C   UNL     1       4.705  28.190  55.108  1.00  0.00     0.035 A 
HETATM    2  C   UNL     1       4.558  28.945  56.280  1.00  0.00     0.046 A 
HETATM    3  C   UNL     1       3.874  30.179  56.234  1.00  0.00     0.030 A 
HETATM    4  C   UNL     1       3.367  30.621  55.017  1.00  0.00     0.063 A 
HETATM    5  N   UNL     1       2.784  31.828  55.285  1.00  0.00    -0.277 N 
HETATM    6  H   UNL     1       2.317  32.442  54.627  1.00  0.00     0.189 HD
HETATM    7  N   UNL     1       2.852  32.208  56.570  1.00  0.00    -0.168 NA
HETATM    8  C   UNL     1       3.518  31.195  57.173  1.00  0.00     0.156 A 
HETATM    9  C   UNL     1       3.488  29.893  53.833  1.00  0.00     0.034 A 
HETATM   10  C   UNL     1       4.161  28.666  53.907  1.00  0.00     0.032 A 
ENDROOT
BRANCH   1  11
HETATM   11  N   UNL     1       5.354  26.936  55.061  1.00  0.00    -0.327 N 
HETATM   12  C   UNL     1       6.659  26.683  54.690  1.00  0.00     0.222 C 
HETATM   13  O   UNL     1       7.457  27.516  54.268  1.00  0.00    -0.273 OA
HETATM   14  H   UNL     1       4.755  26.136  55.207  1.00  0.00     0.169 HD
BRANCH  12  15
HETATM   15  C   UNL     1       7.138  25.256  54.929  1.00  0.00     0.112 C 
BRANCH  15  16
HETATM   16  C   UNL     1       7.447  24.382  53.702  1.00  0.00     0.023 C 
HETATM   17  C   UNL     1       6.318  24.520  52.672  1.00  0.00     0.015 C 
BRANCH  16  18
HETATM   18  C   UNL     1       7.684  22.912  53.998  1.00  0.00    -0.054 A 
HETATM   19  C   UNL     1       7.997  21.989  52.990  1.00  0.00     0.007 A 
HETATM   20  C   UNL     1       8.225  20.647  53.301  1.00  0.00     0.001 A 
HETATM   21  C   UNL     1       8.153  20.211  54.622  1.00  0.00     0.000 A 
HETATM   22  C   UNL     1       7.855  21.117  55.635  1.00  0.00     0.001 A 
HETATM   23  C   UNL     1       7.626  22.459  55.327  1.00  0.00     0.007 A 
ENDBRANCH  16  18
ENDBRANCH  15  16
ENDBRANCH  12  15
ENDBRANCH   1  11
BRANCH   8  24
HETATM   24  C   UNL     1       3.789  31.218  58.617  1.00  0.00     0.270 C 
HETATM   25  N   UNL     1       5.117  31.310  58.934  1.00  0.00    -0.365 N 
HETATM   26  H   UNL     1       5.793  31.363  58.181  1.00  0.00     0.159 HD
HETATM   27  H   UNL     1       5.398  31.343  59.901  1.00  0.00     0.159 HD
HETATM   28  O   UNL     1       2.932  31.171  59.492  1.00  0.00    -0.266 OA
ENDBRANCH   8  24
TORSDOF 5
ENDMDL
MODEL 7
REMARK VINA RESULT:      -8.4      6.305      8.032
REMARK  5 active torsions:
REMARK  status: ('A' for Active; 'I' for Inactive)
REMARK    1  A    between atoms: C_2  and  C_3 
REMARK    2  A    between atoms: C_2  and  C_9 
REMARK    3  A    between atoms: C_9  and  C_10 
REMARK       I    between atoms: C_10  and  N_11 
REMARK    4  A    between atoms: N_11  and  C_12 
REMARK    5  A    between atoms: C_19  and  C_20 
REMARK       I    between atoms: C_20  and  N_21 
ROOT
HETATM    1  C   UNL     1       4.999  26.540  50.101  1.00  0.00     0.035 A 
HETATM    2  C   UNL     1       5.378  27.888  50.152  1.00  0.00     0.046 A 
HETATM    3  C   UNL     1       4.865  28.793  49.196  1.00  0.00     0.030 A 
HETATM    4  C   UNL     1       3.999  28.318  48.219  1.00  0.00     0.063 A 
HETATM    5  N   UNL     1       3.691  29.404  47.448  1.00  0.00    -0.277 N 
HETATM    6  H   UNL     1       3.086  29.427  46.636  1.00  0.00     0.189 HD
HETATM    7  N   UNL     1       4.269  30.550  47.843  1.00  0.00    -0.168 NA
HETATM    8  C   UNL     1       4.994  30.190  48.928  1.00  0.00     0.156 A 
HETATM    9  C   UNL     1       3.594  26.985  48.144  1.00  0.00     0.034 A 
HETATM   10  C   UNL     1       4.107  26.109  49.110  1.00  0.00     0.032 A 
ENDROOT
BRANCH   1  11
HETATM   11  N   UNL     1       5.442  25.567  51.026  1.00  0.00    -0.327 N 
HETATM   12  C   UNL     1       5.363  25.627  52.403  1.00  0.00     0.222 C 
HETATM   13  O   UNL     1       4.951  26.582  53.056  1.00  0.00    -0.273 OA
HETATM   14  H   UNL     1       5.973  24.806  50.629  1.00  0.00     0.169 HD
BRANCH  12  15
HETATM   15  C   UNL     1       5.741  24.342  53.132  1.00  0.00     0.112 C 
BRANCH  15  16
HETATM   16  C   UNL     1       7.198  24.177  53.595  1.00  0.00     0.023 C 
HETATM   17  C   UNL     1       8.147  24.737  52.528  1.00  0.00     0.015 C 
BRANCH  16  18
HETATM   18  C   UNL     1       7.608  22.757  53.942  1.00  0.00    -0.054 A 
HETATM   19  C   UNL     1       7.865  21.792  52.957  1.00  0.00     0.007 A 
HETATM   20  C   UNL     1       8.255  20.500  53.313  1.00  0.00     0.001 A 
HETATM   21  C   UNL     1       8.405  20.156  54.654  1.00  0.00     0.000 A 
HETATM   22  C   UNL     1       8.165  21.105  55.643  1.00  0.00     0.001 A 
HETATM   23  C   UNL     1       7.773  22.398  55.291  1.00  0.00     0.007 A 
ENDBRANCH  16  18
ENDBRANCH  15  16
ENDBRANCH  12  15
ENDBRANCH   1  11
BRANCH   8  24
HETATM   24  C   UNL     1       5.779  31.180  49.678  1.00  0.00     0.270 C 
HETATM   25  N   UNL     1       5.388  31.331  50.981  1.00  0.00    -0.365 N 
HETATM   26  H   UNL     1       4.621  30.764  51.326  1.00  0.00     0.159 HD
HETATM   27  H   UNL     1       5.876  31.981  51.576  1.00  0.00     0.159 HD
HETATM   28  O   UNL     1       6.714  31.828  49.220  1.00  0.00    -0.266 OA
ENDBRANCH   8  24
TORSDOF 5
ENDMDL
MODEL 8
REMARK VINA RESULT:      -8.3      3.425      8.673
REMARK  5 active torsions:
REMARK  status: ('A' for Active; 'I' for Inactive)
REMARK    1  A    between atoms: C_2  and  C_3 
REMARK    2  A    between atoms: C_2  and  C_9 
REMARK    3  A    between atoms: C_9  and  C_10 
REMARK       I    between atoms: C_10  and  N_11 
REMARK    4  A    between atoms: N_11  and  C_12 
REMARK    5  A    between atoms: C_19  and  C_20 
REMARK       I    between atoms: C_20  and  N_21 
ROOT
HETATM    1  C   UNL     1       6.840  24.534  54.845  1.00  0.00     0.035 A 
HETATM    2  C   UNL     1       7.258  23.300  55.362  1.00  0.00     0.046 A 
HETATM    3  C   UNL     1       7.735  22.301  54.484  1.00  0.00     0.030 A 
HETATM    4  C   UNL     1       7.770  22.567  53.121  1.00  0.00     0.063 A 
HETATM    5  N   UNL     1       8.255  21.428  52.542  1.00  0.00    -0.277 N 
HETATM    6  H   UNL     1       8.409  21.260  51.554  1.00  0.00     0.189 HD
HETATM    7  N   UNL     1       8.553  20.446  53.407  1.00  0.00    -0.168 NA
HETATM    8  C   UNL     1       8.243  20.972  54.615  1.00  0.00     0.156 A 
HETATM    9  C   UNL     1       7.369  23.785  52.573  1.00  0.00     0.034 A 
HETATM   10  C   UNL     1       6.911  24.764  53.464  1.00  0.00     0.032 A 
ENDROOT
BRANCH   1  11
HETATM   11  N   UNL     1       6.370  25.599  55.646  1.00  0.00    -0.327 N 
HETATM   12  C   UNL     1       7.062  26.268  56.635  1.00  0.00     0.222 C 
HETATM   13  O   UNL     1       8.192  25.993  57.030  1.00  0.00    -0.273 OA
HETATM   14  H   UNL     1       5.386  25.806  55.553  1.00  0.00     0.169 HD
BRANCH  12  15
HETATM   15  C   UNL     1       6.365  27.505  57.192  1.00  0.00     0.112 C 
BRANCH  15  16
HETATM   16  C   UNL     1       6.719  28.870  56.580  1.00  0.00     0.023 C 
HETATM   17  C   UNL     1       6.463  28.841  55.068  1.00  0.00     0.015 C 
BRANCH  16  18
HETATM   18  C   UNL     1       8.136  29.348  56.843  1.00  0.00    -0.054 A 
HETATM   19  C   UNL     1       9.128  29.327  55.851  1.00  0.00     0.007 A 
HETATM   20  C   UNL     1      10.417  29.789  56.125  1.00  0.00     0.001 A 
HETATM   21  C   UNL     1      10.731  30.287  57.387  1.00  0.00     0.000 A 
HETATM   22  C   UNL     1       9.755  30.325  58.379  1.00  0.00     0.001 A 
HETATM   23  C   UNL     1       8.466  29.863  58.109  1.00  0.00     0.007 A 
ENDBRANCH  16  18
ENDBRANCH  15  16
ENDBRANCH  12  15
ENDBRANCH   1  11
BRANCH   8  24
HETATM   24  C   UNL     1       8.445  20.206  55.852  1.00  0.00     0.270 C 
HETATM   25  N   UNL     1       9.750  19.874  56.097  1.00  0.00    -0.365 N 
HETATM   26  H   UNL     1      10.459  20.177  55.439  1.00  0.00     0.159 HD
HETATM   27  H   UNL     1       9.985  19.357  56.929  1.00  0.00     0.159 HD
HETATM   28  O   UNL     1       7.553  19.879  56.628  1.00  0.00    -0.266 OA
ENDBRANCH   8  24
TORSDOF 5
ENDMDL
MODEL 9
REMARK VINA RESULT:      -8.2      5.144      6.915
REMARK  5 active torsions:
REMARK  status: ('A' for Active; 'I' for Inactive)
REMARK    1  A    between atoms: C_2  and  C_3 
REMARK    2  A    between atoms: C_2  and  C_9 
REMARK    3  A    between atoms: C_9  and  C_10 
REMARK       I    between atoms: C_10  and  N_11 
REMARK    4  A    between atoms: N_11  and  C_12 
REMARK    5  A    between atoms: C_19  and  C_20 
REMARK       I    between atoms: C_20  and  N_21 
ROOT
HETATM    1  C   UNL     1       6.069  26.868  52.153  1.00  0.00     0.035 A 
HETATM    2  C   UNL     1       5.654  28.199  52.016  1.00  0.00     0.046 A 
HETATM    3  C   UNL     1       4.796  28.556  50.952  1.00  0.00     0.030 A 
HETATM    4  C   UNL     1       4.390  27.572  50.058  1.00  0.00     0.063 A 
HETATM    5  N   UNL     1       3.594  28.214  49.150  1.00  0.00    -0.277 N 
HETATM    6  H   UNL     1       3.126  27.805  48.349  1.00  0.00     0.189 HD
HETATM    7  N   UNL     1       3.433  29.526  49.379  1.00  0.00    -0.168 NA
HETATM    8  C   UNL     1       4.165  29.753  50.494  1.00  0.00     0.156 A 
HETATM    9  C   UNL     1       4.777  26.237  50.169  1.00  0.00     0.034 A 
HETATM   10  C   UNL     1       5.619  25.905  51.239  1.00  0.00     0.032 A 
ENDROOT
BRANCH   1  11
HETATM   11  N   UNL     1       6.907  26.413  53.196  1.00  0.00    -0.327 N 
HETATM   12  C   UNL     1       6.517  25.887  54.411  1.00  0.00     0.222 C 
HETATM   13  O   UNL     1       5.360  25.792  54.812  1.00  0.00    -0.273 OA
HETATM   14  H   UNL     1       7.891  26.605  53.074  1.00  0.00     0.169 HD
BRANCH  12  15
HETATM   15  C   UNL     1       7.642  25.298  55.255  1.00  0.00     0.112 C 
BRANCH  15  16
HETATM   16  C   UNL     1       7.410  23.928  55.914  1.00  0.00     0.023 C 
HETATM   17  C   UNL     1       8.284  23.802  57.168  1.00  0.00     0.015 C 
BRANCH  16  18
HETATM   18  C   UNL     1       7.644  22.729  55.011  1.00  0.00    -0.054 A 
HETATM   19  C   UNL     1       7.712  22.848  53.615  1.00  0.00     0.007 A 
HETATM   20  C   UNL     1       7.944  21.726  52.817  1.00  0.00     0.001 A 
HETATM   21  C   UNL     1       8.121  20.474  53.401  1.00  0.00     0.000 A 
HETATM   22  C   UNL     1       8.068  20.342  54.785  1.00  0.00     0.001 A 
HETATM   23  C   UNL     1       7.835  21.461  55.586  1.00  0.00     0.007 A 
ENDBRANCH  16  18
ENDBRANCH  15  16
ENDBRANCH  12  15
ENDBRANCH   1  11
BRANCH   8  24
HETATM   24  C   UNL     1       4.238  31.092  51.095  1.00  0.00     0.270 C 
HETATM   25  N   UNL     1       5.473  31.676  51.009  1.00  0.00    -0.365 N 
HETATM   26  H   UNL     1       6.218  31.169  50.547  1.00  0.00     0.159 HD
HETATM   27  H   UNL     1       5.614  32.601  51.385  1.00  0.00     0.159 HD
HETATM   28  O   UNL     1       3.299  31.674  51.628  1.00  0.00    -0.266 OA
ENDBRANCH   8  24
TORSDOF 5
ENDMDL
MODEL 10
REMARK VINA RESULT:      -8.2      2.813      8.926
REMARK  5 active torsions:
REMARK  status: ('A' for Active; 'I' for Inactive)
REMARK    1  A    between atoms: C_2  and  C_3 
REMARK    2  A    between atoms: C_2  and  C_9 
REMARK    3  A    between atoms: C_9  and  C_10 
REMARK       I    between atoms: C_10  and  N_11 
REMARK    4  A    between atoms: N_11  and  C_12 
REMARK    5  A    between atoms: C_19  and  C_20 
REMARK       I    between atoms: C_20  and  N_21 
ROOT
HETATM    1  C   UNL     1       7.527  26.514  56.777  1.00  0.00     0.035 A 
HETATM    2  C   UNL     1       6.821  26.286  55.588  1.00  0.00     0.046 A 
HETATM    3  C   UNL     1       6.998  25.069  54.894  1.00  0.00     0.030 A 
HETATM    4  C   UNL     1       7.880  24.126  55.407  1.00  0.00     0.063 A 
HETATM    5  N   UNL     1       7.848  23.082  54.525  1.00  0.00    -0.277 N 
HETATM    6  H   UNL     1       8.375  22.218  54.579  1.00  0.00     0.189 HD
HETATM    7  N   UNL     1       7.014  23.254  53.487  1.00  0.00    -0.168 NA
HETATM    8  C   UNL     1       6.475  24.476  53.704  1.00  0.00     0.156 A 
HETATM    9  C   UNL     1       8.593  24.315  56.591  1.00  0.00     0.034 A 
HETATM   10  C   UNL     1       8.392  25.526  57.268  1.00  0.00     0.032 A 
ENDROOT
BRANCH   1  11
HETATM   11  N   UNL     1       7.398  27.689  57.551  1.00  0.00    -0.327 N 
HETATM   12  C   UNL     1       7.544  28.993  57.121  1.00  0.00     0.222 C 
HETATM   13  O   UNL     1       7.884  29.341  55.993  1.00  0.00    -0.273 OA
HETATM   14  H   UNL     1       7.301  27.542  58.546  1.00  0.00     0.169 HD
BRANCH  12  15
HETATM   15  C   UNL     1       7.150  30.060  58.136  1.00  0.00     0.112 C 
BRANCH  15  16
HETATM   16  C   UNL     1       8.235  31.038  58.614  1.00  0.00     0.023 C 
HETATM   17  C   UNL     1       9.612  30.369  58.519  1.00  0.00     0.015 C 
BRANCH  16  18
HETATM   18  C   UNL     1       8.036  31.590  60.014  1.00  0.00    -0.054 A 
HETATM   19  C   UNL     1       8.992  31.420  61.026  1.00  0.00     0.007 A 
HETATM   20  C   UNL     1       8.783  31.954  62.299  1.00  0.00     0.001 A 
HETATM   21  C   UNL     1       7.623  32.674  62.576  1.00  0.00     0.000 A 
HETATM   22  C   UNL     1       6.670  32.861  61.579  1.00  0.00     0.001 A 
HETATM   23  C   UNL     1       6.876  32.327  60.306  1.00  0.00     0.007 A 
ENDBRANCH  16  18
ENDBRANCH  15  16
ENDBRANCH  12  15
ENDBRANCH   1  11
BRANCH   8  24
HETATM   24  C   UNL     1       5.477  25.040  52.784  1.00  0.00     0.270 C 
HETATM   25  N   UNL     1       4.209  25.084  53.295  1.00  0.00    -0.365 N 
HETATM   26  H   UNL     1       4.053  24.747  54.238  1.00  0.00     0.159 HD
HETATM   27  H   UNL     1       3.460  25.465  52.738  1.00  0.00     0.159 HD
HETATM   28  O   UNL     1       5.720  25.454  51.655  1.00  0.00    -0.266 OA
ENDBRANCH   8  24
TORSDOF 5
ENDMDL
