MODEL 1
REMARK VINA RESULT:      -9.1      0.000      0.000
REMARK  6 active torsions:
REMARK  status: ('A' for Active; 'I' for Inactive)
REMARK    1  A    between atoms: C_9  and  C_10 
REMARK    2  A    between atoms: C_10  and  S_11 
REMARK    3  A    between atoms: S_11  and  C_12 
REMARK    4  A    between atoms: C_12  and  C_13 
REMARK       I    between atoms: C_13  and  N_14 
REMARK    5  A    between atoms: N_14  and  N_15 
REMARK       I    between atoms: N_15  and  C_16 
REMARK    6  A    between atoms: C_16  and  C_17 
ROOT
HETATM    1  C   UNL     1       7.623  29.324  57.960  1.00  0.00     0.245 C 
HETATM    2  N   UNL     1       8.372  29.760  59.033  1.00  0.00    -0.267 N 
HETATM    3  O   UNL     1       6.463  29.699  57.772  1.00  0.00    -0.271 OA
HETATM    4  H   UNL     1       9.217  29.251  59.306  1.00  0.00     0.190 HD
ENDROOT
BRANCH   1   5
HETATM    5  C   UNL     1       8.365  28.458  56.956  1.00  0.00     0.178 C 
BRANCH   5   6
HETATM    6  S   UNL     1       7.359  28.087  55.484  1.00  0.00    -0.154 SA
BRANCH   6   7
HETATM    7  C   UNL     1       6.343  26.745  56.185  1.00  0.00     0.135 C 
BRANCH   7   8
HETATM    8  C   UNL     1       6.808  25.422  55.685  1.00  0.00     0.062 A 
HETATM    9  C   UNL     1       6.914  24.971  54.382  1.00  0.00     0.126 A 
HETATM   10  N   UNL     1       7.348  23.673  54.471  1.00  0.00    -0.315 N 
HETATM   11  C   UNL     1       7.588  22.749  53.458  1.00  0.00     0.105 A 
HETATM   12  C   UNL     1       7.514  23.398  55.822  1.00  0.00     0.134 A 
HETATM   13  C   UNL     1       8.008  21.508  53.778  1.00  0.00    -0.046 A 
HETATM   14  C   UNL     1       8.286  20.438  52.771  1.00  0.00     0.049 C 
HETATM   15  C   UNL     1       8.198  21.188  55.194  1.00  0.00     0.012 A 
HETATM   16  C   UNL     1       7.962  22.092  56.165  1.00  0.00     0.051 A 
HETATM   17  N   UNL     1       7.206  24.439  56.567  1.00  0.00    -0.233 NA
ENDBRANCH   7   8
ENDBRANCH   6   7
ENDBRANCH   5   6
ENDBRANCH   1   5
BRANCH   2  18
HETATM   18  N   UNL     1       7.724  30.485  60.040  1.00  0.00    -0.262 N 
HETATM   19  C   UNL     1       8.424  30.826  61.177  1.00  0.00     0.286 C 
HETATM   20  O   UNL     1       9.605  30.520  61.334  1.00  0.00    -0.264 OA
HETATM   21  H   UNL     1       6.729  30.652  59.916  1.00  0.00     0.190 HD
BRANCH  19  22
HETATM   22  C   UNL     1       7.681  31.571  62.170  1.00  0.00     0.103 A 
HETATM   23  N   UNL     1       6.299  31.606  62.151  1.00  0.00    -0.360 N 
HETATM   24  H   UNL     1       5.737  31.127  61.456  1.00  0.00     0.165 HD
HETATM   25  C   UNL     1       5.825  32.354  63.195  1.00  0.00     0.107 A 
HETATM   26  C   UNL     1       6.915  32.809  63.889  1.00  0.00     0.028 A 
HETATM   27 BR   UNL     1       6.906  33.881  65.423  1.00  0.00    -0.050 Br
HETATM   28  C   UNL     1       8.082  32.331  63.260  1.00  0.00     0.055 A 
ENDBRANCH  19  22
ENDBRANCH   2  18
TORSDOF 6
ENDMDL
MODEL 2
REMARK VINA RESULT:      -9.0      1.302      1.731
REMARK  6 active torsions:
REMARK  status: ('A' for Active; 'I' for Inactive)
REMARK    1  A    between atoms: C_9  and  C_10 
REMARK    2  A    between atoms: C_10  and  S_11 
REMARK    3  A    between atoms: S_11  and  C_12 
REMARK    4  A    between atoms: C_12  and  C_13 
REMARK       I    between atoms: C_13  and  N_14 
REMARK    5  A    between atoms: N_14  and  N_15 
REMARK       I    between atoms: N_15  and  C_16 
REMARK    6  A    between atoms: C_16  and  C_17 
ROOT
HETATM    1  C   UNL     1       7.881  29.183  57.577  1.00  0.00     0.245 C 
HETATM    2  N   UNL     1       7.182  30.362  57.740  1.00  0.00    -0.267 N 
HETATM    3  O   UNL     1       8.044  28.384  58.501  1.00  0.00    -0.271 OA
HETATM    4  H   UNL     1       7.277  31.112  57.050  1.00  0.00     0.190 HD
ENDROOT
BRANCH   1   5
HETATM    5  C   UNL     1       8.320  28.877  56.155  1.00  0.00     0.178 C 
BRANCH   5   6
HETATM    6  S   UNL     1       6.910  28.557  55.048  1.00  0.00    -0.154 SA
BRANCH   6   7
HETATM    7  C   UNL     1       6.123  27.214  55.999  1.00  0.00     0.135 C 
BRANCH   7   8
HETATM    8  C   UNL     1       6.535  25.886  55.466  1.00  0.00     0.062 A 
HETATM    9  C   UNL     1       6.745  24.702  56.148  1.00  0.00     0.126 A 
HETATM   10  N   UNL     1       7.153  23.796  55.202  1.00  0.00    -0.315 N 
HETATM   11  C   UNL     1       7.525  22.463  55.356  1.00  0.00     0.105 A 
HETATM   12  C   UNL     1       7.147  24.459  53.982  1.00  0.00     0.134 A 
HETATM   13  C   UNL     1       7.906  21.752  54.277  1.00  0.00    -0.046 A 
HETATM   14  C   UNL     1       8.334  20.320  54.331  1.00  0.00     0.049 C 
HETATM   15  C   UNL     1       7.905  22.421  52.974  1.00  0.00     0.012 A 
HETATM   16  C   UNL     1       7.542  23.712  52.838  1.00  0.00     0.051 A 
HETATM   17  N   UNL     1       6.767  25.713  54.118  1.00  0.00    -0.233 NA
ENDBRANCH   7   8
ENDBRANCH   6   7
ENDBRANCH   5   6
ENDBRANCH   1   5
BRANCH   2  18
HETATM   18  N   UNL     1       6.829  30.747  59.038  1.00  0.00    -0.262 N 
HETATM   19  C   UNL     1       7.541  31.752  59.657  1.00  0.00     0.286 C 
HETATM   20  O   UNL     1       8.474  32.329  59.100  1.00  0.00    -0.264 OA
HETATM   21  H   UNL     1       6.108  30.198  59.499  1.00  0.00     0.190 HD
BRANCH  19  22
HETATM   22  C   UNL     1       7.116  32.087  60.998  1.00  0.00     0.103 A 
HETATM   23  N   UNL     1       5.839  31.792  61.438  1.00  0.00    -0.360 N 
HETATM   24  H   UNL     1       5.140  31.338  60.860  1.00  0.00     0.165 HD
HETATM   25  C   UNL     1       5.678  32.185  62.739  1.00  0.00     0.107 A 
HETATM   26  C   UNL     1       6.864  32.743  63.138  1.00  0.00     0.028 A 
HETATM   27 BR   UNL     1       7.261  33.460  64.821  1.00  0.00    -0.050 Br
HETATM   28  C   UNL     1       7.771  32.692  62.062  1.00  0.00     0.055 A 
ENDBRANCH  19  22
ENDBRANCH   2  18
TORSDOF 6
ENDMDL
MODEL 3
REMARK VINA RESULT:      -9.0      1.783      2.523
REMARK  6 active torsions:
REMARK  status: ('A' for Active; 'I' for Inactive)
REMARK    1  A    between atoms: C_9  and  C_10 
REMARK    2  A    between atoms: C_10  and  S_11 
REMARK    3  A    between atoms: S_11  and  C_12 
REMARK    4  A    between atoms: C_12  and  C_13 
REMARK       I    between atoms: C_13  and  N_14 
REMARK    5  A    between atoms: N_14  and  N_15 
REMARK       I    between atoms: N_15  and  C_16 
REMARK    6  A    between atoms: C_16  and  C_17 
ROOT
HETATM    1  C   UNL     1       8.483  31.021  58.935  1.00  0.00     0.245 C 
HETATM    2  N   UNL     1       7.775  30.436  59.964  1.00  0.00    -0.267 N 
HETATM    3  O   UNL     1       8.819  32.207  58.959  1.00  0.00    -0.271 OA
HETATM    4  H   UNL     1       7.295  29.545  59.812  1.00  0.00     0.190 HD
ENDROOT
BRANCH   1   5
HETATM    5  C   UNL     1       8.934  30.076  57.834  1.00  0.00     0.178 C 
BRANCH   5   6
HETATM    6  S   UNL     1       7.817  28.651  57.644  1.00  0.00    -0.154 SA
BRANCH   6   7
HETATM    7  C   UNL     1       7.480  28.810  55.859  1.00  0.00     0.135 C 
BRANCH   7   8
HETATM    8  C   UNL     1       7.517  27.476  55.199  1.00  0.00     0.062 A 
HETATM    9  C   UNL     1       7.468  26.219  55.772  1.00  0.00     0.126 A 
HETATM   10  N   UNL     1       7.581  25.331  54.732  1.00  0.00    -0.315 N 
HETATM   11  C   UNL     1       7.619  23.940  54.757  1.00  0.00     0.105 A 
HETATM   12  C   UNL     1       7.667  26.085  53.569  1.00  0.00     0.134 A 
HETATM   13  C   UNL     1       7.746  23.259  53.601  1.00  0.00    -0.046 A 
HETATM   14  C   UNL     1       7.808  21.767  53.515  1.00  0.00     0.049 C 
HETATM   15  C   UNL     1       7.835  24.025  52.355  1.00  0.00     0.012 A 
HETATM   16  C   UNL     1       7.796  25.372  52.345  1.00  0.00     0.051 A 
HETATM   17  N   UNL     1       7.619  27.375  53.827  1.00  0.00    -0.233 NA
ENDBRANCH   7   8
ENDBRANCH   6   7
ENDBRANCH   5   6
ENDBRANCH   1   5
BRANCH   2  18
HETATM   18  N   UNL     1       7.252  31.267  60.962  1.00  0.00    -0.262 N 
HETATM   19  C   UNL     1       7.826  31.253  62.215  1.00  0.00     0.286 C 
HETATM   20  O   UNL     1       8.791  30.539  62.484  1.00  0.00    -0.264 OA
HETATM   21  H   UNL     1       6.408  31.784  60.732  1.00  0.00     0.190 HD
BRANCH  19  22
HETATM   22  C   UNL     1       7.224  32.137  63.189  1.00  0.00     0.103 A 
HETATM   23  N   UNL     1       8.003  32.908  64.032  1.00  0.00    -0.360 N 
HETATM   24  H   UNL     1       9.017  32.898  64.021  1.00  0.00     0.165 HD
HETATM   25  C   UNL     1       7.213  33.671  64.848  1.00  0.00     0.107 A 
HETATM   26  C   UNL     1       5.912  33.384  64.529  1.00  0.00     0.028 A 
HETATM   27 BR   UNL     1       4.374  34.120  65.302  1.00  0.00    -0.050 Br
HETATM   28  C   UNL     1       5.901  32.425  63.497  1.00  0.00     0.055 A 
ENDBRANCH  19  22
ENDBRANCH   2  18
TORSDOF 6
ENDMDL
MODEL 4
REMARK VINA RESULT:      -8.9      1.558      2.282
REMARK  6 active torsions:
REMARK  status: ('A' for Active; 'I' for Inactive)
REMARK    1  A    between atoms: C_9  and  C_10 
REMARK    2  A    between atoms: C_10  and  S_11 
REMARK    3  A    between atoms: S_11  and  C_12 
REMARK    4  A    between atoms: C_12  and  C_13 
REMARK       I    between atoms: C_13  and  N_14 
REMARK    5  A    between atoms: N_14  and  N_15 
REMARK       I    between atoms: N_15  and  C_16 
REMARK    6  A    between atoms: C_16  and  C_17 
ROOT
HETATM    1  C   UNL     1       8.131  28.658  56.863  1.00  0.00     0.245 C 
HETATM    2  N   UNL     1       7.738  29.889  57.345  1.00  0.00    -0.267 N 
HETATM    3  O   UNL     1       8.413  27.719  57.611  1.00  0.00    -0.271 OA
HETATM    4  H   UNL     1       7.759  30.708  56.731  1.00  0.00     0.190 HD
ENDROOT
BRANCH   1   5
HETATM    5  C   UNL     1       8.066  28.497  55.353  1.00  0.00     0.178 C 
BRANCH   5   6
HETATM    6  S   UNL     1       6.406  28.015  54.779  1.00  0.00    -0.154 SA
BRANCH   6   7
HETATM    7  C   UNL     1       6.900  27.046  53.315  1.00  0.00     0.135 C 
BRANCH   7   8
HETATM    8  C   UNL     1       7.123  25.621  53.682  1.00  0.00     0.062 A 
HETATM    9  C   UNL     1       7.006  25.011  54.917  1.00  0.00     0.126 A 
HETATM   10  N   UNL     1       7.364  23.701  54.721  1.00  0.00    -0.315 N 
HETATM   11  C   UNL     1       7.450  22.660  55.641  1.00  0.00     0.105 A 
HETATM   12  C   UNL     1       7.655  23.563  53.371  1.00  0.00     0.134 A 
HETATM   13  C   UNL     1       7.836  21.437  55.225  1.00  0.00    -0.046 A 
HETATM   14  C   UNL     1       7.972  20.254  56.130  1.00  0.00     0.049 C 
HETATM   15  C   UNL     1       8.147  21.258  53.805  1.00  0.00     0.012 A 
HETATM   16  C   UNL     1       8.059  22.274  52.925  1.00  0.00     0.051 A 
HETATM   17  N   UNL     1       7.505  24.702  52.727  1.00  0.00    -0.233 NA
ENDBRANCH   7   8
ENDBRANCH   6   7
ENDBRANCH   5   6
ENDBRANCH   1   5
BRANCH   2  18
HETATM   18  N   UNL     1       7.862  30.132  58.717  1.00  0.00    -0.262 N 
HETATM   19  C   UNL     1       7.413  31.330  59.230  1.00  0.00     0.286 C 
HETATM   20  O   UNL     1       6.897  32.192  58.520  1.00  0.00    -0.264 OA
HETATM   21  H   UNL     1       8.363  29.436  59.262  1.00  0.00     0.190 HD
BRANCH  19  22
HETATM   22  C   UNL     1       7.582  31.504  60.656  1.00  0.00     0.103 A 
HETATM   23  N   UNL     1       8.141  30.509  61.436  1.00  0.00    -0.360 N 
HETATM   24  H   UNL     1       8.455  29.619  61.066  1.00  0.00     0.165 HD
HETATM   25  C   UNL     1       8.213  30.909  62.743  1.00  0.00     0.107 A 
HETATM   26  C   UNL     1       7.690  32.174  62.804  1.00  0.00     0.028 A 
HETATM   27 BR   UNL     1       7.521  33.251  64.325  1.00  0.00    -0.050 Br
HETATM   28  C   UNL     1       7.288  32.559  61.509  1.00  0.00     0.055 A 
ENDBRANCH  19  22
ENDBRANCH   2  18
TORSDOF 6
ENDMDL
MODEL 5
REMARK VINA RESULT:      -8.8      6.397      8.983
REMARK  6 active torsions:
REMARK  status: ('A' for Active; 'I' for Inactive)
REMARK    1  A    between atoms: C_9  and  C_10 
REMARK    2  A    between atoms: C_10  and  S_11 
REMARK    3  A    between atoms: S_11  and  C_12 
REMARK    4  A    between atoms: C_12  and  C_13 
REMARK       I    between atoms: C_13  and  N_14 
REMARK    5  A    between atoms: N_14  and  N_15 
REMARK       I    between atoms: N_15  and  C_16 
REMARK    6  A    between atoms: C_16  and  C_17 
ROOT
HETATM    1  C   UNL     1       5.377  28.665  54.268  1.00  0.00     0.245 C 
HETATM    2  N   UNL     1       6.281  28.427  53.253  1.00  0.00    -0.267 N 
HETATM    3  O   UNL     1       4.227  28.222  54.241  1.00  0.00    -0.271 OA
HETATM    4  H   UNL     1       7.122  29.004  53.173  1.00  0.00     0.190 HD
ENDROOT
BRANCH   1   5
HETATM    5  C   UNL     1       5.933  29.398  55.477  1.00  0.00     0.178 C 
BRANCH   5   6
HETATM    6  S   UNL     1       7.339  28.520  56.232  1.00  0.00    -0.154 SA
BRANCH   6   7
HETATM    7  C   UNL     1       6.446  27.045  56.825  1.00  0.00     0.135 C 
BRANCH   7   8
HETATM    8  C   UNL     1       6.780  25.860  55.987  1.00  0.00     0.062 A 
HETATM    9  C   UNL     1       6.818  24.525  56.342  1.00  0.00     0.126 A 
HETATM   10  N   UNL     1       7.223  23.852  55.218  1.00  0.00    -0.315 N 
HETATM   11  C   UNL     1       7.455  22.491  55.036  1.00  0.00     0.105 A 
HETATM   12  C   UNL     1       7.387  24.803  54.219  1.00  0.00     0.134 A 
HETATM   13  C   UNL     1       7.862  22.043  53.832  1.00  0.00    -0.046 A 
HETATM   14  C   UNL     1       8.149  20.606  53.531  1.00  0.00     0.049 C 
HETATM   15  C   UNL     1       8.041  23.020  52.756  1.00  0.00     0.012 A 
HETATM   16  C   UNL     1       7.812  24.335  52.944  1.00  0.00     0.051 A 
HETATM   17  N   UNL     1       7.114  26.014  54.658  1.00  0.00    -0.233 NA
ENDBRANCH   7   8
ENDBRANCH   6   7
ENDBRANCH   5   6
ENDBRANCH   1   5
BRANCH   2  18
HETATM   18  N   UNL     1       5.810  27.839  52.074  1.00  0.00    -0.262 N 
HETATM   19  C   UNL     1       5.673  28.617  50.944  1.00  0.00     0.286 C 
HETATM   20  O   UNL     1       5.959  29.813  50.936  1.00  0.00    -0.264 OA
HETATM   21  H   UNL     1       5.507  26.871  52.134  1.00  0.00     0.190 HD
BRANCH  19  22
HETATM   22  C   UNL     1       5.177  27.934  49.769  1.00  0.00     0.103 A 
HETATM   23  N   UNL     1       5.666  28.229  48.511  1.00  0.00    -0.360 N 
HETATM   24  H   UNL     1       6.381  28.927  48.339  1.00  0.00     0.165 HD
HETATM   25  C   UNL     1       5.061  27.446  47.566  1.00  0.00     0.107 A 
HETATM   26  C   UNL     1       4.169  26.641  48.224  1.00  0.00     0.028 A 
HETATM   27 BR   UNL     1       3.045  25.349  47.467  1.00  0.00    -0.050 Br
HETATM   28  C   UNL     1       4.226  26.936  49.601  1.00  0.00     0.055 A 
ENDBRANCH  19  22
ENDBRANCH   2  18
TORSDOF 6
ENDMDL
MODEL 6
REMARK VINA RESULT:      -8.3      7.845     11.288
REMARK  6 active torsions:
REMARK  status: ('A' for Active; 'I' for Inactive)
REMARK    1  A    between atoms: C_9  and  C_10 
REMARK    2  A    between atoms: C_10  and  S_11 
REMARK    3  A    between atoms: S_11  and  C_12 
REMARK    4  A    between atoms: C_12  and  C_13 
REMARK       I    between atoms: C_13  and  N_14 
REMARK    5  A    between atoms: N_14  and  N_15 
REMARK       I    between atoms: N_15  and  C_16 
REMARK    6  A    between atoms: C_16  and  C_17 
ROOT
HETATM    1  C   UNL     1       4.296  27.653  50.588  1.00  0.00     0.245 C 
HETATM    2  N   UNL     1       3.796  26.862  49.574  1.00  0.00    -0.267 N 
HETATM    3  O   UNL     1       3.687  28.636  51.016  1.00  0.00    -0.271 OA
HETATM    4  H   UNL     1       4.417  26.223  49.071  1.00  0.00     0.190 HD
ENDROOT
BRANCH   1   5
HETATM    5  C   UNL     1       5.581  27.157  51.228  1.00  0.00     0.178 C 
BRANCH   5   6
HETATM    6  S   UNL     1       5.668  27.551  53.004  1.00  0.00    -0.154 SA
BRANCH   6   7
HETATM    7  C   UNL     1       7.404  27.077  53.299  1.00  0.00     0.135 C 
BRANCH   7   8
HETATM    8  C   UNL     1       7.496  25.639  53.673  1.00  0.00     0.062 A 
HETATM    9  C   UNL     1       7.397  25.055  54.922  1.00  0.00     0.126 A 
HETATM   10  N   UNL     1       7.598  23.713  54.723  1.00  0.00    -0.315 N 
HETATM   11  C   UNL     1       7.633  22.676  55.651  1.00  0.00     0.105 A 
HETATM   12  C   UNL     1       7.785  23.534  53.359  1.00  0.00     0.134 A 
HETATM   13  C   UNL     1       7.859  21.416  55.230  1.00  0.00    -0.046 A 
HETATM   14  C   UNL     1       7.926  20.232  56.142  1.00  0.00     0.049 C 
HETATM   15  C   UNL     1       8.055  21.193  53.796  1.00  0.00     0.012 A 
HETATM   16  C   UNL     1       8.018  22.205  52.907  1.00  0.00     0.051 A 
HETATM   17  N   UNL     1       7.715  24.677  52.709  1.00  0.00    -0.233 NA
ENDBRANCH   7   8
ENDBRANCH   6   7
ENDBRANCH   5   6
ENDBRANCH   1   5
BRANCH   2  18
HETATM   18  N   UNL     1       2.665  27.311  48.883  1.00  0.00    -0.262 N 
HETATM   19  C   UNL     1       2.554  27.045  47.535  1.00  0.00     0.286 C 
HETATM   20  O   UNL     1       3.414  26.416  46.920  1.00  0.00    -0.264 OA
HETATM   21  H   UNL     1       2.013  27.895  49.400  1.00  0.00     0.190 HD
BRANCH  19  22
HETATM   22  C   UNL     1       1.358  27.547  46.894  1.00  0.00     0.103 A 
HETATM   23  N   UNL     1       0.743  26.842  45.876  1.00  0.00    -0.360 N 
HETATM   24  H   UNL     1       1.087  25.955  45.524  1.00  0.00     0.165 HD
HETATM   25  C   UNL     1      -0.373  27.504  45.442  1.00  0.00     0.107 A 
HETATM   26  C   UNL     1      -0.474  28.650  46.187  1.00  0.00     0.028 A 
HETATM   27 BR   UNL     1      -1.802  29.962  46.059  1.00  0.00    -0.050 Br
HETATM   28  C   UNL     1       0.601  28.693  47.096  1.00  0.00     0.055 A 
ENDBRANCH  19  22
ENDBRANCH   2  18
TORSDOF 6
ENDMDL
MODEL 7
REMARK VINA RESULT:      -8.1      2.378      3.257
REMARK  6 active torsions:
REMARK  status: ('A' for Active; 'I' for Inactive)
REMARK    1  A    between atoms: C_9  and  C_10 
REMARK    2  A    between atoms: C_10  and  S_11 
REMARK    3  A    between atoms: S_11  and  C_12 
REMARK    4  A    between atoms: C_12  and  C_13 
REMARK       I    between atoms: C_13  and  N_14 
REMARK    5  A    between atoms: N_14  and  N_15 
REMARK       I    between atoms: N_15  and  C_16 
REMARK    6  A    between atoms: C_16  and  C_17 
ROOT
HETATM    1  C   UNL     1       4.299  29.450  55.190  1.00  0.00     0.245 C 
HETATM    2  N   UNL     1       5.450  30.209  55.240  1.00  0.00    -0.267 N 
HETATM    3  O   UNL     1       3.558  29.316  56.165  1.00  0.00    -0.271 OA
HETATM    4  H   UNL     1       6.166  30.100  54.517  1.00  0.00     0.190 HD
ENDROOT
BRANCH   1   5
HETATM    5  C   UNL     1       3.941  28.900  53.819  1.00  0.00     0.178 C 
BRANCH   5   6
HETATM    6  S   UNL     1       5.107  27.618  53.261  1.00  0.00    -0.154 SA
BRANCH   6   7
HETATM    7  C   UNL     1       5.330  26.748  54.848  1.00  0.00     0.135 C 
BRANCH   7   8
HETATM    8  C   UNL     1       6.051  25.462  54.643  1.00  0.00     0.062 A 
HETATM    9  C   UNL     1       6.327  24.797  53.463  1.00  0.00     0.126 A 
HETATM   10  N   UNL     1       6.971  23.642  53.828  1.00  0.00    -0.315 N 
HETATM   11  C   UNL     1       7.441  22.601  53.033  1.00  0.00     0.105 A 
HETATM   12  C   UNL     1       7.084  23.667  55.212  1.00  0.00     0.134 A 
HETATM   13  C   UNL     1       8.043  21.543  53.611  1.00  0.00    -0.046 A 
HETATM   14  C   UNL     1       8.574  20.369  52.853  1.00  0.00     0.049 C 
HETATM   15  C   UNL     1       8.182  21.541  55.069  1.00  0.00     0.012 A 
HETATM   16  C   UNL     1       7.724  22.556  55.828  1.00  0.00     0.051 A 
HETATM   17  N   UNL     1       6.548  24.757  55.719  1.00  0.00    -0.233 NA
ENDBRANCH   7   8
ENDBRANCH   6   7
ENDBRANCH   5   6
ENDBRANCH   1   5
BRANCH   2  18
HETATM   18  N   UNL     1       5.885  30.668  56.488  1.00  0.00    -0.262 N 
HETATM   19  C   UNL     1       6.878  29.978  57.148  1.00  0.00     0.286 C 
HETATM   20  O   UNL     1       7.403  28.973  56.671  1.00  0.00    -0.264 OA
HETATM   21  H   UNL     1       5.378  31.452  56.890  1.00  0.00     0.190 HD
BRANCH  19  22
HETATM   22  C   UNL     1       7.267  30.515  58.434  1.00  0.00     0.103 A 
HETATM   23  N   UNL     1       6.482  31.448  59.086  1.00  0.00    -0.360 N 
HETATM   24  H   UNL     1       5.611  31.805  58.710  1.00  0.00     0.165 HD
HETATM   25  C   UNL     1       7.043  31.790  60.286  1.00  0.00     0.107 A 
HETATM   26  C   UNL     1       8.204  31.073  60.405  1.00  0.00     0.028 A 
HETATM   27 BR   UNL     1       9.409  31.110  61.836  1.00  0.00    -0.050 Br
HETATM   28  C   UNL     1       8.360  30.274  59.255  1.00  0.00     0.055 A 
ENDBRANCH  19  22
ENDBRANCH   2  18
TORSDOF 6
ENDMDL
MODEL 8
REMARK VINA RESULT:      -8.1      4.280     10.675
REMARK  6 active torsions:
REMARK  status: ('A' for Active; 'I' for Inactive)
REMARK    1  A    between atoms: C_9  and  C_10 
REMARK    2  A    between atoms: C_10  and  S_11 
REMARK    3  A    between atoms: S_11  and  C_12 
REMARK    4  A    between atoms: C_12  and  C_13 
REMARK       I    between atoms: C_13  and  N_14 
REMARK    5  A    between atoms: N_14  and  N_15 
REMARK       I    between atoms: N_15  and  C_16 
REMARK    6  A    between atoms: C_16  and  C_17 
ROOT
HETATM    1  C   UNL     1       6.736  28.427  55.419  1.00  0.00     0.245 C 
HETATM    2  N   UNL     1       6.126  27.331  55.992  1.00  0.00    -0.267 N 
HETATM    3  O   UNL     1       7.654  28.317  54.605  1.00  0.00    -0.271 OA
HETATM    4  H   UNL     1       5.558  27.445  56.836  1.00  0.00     0.190 HD
ENDROOT
BRANCH   1   5
HETATM    5  C   UNL     1       6.113  29.771  55.759  1.00  0.00     0.178 C 
BRANCH   5   6
HETATM    6  S   UNL     1       5.316  29.772  57.396  1.00  0.00    -0.154 SA
BRANCH   6   7
HETATM    7  C   UNL     1       5.404  31.561  57.736  1.00  0.00     0.135 C 
BRANCH   7   8
HETATM    8  C   UNL     1       5.971  31.808  59.091  1.00  0.00     0.062 A 
HETATM    9  C   UNL     1       5.445  32.547  60.134  1.00  0.00     0.126 A 
HETATM   10  N   UNL     1       6.379  32.494  61.137  1.00  0.00    -0.315 N 
HETATM   11  C   UNL     1       6.364  33.093  62.393  1.00  0.00     0.105 A 
HETATM   12  C   UNL     1       7.421  31.702  60.672  1.00  0.00     0.134 A 
HETATM   13  C   UNL     1       7.407  32.911  63.227  1.00  0.00    -0.046 A 
HETATM   14  C   UNL     1       7.497  33.516  64.592  1.00  0.00     0.049 C 
HETATM   15  C   UNL     1       8.520  32.077  62.768  1.00  0.00     0.012 A 
HETATM   16  C   UNL     1       8.523  31.503  61.550  1.00  0.00     0.051 A 
HETATM   17  N   UNL     1       7.190  31.271  59.449  1.00  0.00    -0.233 NA
ENDBRANCH   7   8
ENDBRANCH   6   7
ENDBRANCH   5   6
ENDBRANCH   1   5
BRANCH   2  18
HETATM   18  N   UNL     1       6.706  26.073  55.794  1.00  0.00    -0.262 N 
HETATM   19  C   UNL     1       6.179  25.235  54.834  1.00  0.00     0.286 C 
HETATM   20  O   UNL     1       5.218  25.561  54.139  1.00  0.00    -0.264 OA
HETATM   21  H   UNL     1       7.445  25.803  56.436  1.00  0.00     0.190 HD
BRANCH  19  22
HETATM   22  C   UNL     1       6.833  23.953  54.695  1.00  0.00     0.103 A 
HETATM   23  N   UNL     1       7.235  23.231  55.804  1.00  0.00    -0.360 N 
HETATM   24  H   UNL     1       7.102  23.550  56.757  1.00  0.00     0.165 HD
HETATM   25  C   UNL     1       7.810  22.049  55.423  1.00  0.00     0.107 A 
HETATM   26  C   UNL     1       7.782  22.013  54.053  1.00  0.00     0.028 A 
HETATM   27 BR   UNL     1       8.420  20.642  52.950  1.00  0.00    -0.050 Br
HETATM   28  C   UNL     1       7.178  23.196  53.583  1.00  0.00     0.055 A 
ENDBRANCH  19  22
ENDBRANCH   2  18
TORSDOF 6
ENDMDL
MODEL 9
REMARK VINA RESULT:      -8.1      5.511      7.972
REMARK  6 active torsions:
REMARK  status: ('A' for Active; 'I' for Inactive)
REMARK    1  A    between atoms: C_9  and  C_10 
REMARK    2  A    between atoms: C_10  and  S_11 
REMARK    3  A    between atoms: S_11  and  C_12 
REMARK    4  A    between atoms: C_12  and  C_13 
REMARK       I    between atoms: C_13  and  N_14 
REMARK    5  A    between atoms: N_14  and  N_15 
REMARK       I    between atoms: N_15  and  C_16 
REMARK    6  A    between atoms: C_16  and  C_17 
ROOT
HETATM    1  C   UNL     1       6.350  29.158  55.610  1.00  0.00     0.245 C 
HETATM    2  N   UNL     1       6.740  28.321  54.585  1.00  0.00    -0.267 N 
HETATM    3  O   UNL     1       5.616  30.130  55.422  1.00  0.00    -0.271 OA
HETATM    4  H   UNL     1       7.536  27.691  54.714  1.00  0.00     0.190 HD
ENDROOT
BRANCH   1   5
HETATM    5  C   UNL     1       6.780  28.727  57.003  1.00  0.00     0.178 C 
BRANCH   5   6
HETATM    6  S   UNL     1       6.121  27.091  57.455  1.00  0.00    -0.154 SA
BRANCH   6   7
HETATM    7  C   UNL     1       7.699  26.183  57.550  1.00  0.00     0.135 C 
BRANCH   7   8
HETATM    8  C   UNL     1       7.778  25.157  56.474  1.00  0.00     0.062 A 
HETATM    9  C   UNL     1       8.021  23.800  56.580  1.00  0.00     0.126 A 
HETATM   10  N   UNL     1       8.033  23.322  55.294  1.00  0.00    -0.315 N 
HETATM   11  C   UNL     1       8.265  22.029  54.833  1.00  0.00     0.105 A 
HETATM   12  C   UNL     1       7.769  24.402  54.463  1.00  0.00     0.134 A 
HETATM   13  C   UNL     1       8.237  21.783  53.508  1.00  0.00    -0.046 A 
HETATM   14  C   UNL     1       8.482  20.436  52.906  1.00  0.00     0.049 C 
HETATM   15  C   UNL     1       7.957  22.901  52.604  1.00  0.00     0.012 A 
HETATM   16  C   UNL     1       7.734  24.148  53.064  1.00  0.00     0.051 A 
HETATM   17  N   UNL     1       7.601  25.511  55.153  1.00  0.00    -0.233 NA
ENDBRANCH   7   8
ENDBRANCH   6   7
ENDBRANCH   5   6
ENDBRANCH   1   5
BRANCH   2  18
HETATM   18  N   UNL     1       6.456  28.709  53.271  1.00  0.00    -0.262 N 
HETATM   19  C   UNL     1       5.743  27.855  52.458  1.00  0.00     0.286 C 
HETATM   20  O   UNL     1       5.340  26.761  52.853  1.00  0.00    -0.264 OA
HETATM   21  H   UNL     1       6.870  29.580  52.951  1.00  0.00     0.190 HD
BRANCH  19  22
HETATM   22  C   UNL     1       5.496  28.329  51.114  1.00  0.00     0.103 A 
HETATM   23  N   UNL     1       5.552  27.471  50.031  1.00  0.00    -0.360 N 
HETATM   24  H   UNL     1       5.769  26.483  50.112  1.00  0.00     0.165 HD
HETATM   25  C   UNL     1       5.266  28.142  48.873  1.00  0.00     0.107 A 
HETATM   26  C   UNL     1       5.027  29.447  49.215  1.00  0.00     0.028 A 
HETATM   27 BR   UNL     1       4.578  30.849  48.060  1.00  0.00    -0.050 Br
HETATM   28  C   UNL     1       5.170  29.581  50.611  1.00  0.00     0.055 A 
ENDBRANCH  19  22
ENDBRANCH   2  18
TORSDOF 6
ENDMDL
MODEL 10
REMARK VINA RESULT:      -7.8      2.263      2.603
REMARK  6 active torsions:
REMARK  status: ('A' for Active; 'I' for Inactive)
REMARK    1  A    between atoms: C_9  and  C_10 
REMARK    2  A    between atoms: C_10  and  S_11 
REMARK    3  A    between atoms: S_11  and  C_12 
REMARK    4  A    between atoms: C_12  and  C_13 
REMARK       I    between atoms: C_13  and  N_14 
REMARK    5  A    between atoms: N_14  and  N_15 
REMARK       I    between atoms: N_15  and  C_16 
REMARK    6  A    between atoms: C_16  and  C_17 
ROOT
HETATM    1  C   UNL     1       6.380  30.397  57.716  1.00  0.00     0.245 C 
HETATM    2  N   UNL     1       5.223  30.819  58.338  1.00  0.00    -0.267 N 
HETATM    3  O   UNL     1       7.490  30.527  58.235  1.00  0.00    -0.271 OA
HETATM    4  H   UNL     1       4.364  30.935  57.794  1.00  0.00     0.190 HD
ENDROOT
BRANCH   1   5
HETATM    5  C   UNL     1       6.181  29.646  56.410  1.00  0.00     0.178 C 
BRANCH   5   6
HETATM    6  S   UNL     1       6.620  27.885  56.550  1.00  0.00    -0.154 SA
BRANCH   6   7
HETATM    7  C   UNL     1       6.798  27.510  54.774  1.00  0.00     0.135 C 
BRANCH   7   8
HETATM    8  C   UNL     1       7.206  26.092  54.578  1.00  0.00     0.062 A 
HETATM    9  C   UNL     1       7.157  25.323  53.430  1.00  0.00     0.126 A 
HETATM   10  N   UNL     1       7.605  24.079  53.796  1.00  0.00    -0.315 N 
HETATM   11  C   UNL     1       7.727  22.922  53.031  1.00  0.00     0.105 A 
HETATM   12  C   UNL     1       7.933  24.151  55.143  1.00  0.00     0.134 A 
HETATM   13  C   UNL     1       8.188  21.793  53.606  1.00  0.00    -0.046 A 
HETATM   14  C   UNL     1       8.349  20.495  52.880  1.00  0.00     0.049 C 
HETATM   15  C   UNL     1       8.547  21.838  55.025  1.00  0.00     0.012 A 
HETATM   16  C   UNL     1       8.425  22.964  55.754  1.00  0.00     0.051 A 
HETATM   17  N   UNL     1       7.712  25.356  55.628  1.00  0.00    -0.233 NA
ENDBRANCH   7   8
ENDBRANCH   6   7
ENDBRANCH   5   6
ENDBRANCH   1   5
BRANCH   2  18
HETATM   18  N   UNL     1       5.341  31.595  59.496  1.00  0.00    -0.262 N 
HETATM   19  C   UNL     1       4.218  32.200  60.016  1.00  0.00     0.286 C 
HETATM   20  O   UNL     1       3.109  32.073  59.498  1.00  0.00    -0.264 OA
HETATM   21  H   UNL     1       6.281  31.746  59.853  1.00  0.00     0.190 HD
BRANCH  19  22
HETATM   22  C   UNL     1       4.426  32.988  61.211  1.00  0.00     0.103 A 
HETATM   23  N   UNL     1       4.058  32.511  62.455  1.00  0.00    -0.360 N 
HETATM   24  H   UNL     1       3.627  31.604  62.601  1.00  0.00     0.165 HD
HETATM   25  C   UNL     1       4.369  33.421  63.428  1.00  0.00     0.107 A 
HETATM   26  C   UNL     1       4.939  34.498  62.802  1.00  0.00     0.028 A 
HETATM   27 BR   UNL     1       5.578  36.061  63.608  1.00  0.00    -0.050 Br
HETATM   28  C   UNL     1       4.979  34.245  61.416  1.00  0.00     0.055 A 
ENDBRANCH  19  22
ENDBRANCH   2  18
TORSDOF 6
ENDMDL
