MODEL 1
REMARK VINA RESULT:      -9.0      0.000      0.000
REMARK  9 active torsions:
REMARK  status: ('A' for Active; 'I' for Inactive)
REMARK    1  A    between atoms: C_6  and  C_7 
REMARK    2  A    between atoms: C_7  and  C_8 
REMARK       I    between atoms: C_8  and  N_9 
REMARK    3  A    between atoms: N_9  and  C_10 
REMARK    4  A    between atoms: C_10  and  C_11 
REMARK    5  A    between atoms: C_11  and  N_12 
REMARK    6  A    between atoms: C_17  and  C_18 
REMARK    7  A    between atoms: C_21  and  C_22 
REMARK    8  A    between atoms: C_29  and  C_30 
REMARK       I    between atoms: C_30  and  N_31 
REMARK    9  A    between atoms: N_31  and  C_32 
ROOT
HETATM    1  C   UNL     1       3.669  30.350  54.254  1.00  0.00     0.071 C 
HETATM    2  C   UNL     1       3.815  29.147  53.356  1.00  0.00     0.047 C 
HETATM    3  N   UNL     1       2.848  29.080  52.335  1.00  0.00    -0.229 NA
HETATM    4  C   UNL     1       3.206  28.512  51.224  1.00  0.00     0.170 C 
HETATM    5  N   UNL     1       4.603  27.745  51.078  1.00  0.00    -0.319 N 
HETATM    6  C   UNL     1       5.147  28.434  50.115  1.00  0.00     0.011 C 
HETATM    7  C   UNL     1       4.819  27.181  52.419  1.00  0.00     0.165 C 
HETATM    8  S   UNL     1       2.529  28.829  49.658  1.00  0.00    -0.086 SA
HETATM    9  C   UNL     1       4.195  28.495  48.917  1.00  0.00     0.135 C 
HETATM   10  C   UNL     1       4.871  28.291  53.405  1.00  0.00     0.062 C 
ENDROOT
BRANCH   6  11
HETATM   11  C   UNL     1       6.052  29.600  50.428  1.00  0.00     0.156 C 
BRANCH  11  12
HETATM   12  C   UNL     1       5.567  31.003  50.213  1.00  0.00     0.223 C 
HETATM   13  N   UNL     1       5.141  31.611  51.380  1.00  0.00    -0.359 N 
HETATM   14  H   UNL     1       5.714  31.406  52.208  1.00  0.00     0.162 HD
HETATM   15  O   UNL     1       5.438  31.478  49.096  1.00  0.00    -0.273 OA
BRANCH  13  16
HETATM   16  C   UNL     1       4.529  32.941  51.378  1.00  0.00     0.150 C 
BRANCH  16  17
HETATM   17  C   UNL     1       5.569  34.081  51.427  1.00  0.00     0.253 C 
BRANCH  17  18
HETATM   18  N   UNL     1       6.156  34.237  52.830  1.00  0.00    -0.077 N 
HETATM   19  H   UNL     1       6.742  33.406  52.980  1.00  0.00     0.279 HD
HETATM   20  C   UNL     1       7.044  35.441  52.994  1.00  0.00     0.269 C 
HETATM   21  C   UNL     1       5.081  34.222  53.887  1.00  0.00     0.269 C 
ENDBRANCH  17  18
ENDBRANCH  16  17
ENDBRANCH  13  16
ENDBRANCH  11  12
ENDBRANCH   6  11
BRANCH   7  22
HETATM   22  C   UNL     1       5.519  25.850  52.593  1.00  0.00    -0.030 A 
HETATM   23  C   UNL     1       5.358  25.004  53.693  1.00  0.00     0.010 A 
HETATM   24  C   UNL     1       6.295  23.982  53.940  1.00  0.00     0.008 A 
HETATM   25  C   UNL     1       7.396  23.771  53.091  1.00  0.00    -0.055 A 
HETATM   26  C   UNL     1       7.487  24.536  51.930  1.00  0.00     0.008 A 
HETATM   27  C   UNL     1       6.579  25.566  51.696  1.00  0.00     0.010 A 
BRANCH  25  28
HETATM   28  C   UNL     1       8.476  22.763  53.466  1.00  0.00     0.010 C 
HETATM   29  C   UNL     1       8.804  22.835  54.956  1.00  0.00     0.015 C 
HETATM   30  C   UNL     1       8.121  21.319  53.073  1.00  0.00     0.015 C 
ENDBRANCH  25  28
ENDBRANCH   7  22
BRANCH  10  31
HETATM   31  C   UNL     1       6.177  28.731  53.969  1.00  0.00     0.256 C 
HETATM   32  N   UNL     1       6.181  29.069  55.296  1.00  0.00    -0.323 N 
HETATM   33  H   UNL     1       5.315  29.077  55.820  1.00  0.00     0.169 HD
HETATM   34  O   UNL     1       7.168  28.568  53.254  1.00  0.00    -0.267 OA
BRANCH  32  35
HETATM   35  C   UNL     1       7.327  29.300  56.096  1.00  0.00     0.035 A 
HETATM   36  C   UNL     1       8.638  29.127  55.646  1.00  0.00     0.029 A 
HETATM   37  C   UNL     1       9.717  29.354  56.507  1.00  0.00     0.002 A 
HETATM   38  C   UNL     1       9.493  29.749  57.823  1.00  0.00     0.000 A 
HETATM   39  C   UNL     1       8.191  29.935  58.277  1.00  0.00     0.002 A 
HETATM   40  C   UNL     1       7.112  29.723  57.414  1.00  0.00     0.029 A 
ENDBRANCH  32  35
ENDBRANCH  10  31
TORSDOF 9
ENDMDL
MODEL 2
REMARK VINA RESULT:      -8.7      1.728      2.038
REMARK  9 active torsions:
REMARK  status: ('A' for Active; 'I' for Inactive)
REMARK    1  A    between atoms: C_6  and  C_7 
REMARK    2  A    between atoms: C_7  and  C_8 
REMARK       I    between atoms: C_8  and  N_9 
REMARK    3  A    between atoms: N_9  and  C_10 
REMARK    4  A    between atoms: C_10  and  C_11 
REMARK    5  A    between atoms: C_11  and  N_12 
REMARK    6  A    between atoms: C_17  and  C_18 
REMARK    7  A    between atoms: C_21  and  C_22 
REMARK    8  A    between atoms: C_29  and  C_30 
REMARK       I    between atoms: C_30  and  N_31 
REMARK    9  A    between atoms: N_31  and  C_32 
ROOT
HETATM    1  C   UNL     1       3.461  30.206  54.162  1.00  0.00     0.071 C 
HETATM    2  C   UNL     1       3.694  29.032  53.245  1.00  0.00     0.047 C 
HETATM    3  N   UNL     1       2.790  28.965  52.167  1.00  0.00    -0.229 NA
HETATM    4  C   UNL     1       3.229  28.437  51.065  1.00  0.00     0.170 C 
HETATM    5  N   UNL     1       4.654  27.714  50.982  1.00  0.00    -0.319 N 
HETATM    6  C   UNL     1       5.232  28.442  50.071  1.00  0.00     0.011 C 
HETATM    7  C   UNL     1       4.809  27.120  52.320  1.00  0.00     0.165 C 
HETATM    8  S   UNL     1       2.635  28.775  49.470  1.00  0.00    -0.086 SA
HETATM    9  C   UNL     1       4.350  28.509  48.820  1.00  0.00     0.135 C 
HETATM   10  C   UNL     1       4.770  28.205  53.334  1.00  0.00     0.062 C 
ENDROOT
BRANCH   6  11
HETATM   11  C   UNL     1       6.083  29.625  50.465  1.00  0.00     0.156 C 
BRANCH  11  12
HETATM   12  C   UNL     1       5.568  31.018  50.262  1.00  0.00     0.223 C 
HETATM   13  N   UNL     1       6.183  31.674  49.211  1.00  0.00    -0.359 N 
HETATM   14  H   UNL     1       6.367  31.088  48.387  1.00  0.00     0.162 HD
HETATM   15  O   UNL     1       4.792  31.541  51.047  1.00  0.00    -0.273 OA
BRANCH  13  16
HETATM   16  C   UNL     1       5.906  33.079  48.910  1.00  0.00     0.150 C 
BRANCH  16  17
HETATM   17  C   UNL     1       6.342  33.485  47.486  1.00  0.00     0.253 C 
BRANCH  17  18
HETATM   18  N   UNL     1       7.718  34.151  47.496  1.00  0.00    -0.077 N 
HETATM   19  H   UNL     1       8.378  33.420  47.789  1.00  0.00     0.279 HD
HETATM   20  C   UNL     1       8.172  34.642  46.147  1.00  0.00     0.269 C 
HETATM   21  C   UNL     1       7.794  35.257  48.517  1.00  0.00     0.269 C 
ENDBRANCH  17  18
ENDBRANCH  16  17
ENDBRANCH  13  16
ENDBRANCH  11  12
ENDBRANCH   6  11
BRANCH   7  22
HETATM   22  C   UNL     1       5.536  25.805  52.501  1.00  0.00    -0.030 A 
HETATM   23  C   UNL     1       5.357  24.939  53.583  1.00  0.00     0.010 A 
HETATM   24  C   UNL     1       6.310  23.939  53.851  1.00  0.00     0.008 A 
HETATM   25  C   UNL     1       7.447  23.768  53.041  1.00  0.00    -0.055 A 
HETATM   26  C   UNL     1       7.561  24.552  51.895  1.00  0.00     0.008 A 
HETATM   27  C   UNL     1       6.636  25.562  51.641  1.00  0.00     0.010 A 
BRANCH  25  28
HETATM   28  C   UNL     1       8.538  22.782  53.443  1.00  0.00     0.010 C 
HETATM   29  C   UNL     1       8.810  22.843  54.945  1.00  0.00     0.015 C 
HETATM   30  C   UNL     1       8.235  21.336  53.019  1.00  0.00     0.015 C 
ENDBRANCH  25  28
ENDBRANCH   7  22
BRANCH  10  31
HETATM   31  C   UNL     1       6.027  28.666  53.985  1.00  0.00     0.256 C 
HETATM   32  N   UNL     1       5.960  28.910  55.330  1.00  0.00    -0.323 N 
HETATM   33  H   UNL     1       5.074  28.839  55.814  1.00  0.00     0.169 HD
HETATM   34  O   UNL     1       7.054  28.602  53.306  1.00  0.00    -0.267 OA
BRANCH  32  35
HETATM   35  C   UNL     1       7.058  29.138  56.194  1.00  0.00     0.035 A 
HETATM   36  C   UNL     1       8.333  28.607  55.989  1.00  0.00     0.029 A 
HETATM   37  C   UNL     1       9.362  28.862  56.903  1.00  0.00     0.002 A 
HETATM   38  C   UNL     1       9.121  29.642  58.030  1.00  0.00     0.000 A 
HETATM   39  C   UNL     1       7.856  30.185  58.238  1.00  0.00     0.002 A 
HETATM   40  C   UNL     1       6.832  29.944  57.318  1.00  0.00     0.029 A 
ENDBRANCH  32  35
ENDBRANCH  10  31
TORSDOF 9
ENDMDL
MODEL 3
REMARK VINA RESULT:      -8.6      1.358      2.052
REMARK  9 active torsions:
REMARK  status: ('A' for Active; 'I' for Inactive)
REMARK    1  A    between atoms: C_6  and  C_7 
REMARK    2  A    between atoms: C_7  and  C_8 
REMARK       I    between atoms: C_8  and  N_9 
REMARK    3  A    between atoms: N_9  and  C_10 
REMARK    4  A    between atoms: C_10  and  C_11 
REMARK    5  A    between atoms: C_11  and  N_12 
REMARK    6  A    between atoms: C_17  and  C_18 
REMARK    7  A    between atoms: C_21  and  C_22 
REMARK    8  A    between atoms: C_29  and  C_30 
REMARK       I    between atoms: C_30  and  N_31 
REMARK    9  A    between atoms: N_31  and  C_32 
ROOT
HETATM    1  C   UNL     1       3.137  30.229  53.684  1.00  0.00     0.071 C 
HETATM    2  C   UNL     1       3.475  29.067  52.784  1.00  0.00     0.047 C 
HETATM    3  N   UNL     1       2.683  29.002  51.620  1.00  0.00    -0.229 NA
HETATM    4  C   UNL     1       3.236  28.490  50.564  1.00  0.00     0.170 C 
HETATM    5  N   UNL     1       4.671  27.784  50.616  1.00  0.00    -0.319 N 
HETATM    6  C   UNL     1       5.328  28.529  49.774  1.00  0.00     0.011 C 
HETATM    7  C   UNL     1       4.699  27.179  51.957  1.00  0.00     0.165 C 
HETATM    8  S   UNL     1       2.800  28.839  48.920  1.00  0.00    -0.086 SA
HETATM    9  C   UNL     1       4.574  28.599  48.442  1.00  0.00     0.135 C 
HETATM   10  C   UNL     1       4.547  28.252  52.972  1.00  0.00     0.062 C 
ENDROOT
BRANCH   6  11
HETATM   11  C   UNL     1       6.120  29.717  50.262  1.00  0.00     0.156 C 
BRANCH  11  12
HETATM   12  C   UNL     1       5.652  31.108  49.951  1.00  0.00     0.223 C 
HETATM   13  N   UNL     1       4.698  31.567  50.841  1.00  0.00    -0.359 N 
HETATM   14  H   UNL     1       4.862  31.306  51.821  1.00  0.00     0.162 HD
HETATM   15  O   UNL     1       5.989  31.690  48.933  1.00  0.00    -0.273 OA
BRANCH  13  16
HETATM   16  C   UNL     1       4.030  32.857  50.658  1.00  0.00     0.150 C 
BRANCH  16  17
HETATM   17  C   UNL     1       2.653  32.729  49.973  1.00  0.00     0.253 C 
BRANCH  17  18
HETATM   18  N   UNL     1       1.620  32.110  50.914  1.00  0.00    -0.077 N 
HETATM   19  H   UNL     1       2.082  31.298  51.339  1.00  0.00     0.279 HD
HETATM   20  C   UNL     1       1.193  33.016  52.038  1.00  0.00     0.269 C 
HETATM   21  C   UNL     1       0.418  31.597  50.161  1.00  0.00     0.269 C 
ENDBRANCH  17  18
ENDBRANCH  16  17
ENDBRANCH  13  16
ENDBRANCH  11  12
ENDBRANCH   6  11
BRANCH   7  22
HETATM   22  C   UNL     1       5.422  25.870  52.197  1.00  0.00    -0.030 A 
HETATM   23  C   UNL     1       5.131  24.980  53.234  1.00  0.00     0.010 A 
HETATM   24  C   UNL     1       6.063  23.987  53.592  1.00  0.00     0.008 A 
HETATM   25  C   UNL     1       7.289  23.849  52.919  1.00  0.00    -0.055 A 
HETATM   26  C   UNL     1       7.523  24.657  51.809  1.00  0.00     0.008 A 
HETATM   27  C   UNL     1       6.618  25.660  51.467  1.00  0.00     0.010 A 
BRANCH  25  28
HETATM   28  C   UNL     1       8.341  22.870  53.426  1.00  0.00     0.010 C 
HETATM   29  C   UNL     1       8.607  23.071  54.917  1.00  0.00     0.015 C 
HETATM   30  C   UNL     1       7.988  21.400  53.146  1.00  0.00     0.015 C 
ENDBRANCH  25  28
ENDBRANCH   7  22
BRANCH  10  31
HETATM   31  C   UNL     1       5.727  28.720  53.749  1.00  0.00     0.256 C 
HETATM   32  N   UNL     1       5.608  28.687  55.112  1.00  0.00    -0.323 N 
HETATM   33  H   UNL     1       4.729  28.420  55.538  1.00  0.00     0.169 HD
HETATM   34  O   UNL     1       6.765  28.911  53.112  1.00  0.00    -0.267 OA
BRANCH  32  35
HETATM   35  C   UNL     1       6.655  28.869  56.048  1.00  0.00     0.035 A 
HETATM   36  C   UNL     1       6.825  30.026  56.811  1.00  0.00     0.029 A 
HETATM   37  C   UNL     1       7.901  30.136  57.699  1.00  0.00     0.002 A 
HETATM   38  C   UNL     1       8.816  29.095  57.825  1.00  0.00     0.000 A 
HETATM   39  C   UNL     1       8.649  27.934  57.076  1.00  0.00     0.002 A 
HETATM   40  C   UNL     1       7.567  27.816  56.200  1.00  0.00     0.029 A 
ENDBRANCH  32  35
ENDBRANCH  10  31
TORSDOF 9
ENDMDL
MODEL 4
REMARK VINA RESULT:      -7.9      8.705     11.334
REMARK  9 active torsions:
REMARK  status: ('A' for Active; 'I' for Inactive)
REMARK    1  A    between atoms: C_6  and  C_7 
REMARK    2  A    between atoms: C_7  and  C_8 
REMARK       I    between atoms: C_8  and  N_9 
REMARK    3  A    between atoms: N_9  and  C_10 
REMARK    4  A    between atoms: C_10  and  C_11 
REMARK    5  A    between atoms: C_11  and  N_12 
REMARK    6  A    between atoms: C_17  and  C_18 
REMARK    7  A    between atoms: C_21  and  C_22 
REMARK    8  A    between atoms: C_29  and  C_30 
REMARK       I    between atoms: C_30  and  N_31 
REMARK    9  A    between atoms: N_31  and  C_32 
ROOT
HETATM    1  C   UNL     1       0.380  34.818  61.829  1.00  0.00     0.071 C 
HETATM    2  C   UNL     1       1.574  34.510  60.959  1.00  0.00     0.047 C 
HETATM    3  N   UNL     1       1.303  34.578  59.578  1.00  0.00    -0.229 NA
HETATM    4  C   UNL     1       2.283  34.932  58.805  1.00  0.00     0.170 C 
HETATM    5  N   UNL     1       3.778  35.092  59.353  1.00  0.00    -0.319 N 
HETATM    6  C   UNL     1       3.995  36.346  59.075  1.00  0.00     0.011 C 
HETATM    7  C   UNL     1       3.863  34.065  60.403  1.00  0.00     0.165 C 
HETATM    8  S   UNL     1       2.128  35.698  57.256  1.00  0.00    -0.086 SA
HETATM    9  C   UNL     1       3.707  36.608  57.593  1.00  0.00     0.135 C 
HETATM   10  C   UNL     1       2.836  34.348  61.438  1.00  0.00     0.062 C 
ENDROOT
BRANCH   6  11
HETATM   11  C   UNL     1       3.721  37.415  60.103  1.00  0.00     0.156 C 
BRANCH  11  12
HETATM   12  C   UNL     1       4.434  38.732  60.024  1.00  0.00     0.223 C 
HETATM   13  N   UNL     1       5.708  38.688  60.561  1.00  0.00    -0.359 N 
HETATM   14  H   UNL     1       6.231  37.827  60.360  1.00  0.00     0.162 HD
HETATM   15  O   UNL     1       3.873  39.750  59.652  1.00  0.00    -0.273 OA
BRANCH  13  16
HETATM   16  C   UNL     1       6.536  39.889  60.683  1.00  0.00     0.150 C 
BRANCH  16  17
HETATM   17  C   UNL     1       7.464  39.858  61.915  1.00  0.00     0.253 C 
BRANCH  17  18
HETATM   18  N   UNL     1       6.767  40.431  63.149  1.00  0.00    -0.077 N 
HETATM   19  H   UNL     1       7.483  40.976  63.645  1.00  0.00     0.279 HD
HETATM   20  C   UNL     1       5.634  41.370  62.835  1.00  0.00     0.269 C 
HETATM   21  C   UNL     1       6.308  39.341  64.085  1.00  0.00     0.269 C 
ENDBRANCH  17  18
ENDBRANCH  16  17
ENDBRANCH  13  16
ENDBRANCH  11  12
ENDBRANCH   6  11
BRANCH   7  22
HETATM   22  C   UNL     1       5.165  33.337  60.666  1.00  0.00    -0.030 A 
HETATM   23  C   UNL     1       6.022  33.602  61.737  1.00  0.00     0.010 A 
HETATM   24  C   UNL     1       7.351  33.139  61.707  1.00  0.00     0.008 A 
HETATM   25  C   UNL     1       7.847  32.392  60.624  1.00  0.00    -0.055 A 
HETATM   26  C   UNL     1       6.958  32.026  59.617  1.00  0.00     0.008 A 
HETATM   27  C   UNL     1       5.650  32.504  59.627  1.00  0.00     0.010 A 
BRANCH  25  28
HETATM   28  C   UNL     1       9.328  32.038  60.546  1.00  0.00     0.010 C 
HETATM   29  C   UNL     1       9.670  30.887  61.490  1.00  0.00     0.015 C 
HETATM   30  C   UNL     1       9.799  31.710  59.120  1.00  0.00     0.015 C 
ENDBRANCH  25  28
ENDBRANCH   7  22
BRANCH  10  31
HETATM   31  C   UNL     1       3.233  34.944  62.743  1.00  0.00     0.256 C 
HETATM   32  N   UNL     1       3.413  34.069  63.780  1.00  0.00    -0.323 N 
HETATM   33  H   UNL     1       3.211  33.085  63.653  1.00  0.00     0.169 HD
HETATM   34  O   UNL     1       3.552  36.135  62.730  1.00  0.00    -0.267 OA
BRANCH  32  35
HETATM   35  C   UNL     1       3.995  34.368  65.035  1.00  0.00     0.035 A 
HETATM   36  C   UNL     1       5.175  33.785  65.505  1.00  0.00     0.029 A 
HETATM   37  C   UNL     1       5.675  34.119  66.768  1.00  0.00     0.002 A 
HETATM   38  C   UNL     1       4.997  35.031  67.572  1.00  0.00     0.000 A 
HETATM   39  C   UNL     1       3.828  35.626  67.109  1.00  0.00     0.002 A 
HETATM   40  C   UNL     1       3.335  35.305  65.841  1.00  0.00     0.029 A 
ENDBRANCH  32  35
ENDBRANCH  10  31
TORSDOF 9
ENDMDL
MODEL 5
REMARK VINA RESULT:      -7.8      2.363      2.985
REMARK  9 active torsions:
REMARK  status: ('A' for Active; 'I' for Inactive)
REMARK    1  A    between atoms: C_6  and  C_7 
REMARK    2  A    between atoms: C_7  and  C_8 
REMARK       I    between atoms: C_8  and  N_9 
REMARK    3  A    between atoms: N_9  and  C_10 
REMARK    4  A    between atoms: C_10  and  C_11 
REMARK    5  A    between atoms: C_11  and  N_12 
REMARK    6  A    between atoms: C_17  and  C_18 
REMARK    7  A    between atoms: C_21  and  C_22 
REMARK    8  A    between atoms: C_29  and  C_30 
REMARK       I    between atoms: C_30  and  N_31 
REMARK    9  A    between atoms: N_31  and  C_32 
ROOT
HETATM    1  C   UNL     1       1.996  30.032  51.749  1.00  0.00     0.071 C 
HETATM    2  C   UNL     1       2.785  28.889  51.159  1.00  0.00     0.047 C 
HETATM    3  N   UNL     1       2.465  28.613  49.816  1.00  0.00    -0.229 NA
HETATM    4  C   UNL     1       3.417  28.137  49.073  1.00  0.00     0.170 C 
HETATM    5  N   UNL     1       4.827  27.693  49.685  1.00  0.00    -0.319 N 
HETATM    6  C   UNL     1       5.626  28.483  49.027  1.00  0.00     0.011 C 
HETATM    7  C   UNL     1       4.471  27.189  51.021  1.00  0.00     0.165 C 
HETATM    8  S   UNL     1       3.537  28.298  47.349  1.00  0.00    -0.086 SA
HETATM    9  C   UNL     1       5.382  28.335  47.522  1.00  0.00     0.135 C 
HETATM   10  C   UNL     1       3.826  28.284  51.791  1.00  0.00     0.062 C 
ENDROOT
BRANCH   6  11
HETATM   11  C   UNL     1       6.025  29.818  49.605  1.00  0.00     0.156 C 
BRANCH  11  12
HETATM   12  C   UNL     1       5.491  31.084  49.004  1.00  0.00     0.223 C 
HETATM   13  N   UNL     1       6.474  32.031  48.777  1.00  0.00    -0.359 N 
HETATM   14  H   UNL     1       7.363  31.653  48.428  1.00  0.00     0.162 HD
HETATM   15  O   UNL     1       4.294  31.284  48.876  1.00  0.00    -0.273 OA
BRANCH  13  16
HETATM   16  C   UNL     1       6.154  33.376  48.297  1.00  0.00     0.150 C 
BRANCH  16  17
HETATM   17  C   UNL     1       7.375  34.108  47.701  1.00  0.00     0.253 C 
BRANCH  17  18
HETATM   18  N   UNL     1       7.505  33.840  46.201  1.00  0.00    -0.077 N 
HETATM   19  H   UNL     1       8.132  33.031  46.117  1.00  0.00     0.279 HD
HETATM   20  C   UNL     1       6.210  33.470  45.529  1.00  0.00     0.269 C 
HETATM   21  C   UNL     1       8.163  34.993  45.486  1.00  0.00     0.269 C 
ENDBRANCH  17  18
ENDBRANCH  16  17
ENDBRANCH  13  16
ENDBRANCH  11  12
ENDBRANCH   6  11
BRANCH   7  22
HETATM   22  C   UNL     1       5.238  26.042  51.644  1.00  0.00    -0.030 A 
HETATM   23  C   UNL     1       4.745  25.210  52.652  1.00  0.00     0.010 A 
HETATM   24  C   UNL     1       5.631  24.418  53.407  1.00  0.00     0.008 A 
HETATM   25  C   UNL     1       7.016  24.425  53.165  1.00  0.00    -0.055 A 
HETATM   26  C   UNL     1       7.490  25.161  52.081  1.00  0.00     0.008 A 
HETATM   27  C   UNL     1       6.622  25.968  51.348  1.00  0.00     0.010 A 
BRANCH  25  28
HETATM   28  C   UNL     1       7.965  23.679  54.096  1.00  0.00     0.010 C 
HETATM   29  C   UNL     1       7.315  23.420  55.453  1.00  0.00     0.015 C 
HETATM   30  C   UNL     1       8.489  22.362  53.500  1.00  0.00     0.015 C 
ENDBRANCH  25  28
ENDBRANCH   7  22
BRANCH  10  31
HETATM   31  C   UNL     1       4.585  28.997  52.855  1.00  0.00     0.256 C 
HETATM   32  N   UNL     1       4.773  28.316  54.027  1.00  0.00    -0.323 N 
HETATM   33  H   UNL     1       4.348  27.406  54.158  1.00  0.00     0.169 HD
HETATM   34  O   UNL     1       5.138  30.048  52.525  1.00  0.00    -0.267 OA
BRANCH  32  35
HETATM   35  C   UNL     1       5.637  28.692  55.083  1.00  0.00     0.035 A 
HETATM   36  C   UNL     1       6.995  28.370  55.130  1.00  0.00     0.029 A 
HETATM   37  C   UNL     1       7.778  28.761  56.222  1.00  0.00     0.002 A 
HETATM   38  C   UNL     1       7.209  29.470  57.275  1.00  0.00     0.000 A 
HETATM   39  C   UNL     1       5.859  29.805  57.233  1.00  0.00     0.002 A 
HETATM   40  C   UNL     1       5.079  29.429  56.136  1.00  0.00     0.029 A 
ENDBRANCH  32  35
ENDBRANCH  10  31
TORSDOF 9
ENDMDL
MODEL 6
REMARK VINA RESULT:      -7.7      9.211     13.564
REMARK  9 active torsions:
REMARK  status: ('A' for Active; 'I' for Inactive)
REMARK    1  A    between atoms: C_6  and  C_7 
REMARK    2  A    between atoms: C_7  and  C_8 
REMARK       I    between atoms: C_8  and  N_9 
REMARK    3  A    between atoms: N_9  and  C_10 
REMARK    4  A    between atoms: C_10  and  C_11 
REMARK    5  A    between atoms: C_11  and  N_12 
REMARK    6  A    between atoms: C_17  and  C_18 
REMARK    7  A    between atoms: C_21  and  C_22 
REMARK    8  A    between atoms: C_29  and  C_30 
REMARK       I    between atoms: C_30  and  N_31 
REMARK    9  A    between atoms: N_31  and  C_32 
ROOT
HETATM    1  C   UNL     1       2.843  36.123  61.233  1.00  0.00     0.071 C 
HETATM    2  C   UNL     1       3.379  35.218  62.314  1.00  0.00     0.047 C 
HETATM    3  N   UNL     1       2.908  33.892  62.230  1.00  0.00    -0.229 NA
HETATM    4  C   UNL     1       3.702  32.960  62.658  1.00  0.00     0.170 C 
HETATM    5  N   UNL     1       5.064  33.295  63.428  1.00  0.00    -0.319 N 
HETATM    6  C   UNL     1       5.927  32.730  62.634  1.00  0.00     0.011 C 
HETATM    7  C   UNL     1       4.740  34.528  64.164  1.00  0.00     0.165 C 
HETATM    8  S   UNL     1       3.705  31.307  62.130  1.00  0.00    -0.086 SA
HETATM    9  C   UNL     1       5.538  31.266  62.400  1.00  0.00     0.135 C 
HETATM   10  C   UNL     1       4.353  35.581  63.191  1.00  0.00     0.062 C 
ENDROOT
BRANCH   6  11
HETATM   11  C   UNL     1       6.590  33.525  61.536  1.00  0.00     0.156 C 
BRANCH  11  12
HETATM   12  C   UNL     1       7.291  32.816  60.416  1.00  0.00     0.223 C 
HETATM   13  N   UNL     1       8.616  32.539  60.699  1.00  0.00    -0.359 N 
HETATM   14  H   UNL     1       8.797  32.241  61.665  1.00  0.00     0.162 HD
HETATM   15  O   UNL     1       6.763  32.645  59.329  1.00  0.00    -0.273 OA
BRANCH  13  16
HETATM   16  C   UNL     1       9.511  31.948  59.702  1.00  0.00     0.150 C 
BRANCH  16  17
HETATM   17  C   UNL     1       9.225  30.453  59.449  1.00  0.00     0.253 C 
BRANCH  17  18
HETATM   18  N   UNL     1       8.652  30.226  58.050  1.00  0.00    -0.077 N 
HETATM   19  H   UNL     1       8.302  31.141  57.741  1.00  0.00     0.279 HD
HETATM   20  C   UNL     1       9.668  29.774  57.036  1.00  0.00     0.269 C 
HETATM   21  C   UNL     1       7.475  29.284  58.077  1.00  0.00     0.269 C 
ENDBRANCH  17  18
ENDBRANCH  16  17
ENDBRANCH  13  16
ENDBRANCH  11  12
ENDBRANCH   6  11
BRANCH   7  22
HETATM   22  C   UNL     1       5.354  34.801  65.521  1.00  0.00    -0.030 A 
HETATM   23  C   UNL     1       6.459  34.125  66.044  1.00  0.00     0.010 A 
HETATM   24  C   UNL     1       6.736  34.191  67.423  1.00  0.00     0.008 A 
HETATM   25  C   UNL     1       5.934  34.940  68.302  1.00  0.00    -0.055 A 
HETATM   26  C   UNL     1       4.907  35.709  67.760  1.00  0.00     0.008 A 
HETATM   27  C   UNL     1       4.610  35.627  66.401  1.00  0.00     0.010 A 
BRANCH  25  28
HETATM   28  C   UNL     1       6.164  34.867  69.807  1.00  0.00     0.010 C 
HETATM   29  C   UNL     1       6.200  33.419  70.290  1.00  0.00     0.015 C 
HETATM   30  C   UNL     1       7.432  35.608  70.263  1.00  0.00     0.015 C 
ENDBRANCH  25  28
ENDBRANCH   7  22
BRANCH  10  31
HETATM   31  C   UNL     1       5.305  36.675  62.854  1.00  0.00     0.256 C 
HETATM   32  N   UNL     1       5.100  37.873  63.484  1.00  0.00    -0.323 N 
HETATM   33  H   UNL     1       4.297  37.997  64.088  1.00  0.00     0.169 HD
HETATM   34  O   UNL     1       6.297  36.357  62.195  1.00  0.00    -0.267 OA
BRANCH  32  35
HETATM   35  C   UNL     1       5.990  38.974  63.496  1.00  0.00     0.035 A 
HETATM   36  C   UNL     1       6.726  39.391  62.385  1.00  0.00     0.029 A 
HETATM   37  C   UNL     1       7.603  40.477  62.484  1.00  0.00     0.002 A 
HETATM   38  C   UNL     1       7.753  41.149  63.693  1.00  0.00     0.000 A 
HETATM   39  C   UNL     1       7.015  40.748  64.803  1.00  0.00     0.002 A 
HETATM   40  C   UNL     1       6.128  39.673  64.702  1.00  0.00     0.029 A 
ENDBRANCH  32  35
ENDBRANCH  10  31
TORSDOF 9
ENDMDL
MODEL 7
REMARK VINA RESULT:      -7.6      2.795      4.456
REMARK  9 active torsions:
REMARK  status: ('A' for Active; 'I' for Inactive)
REMARK    1  A    between atoms: C_6  and  C_7 
REMARK    2  A    between atoms: C_7  and  C_8 
REMARK       I    between atoms: C_8  and  N_9 
REMARK    3  A    between atoms: N_9  and  C_10 
REMARK    4  A    between atoms: C_10  and  C_11 
REMARK    5  A    between atoms: C_11  and  N_12 
REMARK    6  A    between atoms: C_17  and  C_18 
REMARK    7  A    between atoms: C_21  and  C_22 
REMARK    8  A    between atoms: C_29  and  C_30 
REMARK       I    between atoms: C_30  and  N_31 
REMARK    9  A    between atoms: N_31  and  C_32 
ROOT
HETATM    1  C   UNL     1       1.080  30.056  50.653  1.00  0.00     0.071 C 
HETATM    2  C   UNL     1       2.178  29.026  50.558  1.00  0.00     0.047 C 
HETATM    3  N   UNL     1       2.180  28.309  49.345  1.00  0.00    -0.229 NA
HETATM    4  C   UNL     1       3.331  27.893  48.912  1.00  0.00     0.170 C 
HETATM    5  N   UNL     1       4.659  28.006  49.796  1.00  0.00    -0.319 N 
HETATM    6  C   UNL     1       5.394  28.750  49.019  1.00  0.00     0.011 C 
HETATM    7  C   UNL     1       4.165  27.832  51.171  1.00  0.00     0.165 C 
HETATM    8  S   UNL     1       3.739  27.582  47.255  1.00  0.00    -0.086 SA
HETATM    9  C   UNL     1       5.473  28.124  47.623  1.00  0.00     0.135 C 
HETATM   10  C   UNL     1       3.181  28.904  51.468  1.00  0.00     0.062 C 
ENDROOT
BRANCH   6  11
HETATM   11  C   UNL     1       5.401  30.250  49.182  1.00  0.00     0.156 C 
BRANCH  11  12
HETATM   12  C   UNL     1       4.748  31.119  48.149  1.00  0.00     0.223 C 
HETATM   13  N   UNL     1       3.368  31.136  48.253  1.00  0.00    -0.359 N 
HETATM   14  H   UNL     1       3.009  31.154  49.216  1.00  0.00     0.162 HD
HETATM   15  O   UNL     1       5.381  31.627  47.237  1.00  0.00    -0.273 OA
BRANCH  13  16
HETATM   16  C   UNL     1       2.530  31.834  47.277  1.00  0.00     0.150 C 
BRANCH  16  17
HETATM   17  C   UNL     1       1.653  30.876  46.444  1.00  0.00     0.253 C 
BRANCH  17  18
HETATM   18  N   UNL     1       1.789  31.158  44.948  1.00  0.00    -0.077 N 
HETATM   19  H   UNL     1       1.875  30.239  44.498  1.00  0.00     0.279 HD
HETATM   20  C   UNL     1       0.593  31.840  44.340  1.00  0.00     0.269 C 
HETATM   21  C   UNL     1       3.050  31.926  44.639  1.00  0.00     0.269 C 
ENDBRANCH  17  18
ENDBRANCH  16  17
ENDBRANCH  13  16
ENDBRANCH  11  12
ENDBRANCH   6  11
BRANCH   7  22
HETATM   22  C   UNL     1       5.015  27.138  52.215  1.00  0.00    -0.030 A 
HETATM   23  C   UNL     1       6.254  27.598  52.666  1.00  0.00     0.010 A 
HETATM   24  C   UNL     1       7.121  26.728  53.354  1.00  0.00     0.008 A 
HETATM   25  C   UNL     1       6.767  25.394  53.623  1.00  0.00    -0.055 A 
HETATM   26  C   UNL     1       5.483  24.974  53.280  1.00  0.00     0.008 A 
HETATM   27  C   UNL     1       4.632  25.821  52.574  1.00  0.00     0.010 A 
BRANCH  25  28
HETATM   28  C   UNL     1       7.783  24.434  54.230  1.00  0.00     0.010 C 
HETATM   29  C   UNL     1       7.274  23.857  55.550  1.00  0.00     0.015 C 
HETATM   30  C   UNL     1       8.188  23.297  53.278  1.00  0.00     0.015 C 
ENDBRANCH  25  28
ENDBRANCH   7  22
BRANCH  10  31
HETATM   31  C   UNL     1       3.566  30.056  52.329  1.00  0.00     0.256 C 
HETATM   32  N   UNL     1       3.143  30.010  53.630  1.00  0.00    -0.323 N 
HETATM   33  H   UNL     1       2.544  29.255  53.941  1.00  0.00     0.169 HD
HETATM   34  O   UNL     1       4.386  30.846  51.856  1.00  0.00    -0.267 OA
BRANCH  32  35
HETATM   35  C   UNL     1       3.565  30.863  54.677  1.00  0.00     0.035 A 
HETATM   36  C   UNL     1       4.767  30.707  55.372  1.00  0.00     0.029 A 
HETATM   37  C   UNL     1       5.102  31.582  56.412  1.00  0.00     0.002 A 
HETATM   38  C   UNL     1       4.237  32.613  56.768  1.00  0.00     0.000 A 
HETATM   39  C   UNL     1       3.042  32.783  56.074  1.00  0.00     0.002 A 
HETATM   40  C   UNL     1       2.713  31.920  55.025  1.00  0.00     0.029 A 
ENDBRANCH  32  35
ENDBRANCH  10  31
TORSDOF 9
ENDMDL
MODEL 8
REMARK VINA RESULT:      -7.3      7.182      9.868
REMARK  9 active torsions:
REMARK  status: ('A' for Active; 'I' for Inactive)
REMARK    1  A    between atoms: C_6  and  C_7 
REMARK    2  A    between atoms: C_7  and  C_8 
REMARK       I    between atoms: C_8  and  N_9 
REMARK    3  A    between atoms: N_9  and  C_10 
REMARK    4  A    between atoms: C_10  and  C_11 
REMARK    5  A    between atoms: C_11  and  N_12 
REMARK    6  A    between atoms: C_17  and  C_18 
REMARK    7  A    between atoms: C_21  and  C_22 
REMARK    8  A    between atoms: C_29  and  C_30 
REMARK       I    between atoms: C_30  and  N_31 
REMARK    9  A    between atoms: N_31  and  C_32 
ROOT
HETATM    1  C   UNL     1       1.032  35.045  61.411  1.00  0.00     0.071 C 
HETATM    2  C   UNL     1       1.879  34.529  60.274  1.00  0.00     0.047 C 
HETATM    3  N   UNL     1       1.324  34.761  59.001  1.00  0.00    -0.229 NA
HETATM    4  C   UNL     1       2.157  34.930  58.020  1.00  0.00     0.170 C 
HETATM    5  N   UNL     1       3.730  34.692  58.194  1.00  0.00    -0.319 N 
HETATM    6  C   UNL     1       4.180  35.876  57.891  1.00  0.00     0.011 C 
HETATM    7  C   UNL     1       3.798  33.598  59.176  1.00  0.00     0.165 C 
HETATM    8  S   UNL     1       1.844  35.823  56.565  1.00  0.00    -0.086 SA
HETATM    9  C   UNL     1       3.633  36.307  56.527  1.00  0.00     0.135 C 
HETATM   10  C   UNL     1       3.138  34.038  60.432  1.00  0.00     0.062 C 
ENDROOT
BRANCH   6  11
HETATM   11  C   UNL     1       4.421  36.901  58.972  1.00  0.00     0.156 C 
BRANCH  11  12
HETATM   12  C   UNL     1       3.514  38.088  59.095  1.00  0.00     0.223 C 
HETATM   13  N   UNL     1       4.119  39.272  58.714  1.00  0.00    -0.359 N 
HETATM   14  H   UNL     1       4.731  39.198  57.892  1.00  0.00     0.162 HD
HETATM   15  O   UNL     1       2.412  38.009  59.615  1.00  0.00    -0.273 OA
BRANCH  13  16
HETATM   16  C   UNL     1       3.447  40.564  58.858  1.00  0.00     0.150 C 
BRANCH  16  17
HETATM   17  C   UNL     1       4.320  41.621  59.566  1.00  0.00     0.253 C 
BRANCH  17  18
HETATM   18  N   UNL     1       4.060  41.637  61.072  1.00  0.00    -0.077 N 
HETATM   19  H   UNL     1       4.138  42.621  61.357  1.00  0.00     0.279 HD
HETATM   20  C   UNL     1       2.684  41.170  61.463  1.00  0.00     0.269 C 
HETATM   21  C   UNL     1       5.115  40.869  61.827  1.00  0.00     0.269 C 
ENDBRANCH  17  18
ENDBRANCH  16  17
ENDBRANCH  13  16
ENDBRANCH  11  12
ENDBRANCH   6  11
BRANCH   7  22
HETATM   22  C   UNL     1       4.904  32.566  59.107  1.00  0.00    -0.030 A 
HETATM   23  C   UNL     1       6.172  32.721  59.673  1.00  0.00     0.010 A 
HETATM   24  C   UNL     1       7.231  31.888  59.264  1.00  0.00     0.008 A 
HETATM   25  C   UNL     1       7.048  30.879  58.302  1.00  0.00    -0.055 A 
HETATM   26  C   UNL     1       5.757  30.648  57.831  1.00  0.00     0.008 A 
HETATM   27  C   UNL     1       4.711  31.486  58.210  1.00  0.00     0.010 A 
BRANCH  25  28
HETATM   28  C   UNL     1       8.242  30.099  57.766  1.00  0.00     0.010 C 
HETATM   29  C   UNL     1       9.530  30.501  58.484  1.00  0.00     0.015 C 
HETATM   30  C   UNL     1       8.052  28.574  57.837  1.00  0.00     0.015 C 
ENDBRANCH  25  28
ENDBRANCH   7  22
BRANCH  10  31
HETATM   31  C   UNL     1       3.959  34.426  61.613  1.00  0.00     0.256 C 
HETATM   32  N   UNL     1       4.176  33.449  62.547  1.00  0.00    -0.323 N 
HETATM   33  H   UNL     1       3.732  32.545  62.448  1.00  0.00     0.169 HD
HETATM   34  O   UNL     1       4.527  35.518  61.553  1.00  0.00    -0.267 OA
BRANCH  32  35
HETATM   35  C   UNL     1       5.093  33.512  63.624  1.00  0.00     0.035 A 
HETATM   36  C   UNL     1       4.736  33.851  64.932  1.00  0.00     0.029 A 
HETATM   37  C   UNL     1       5.707  33.912  65.937  1.00  0.00     0.002 A 
HETATM   38  C   UNL     1       7.040  33.643  65.642  1.00  0.00     0.000 A 
HETATM   39  C   UNL     1       7.404  33.293  64.344  1.00  0.00     0.002 A 
HETATM   40  C   UNL     1       6.433  33.217  63.342  1.00  0.00     0.029 A 
ENDBRANCH  32  35
ENDBRANCH  10  31
TORSDOF 9
ENDMDL
MODEL 9
REMARK VINA RESULT:      -7.2      8.422     13.634
REMARK  9 active torsions:
REMARK  status: ('A' for Active; 'I' for Inactive)
REMARK    1  A    between atoms: C_6  and  C_7 
REMARK    2  A    between atoms: C_7  and  C_8 
REMARK       I    between atoms: C_8  and  N_9 
REMARK    3  A    between atoms: N_9  and  C_10 
REMARK    4  A    between atoms: C_10  and  C_11 
REMARK    5  A    between atoms: C_11  and  N_12 
REMARK    6  A    between atoms: C_17  and  C_18 
REMARK    7  A    between atoms: C_21  and  C_22 
REMARK    8  A    between atoms: C_29  and  C_30 
REMARK       I    between atoms: C_30  and  N_31 
REMARK    9  A    between atoms: N_31  and  C_32 
ROOT
HETATM    1  C   UNL     1       1.803  34.189  63.577  1.00  0.00     0.071 C 
HETATM    2  C   UNL     1       3.043  34.946  63.984  1.00  0.00     0.047 C 
HETATM    3  N   UNL     1       3.415  34.746  65.328  1.00  0.00    -0.229 NA
HETATM    4  C   UNL     1       4.682  34.814  65.601  1.00  0.00     0.170 C 
HETATM    5  N   UNL     1       5.757  35.297  64.519  1.00  0.00    -0.319 N 
HETATM    6  C   UNL     1       6.516  34.240  64.457  1.00  0.00     0.011 C 
HETATM    7  C   UNL     1       5.014  36.287  63.724  1.00  0.00     0.165 C 
HETATM    8  S   UNL     1       5.478  34.024  66.925  1.00  0.00    -0.086 SA
HETATM    9  C   UNL     1       6.987  33.855  65.863  1.00  0.00     0.135 C 
HETATM   10  C   UNL     1       3.835  35.625  63.111  1.00  0.00     0.062 C 
ENDROOT
BRANCH   6  11
HETATM   11  C   UNL     1       6.255  33.173  63.423  1.00  0.00     0.156 C 
BRANCH  11  12
HETATM   12  C   UNL     1       7.365  32.713  62.525  1.00  0.00     0.223 C 
HETATM   13  N   UNL     1       6.943  32.459  61.232  1.00  0.00    -0.359 N 
HETATM   14  H   UNL     1       6.252  33.126  60.866  1.00  0.00     0.162 HD
HETATM   15  O   UNL     1       8.480  32.460  62.953  1.00  0.00    -0.273 OA
BRANCH  13  16
HETATM   16  C   UNL     1       7.843  31.899  60.223  1.00  0.00     0.150 C 
BRANCH  16  17
HETATM   17  C   UNL     1       7.146  31.647  58.870  1.00  0.00     0.253 C 
BRANCH  17  18
HETATM   18  N   UNL     1       7.057  30.152  58.561  1.00  0.00    -0.077 N 
HETATM   19  H   UNL     1       6.725  29.709  59.426  1.00  0.00     0.279 HD
HETATM   20  C   UNL     1       6.070  29.807  57.478  1.00  0.00     0.269 C 
HETATM   21  C   UNL     1       8.411  29.567  58.251  1.00  0.00     0.269 C 
ENDBRANCH  17  18
ENDBRANCH  16  17
ENDBRANCH  13  16
ENDBRANCH  11  12
ENDBRANCH   6  11
BRANCH   7  22
HETATM   22  C   UNL     1       5.718  37.493  63.139  1.00  0.00    -0.030 A 
HETATM   23  C   UNL     1       5.729  38.766  63.715  1.00  0.00     0.010 A 
HETATM   24  C   UNL     1       6.094  39.885  62.944  1.00  0.00     0.008 A 
HETATM   25  C   UNL     1       6.470  39.761  61.594  1.00  0.00    -0.055 A 
HETATM   26  C   UNL     1       6.575  38.479  61.058  1.00  0.00     0.008 A 
HETATM   27  C   UNL     1       6.189  37.370  61.807  1.00  0.00     0.010 A 
BRANCH  25  28
HETATM   28  C   UNL     1       6.709  41.002  60.743  1.00  0.00     0.010 C 
HETATM   29  C   UNL     1       6.156  40.816  59.331  1.00  0.00     0.015 C 
HETATM   30  C   UNL     1       6.139  42.286  61.368  1.00  0.00     0.015 C 
ENDBRANCH  25  28
ENDBRANCH   7  22
BRANCH  10  31
HETATM   31  C   UNL     1       3.844  35.271  61.665  1.00  0.00     0.256 C 
HETATM   32  N   UNL     1       3.166  36.117  60.829  1.00  0.00    -0.323 N 
HETATM   33  H   UNL     1       2.640  36.893  61.211  1.00  0.00     0.169 HD
HETATM   34  O   UNL     1       4.611  34.368  61.324  1.00  0.00    -0.267 OA
BRANCH  32  35
HETATM   35  C   UNL     1       3.218  36.113  59.414  1.00  0.00     0.035 A 
HETATM   36  C   UNL     1       4.112  36.881  58.665  1.00  0.00     0.029 A 
HETATM   37  C   UNL     1       4.084  36.837  57.267  1.00  0.00     0.002 A 
HETATM   38  C   UNL     1       3.160  36.031  56.608  1.00  0.00     0.000 A 
HETATM   39  C   UNL     1       2.273  35.253  57.346  1.00  0.00     0.002 A 
HETATM   40  C   UNL     1       2.309  35.284  58.743  1.00  0.00     0.029 A 
ENDBRANCH  32  35
ENDBRANCH  10  31
TORSDOF 9
ENDMDL
MODEL 10
REMARK VINA RESULT:      -7.1      3.027      8.484
REMARK  9 active torsions:
REMARK  status: ('A' for Active; 'I' for Inactive)
REMARK    1  A    between atoms: C_6  and  C_7 
REMARK    2  A    between atoms: C_7  and  C_8 
REMARK       I    between atoms: C_8  and  N_9 
REMARK    3  A    between atoms: N_9  and  C_10 
REMARK    4  A    between atoms: C_10  and  C_11 
REMARK    5  A    between atoms: C_11  and  N_12 
REMARK    6  A    between atoms: C_17  and  C_18 
REMARK    7  A    between atoms: C_21  and  C_22 
REMARK    8  A    between atoms: C_29  and  C_30 
REMARK       I    between atoms: C_30  and  N_31 
REMARK    9  A    between atoms: N_31  and  C_32 
ROOT
HETATM    1  C   UNL     1       0.111  31.419  50.242  1.00  0.00     0.071 C 
HETATM    2  C   UNL     1       1.398  31.976  50.798  1.00  0.00     0.047 C 
HETATM    3  N   UNL     1       1.282  32.469  52.113  1.00  0.00    -0.229 NA
HETATM    4  C   UNL     1       2.338  32.391  52.863  1.00  0.00     0.170 C 
HETATM    5  N   UNL     1       3.760  31.947  52.280  1.00  0.00    -0.319 N 
HETATM    6  C   UNL     1       3.992  30.892  53.008  1.00  0.00     0.011 C 
HETATM    7  C   UNL     1       3.741  32.475  50.907  1.00  0.00     0.165 C 
HETATM    8  S   UNL     1       2.348  32.303  54.596  1.00  0.00    -0.086 SA
HETATM    9  C   UNL     1       3.868  31.247  54.493  1.00  0.00     0.135 C 
HETATM   10  C   UNL     1       2.601  31.867  50.174  1.00  0.00     0.062 C 
ENDROOT
BRANCH   6  11
HETATM   11  C   UNL     1       3.590  29.522  52.518  1.00  0.00     0.156 C 
BRANCH  11  12
HETATM   12  C   UNL     1       4.574  28.392  52.564  1.00  0.00     0.223 C 
HETATM   13  N   UNL     1       4.076  27.268  53.198  1.00  0.00    -0.359 N 
HETATM   14  H   UNL     1       3.091  27.060  52.995  1.00  0.00     0.162 HD
HETATM   15  O   UNL     1       5.732  28.528  52.201  1.00  0.00    -0.273 OA
BRANCH  13  16
HETATM   16  C   UNL     1       4.909  26.090  53.447  1.00  0.00     0.150 C 
BRANCH  16  17
HETATM   17  C   UNL     1       5.768  26.220  54.722  1.00  0.00     0.253 C 
BRANCH  17  18
HETATM   18  N   UNL     1       4.898  26.467  55.955  1.00  0.00    -0.077 N 
HETATM   19  H   UNL     1       3.928  26.442  55.620  1.00  0.00     0.279 HD
HETATM   20  C   UNL     1       5.028  25.412  57.020  1.00  0.00     0.269 C 
HETATM   21  C   UNL     1       5.134  27.839  56.536  1.00  0.00     0.269 C 
ENDBRANCH  17  18
ENDBRANCH  16  17
ENDBRANCH  13  16
ENDBRANCH  11  12
ENDBRANCH   6  11
BRANCH   7  22
HETATM   22  C   UNL     1       5.014  32.968  50.251  1.00  0.00    -0.030 A 
HETATM   23  C   UNL     1       5.303  34.308  49.984  1.00  0.00     0.010 A 
HETATM   24  C   UNL     1       6.322  34.640  49.070  1.00  0.00     0.008 A 
HETATM   25  C   UNL     1       7.081  33.652  48.420  1.00  0.00    -0.055 A 
HETATM   26  C   UNL     1       6.872  32.322  48.779  1.00  0.00     0.008 A 
HETATM   27  C   UNL     1       5.848  31.985  49.661  1.00  0.00     0.010 A 
BRANCH  25  28
HETATM   28  C   UNL     1       8.067  34.034  47.323  1.00  0.00     0.010 C 
HETATM   29  C   UNL     1       7.374  34.122  45.965  1.00  0.00     0.015 C 
HETATM   30  C   UNL     1       8.823  35.341  47.616  1.00  0.00     0.015 C 
ENDBRANCH  25  28
ENDBRANCH   7  22
BRANCH  10  31
HETATM   31  C   UNL     1       2.842  30.787  49.178  1.00  0.00     0.256 C 
HETATM   32  N   UNL     1       2.904  29.511  49.670  1.00  0.00    -0.323 N 
HETATM   33  H   UNL     1       2.855  29.350  50.668  1.00  0.00     0.169 HD
HETATM   34  O   UNL     1       2.771  31.108  47.990  1.00  0.00    -0.267 OA
BRANCH  32  35
HETATM   35  C   UNL     1       2.901  28.319  48.906  1.00  0.00     0.035 A 
HETATM   36  C   UNL     1       4.050  27.585  48.605  1.00  0.00     0.029 A 
HETATM   37  C   UNL     1       3.966  26.427  47.823  1.00  0.00     0.002 A 
HETATM   38  C   UNL     1       2.736  26.000  47.332  1.00  0.00     0.000 A 
HETATM   39  C   UNL     1       1.583  26.720  47.636  1.00  0.00     0.002 A 
HETATM   40  C   UNL     1       1.663  27.868  48.429  1.00  0.00     0.029 A 
ENDBRANCH  32  35
ENDBRANCH  10  31
TORSDOF 9
ENDMDL
