MODEL 1
REMARK VINA RESULT:      -9.3      0.000      0.000
REMARK  2 active torsions:
REMARK  status: ('A' for Active; 'I' for Inactive)
REMARK    1  A    between atoms: C_4  and  C_5 
REMARK    2  A    between atoms: C_10  and  C_11 
ROOT
HETATM    1  C   UNL     1       6.925  25.959  55.427  1.00  0.00     0.224 C 
HETATM    2  N   UNL     1       7.450  24.763  56.107  1.00  0.00    -0.359 N 
HETATM    3  C   UNL     1       8.279  25.013  57.285  1.00  0.00     0.152 C 
HETATM    4  C   UNL     1       7.875  23.749  55.218  1.00  0.00     0.047 A 
HETATM    5  C   UNL     1       7.256  23.603  53.962  1.00  0.00     0.058 A 
HETATM    6  C   UNL     1       6.164  24.527  53.606  1.00  0.00     0.255 C 
HETATM    7  O   UNL     1       5.507  24.407  52.578  1.00  0.00    -0.268 OA
HETATM    8  N   UNL     1       5.917  25.531  54.494  1.00  0.00    -0.331 N 
HETATM    9  C   UNL     1       8.872  22.810  55.533  1.00  0.00     0.030 A 
HETATM   10  C   UNL     1       9.251  21.807  54.630  1.00  0.00     0.002 A 
HETATM   11  C   UNL     1       8.631  21.702  53.391  1.00  0.00     0.001 A 
HETATM   12  C   UNL     1       7.623  22.599  53.055  1.00  0.00     0.019 A 
HETATM   13  H   UNL     1       5.262  26.217  54.154  1.00  0.00     0.165 HD
ENDROOT
BRANCH   1  14
HETATM   14  C   UNL     1       6.277  27.012  56.285  1.00  0.00     0.034 A 
HETATM   15  C   UNL     1       6.815  28.263  56.698  1.00  0.00     0.122 A 
HETATM   16  N   UNL     1       5.945  28.961  57.445  1.00  0.00    -0.172 NA
HETATM   17  N   UNL     1       4.878  28.157  57.541  1.00  0.00    -0.288 N 
HETATM   18  H   UNL     1       4.081  28.478  58.083  1.00  0.00     0.188 HD
HETATM   19  C   UNL     1       5.024  26.981  56.877  1.00  0.00     0.123 A 
BRANCH  15  20
HETATM   20  C   UNL     1       8.183  28.790  56.399  1.00  0.00     0.106 A 
HETATM   21  O   UNL     1       9.100  29.166  57.343  1.00  0.00    -0.313 OA
HETATM   22  C   UNL     1      10.211  29.603  56.688  1.00  0.00     0.050 A 
HETATM   23  C   UNL     1      11.332  30.067  57.527  1.00  0.00     0.076 C 
HETATM   24  C   UNL     1      10.022  29.515  55.326  1.00  0.00     0.035 A 
HETATM   25  C   UNL     1       8.718  28.995  55.142  1.00  0.00     0.042 A 
ENDBRANCH  15  20
ENDBRANCH   1  14
TORSDOF 2
ENDMDL
MODEL 2
REMARK VINA RESULT:      -8.5      1.533      2.316
REMARK  2 active torsions:
REMARK  status: ('A' for Active; 'I' for Inactive)
REMARK    1  A    between atoms: C_4  and  C_5 
REMARK    2  A    between atoms: C_10  and  C_11 
ROOT
HETATM    1  C   UNL     1       6.396  26.294  56.319  1.00  0.00     0.224 C 
HETATM    2  N   UNL     1       6.731  26.185  54.890  1.00  0.00    -0.359 N 
HETATM    3  C   UNL     1       5.736  26.720  53.960  1.00  0.00     0.152 C 
HETATM    4  C   UNL     1       7.347  24.961  54.546  1.00  0.00     0.047 A 
HETATM    5  C   UNL     1       8.143  24.279  55.486  1.00  0.00     0.058 A 
HETATM    6  C   UNL     1       8.313  24.875  56.824  1.00  0.00     0.255 C 
HETATM    7  O   UNL     1       9.067  24.400  57.666  1.00  0.00    -0.268 OA
HETATM    8  N   UNL     1       7.583  25.997  57.075  1.00  0.00    -0.331 N 
HETATM    9  C   UNL     1       7.261  24.381  53.268  1.00  0.00     0.030 A 
HETATM   10  C   UNL     1       7.904  23.173  52.961  1.00  0.00     0.002 A 
HETATM   11  C   UNL     1       8.668  22.518  53.920  1.00  0.00     0.001 A 
HETATM   12  C   UNL     1       8.795  23.074  55.187  1.00  0.00     0.019 A 
HETATM   13  H   UNL     1       7.621  26.294  58.038  1.00  0.00     0.165 HD
ENDROOT
BRANCH   1  14
HETATM   14  C   UNL     1       5.911  27.629  56.815  1.00  0.00     0.034 A 
HETATM   15  C   UNL     1       6.625  28.860  56.865  1.00  0.00     0.122 A 
HETATM   16  N   UNL     1       5.870  29.859  57.351  1.00  0.00    -0.172 NA
HETATM   17  N   UNL     1       4.701  29.273  57.641  1.00  0.00    -0.288 N 
HETATM   18  H   UNL     1       3.963  29.844  58.042  1.00  0.00     0.188 HD
HETATM   19  C   UNL     1       4.673  27.946  57.351  1.00  0.00     0.123 A 
BRANCH  15  20
HETATM   20  C   UNL     1       8.050  29.083  56.470  1.00  0.00     0.106 A 
HETATM   21  O   UNL     1       9.065  29.386  57.336  1.00  0.00    -0.313 OA
HETATM   22  C   UNL     1      10.205  29.528  56.605  1.00  0.00     0.050 A 
HETATM   23  C   UNL     1      11.430  29.867  57.353  1.00  0.00     0.076 C 
HETATM   24  C   UNL     1       9.938  29.322  55.269  1.00  0.00     0.035 A 
HETATM   25  C   UNL     1       8.553  29.039  55.183  1.00  0.00     0.042 A 
ENDBRANCH  15  20
ENDBRANCH   1  14
TORSDOF 2
ENDMDL
MODEL 3
REMARK VINA RESULT:      -8.3      2.519      3.322
REMARK  2 active torsions:
REMARK  status: ('A' for Active; 'I' for Inactive)
REMARK    1  A    between atoms: C_4  and  C_5 
REMARK    2  A    between atoms: C_10  and  C_11 
ROOT
HETATM    1  C   UNL     1       4.963  26.564  53.966  1.00  0.00     0.224 C 
HETATM    2  N   UNL     1       6.184  26.252  53.204  1.00  0.00    -0.359 N 
HETATM    3  C   UNL     1       6.162  26.620  51.789  1.00  0.00     0.152 C 
HETATM    4  C   UNL     1       6.757  25.005  53.541  1.00  0.00     0.047 A 
HETATM    5  C   UNL     1       6.616  24.490  54.843  1.00  0.00     0.058 A 
HETATM    6  C   UNL     1       5.863  25.280  55.834  1.00  0.00     0.255 C 
HETATM    7  O   UNL     1       5.779  24.953  57.012  1.00  0.00    -0.268 OA
HETATM    8  N   UNL     1       5.264  26.410  55.364  1.00  0.00    -0.331 N 
HETATM    9  C   UNL     1       7.530  24.241  52.650  1.00  0.00     0.030 A 
HETATM   10  C   UNL     1       8.098  23.017  53.029  1.00  0.00     0.002 A 
HETATM   11  C   UNL     1       7.924  22.528  54.319  1.00  0.00     0.001 A 
HETATM   12  C   UNL     1       7.186  23.269  55.235  1.00  0.00     0.019 A 
HETATM   13  H   UNL     1       4.650  26.848  56.034  1.00  0.00     0.165 HD
ENDROOT
BRANCH   1  14
HETATM   14  C   UNL     1       4.389  27.946  53.814  1.00  0.00     0.034 A 
HETATM   15  C   UNL     1       4.750  29.131  54.518  1.00  0.00     0.122 A 
HETATM   16  N   UNL     1       4.040  30.193  54.109  1.00  0.00    -0.172 NA
HETATM   17  N   UNL     1       3.210  29.695  53.183  1.00  0.00    -0.288 N 
HETATM   18  H   UNL     1       2.554  30.328  52.734  1.00  0.00     0.188 HD
HETATM   19  C   UNL     1       3.368  28.362  52.974  1.00  0.00     0.123 A 
BRANCH  15  20
HETATM   20  C   UNL     1       5.767  29.246  55.609  1.00  0.00     0.106 A 
HETATM   21  O   UNL     1       7.094  28.939  55.479  1.00  0.00    -0.313 OA
HETATM   22  C   UNL     1       7.689  29.155  56.684  1.00  0.00     0.050 A 
HETATM   23  C   UNL     1       9.135  28.876  56.765  1.00  0.00     0.076 C 
HETATM   24  C   UNL     1       6.758  29.597  57.598  1.00  0.00     0.035 A 
HETATM   25  C   UNL     1       5.523  29.652  56.908  1.00  0.00     0.042 A 
ENDBRANCH  15  20
ENDBRANCH   1  14
TORSDOF 2
ENDMDL
MODEL 4
REMARK VINA RESULT:      -8.3      2.041      5.782
REMARK  2 active torsions:
REMARK  status: ('A' for Active; 'I' for Inactive)
REMARK    1  A    between atoms: C_4  and  C_5 
REMARK    2  A    between atoms: C_10  and  C_11 
ROOT
HETATM    1  C   UNL     1       6.464  28.534  55.041  1.00  0.00     0.224 C 
HETATM    2  N   UNL     1       6.594  28.292  56.488  1.00  0.00    -0.359 N 
HETATM    3  C   UNL     1       5.339  28.185  57.231  1.00  0.00     0.152 C 
HETATM    4  C   UNL     1       7.644  29.020  57.090  1.00  0.00     0.047 A 
HETATM    5  C   UNL     1       8.795  29.350  56.348  1.00  0.00     0.058 A 
HETATM    6  C   UNL     1       8.870  28.917  54.941  1.00  0.00     0.255 C 
HETATM    7  O   UNL     1       9.874  29.075  54.255  1.00  0.00    -0.268 OA
HETATM    8  N   UNL     1       7.753  28.319  54.440  1.00  0.00    -0.331 N 
HETATM    9  C   UNL     1       7.644  29.408  58.441  1.00  0.00     0.030 A 
HETATM   10  C   UNL     1       8.716  30.114  59.006  1.00  0.00     0.002 A 
HETATM   11  C   UNL     1       9.829  30.439  58.239  1.00  0.00     0.001 A 
HETATM   12  C   UNL     1       9.874  30.051  56.905  1.00  0.00     0.019 A 
HETATM   13  H   UNL     1       7.793  28.162  53.444  1.00  0.00     0.165 HD
ENDROOT
BRANCH   1  14
HETATM   14  C   UNL     1       5.500  27.664  54.280  1.00  0.00     0.034 A 
HETATM   15  C   UNL     1       5.569  26.259  54.061  1.00  0.00     0.122 A 
HETATM   16  N   UNL     1       4.522  25.810  53.351  1.00  0.00    -0.172 NA
HETATM   17  N   UNL     1       3.809  26.913  53.086  1.00  0.00    -0.288 N 
HETATM   18  H   UNL     1       2.961  26.818  52.537  1.00  0.00     0.188 HD
HETATM   19  C   UNL     1       4.350  28.046  53.607  1.00  0.00     0.123 A 
BRANCH  15  20
HETATM   20  C   UNL     1       6.657  25.336  54.513  1.00  0.00     0.106 A 
HETATM   21  O   UNL     1       7.179  25.302  55.777  1.00  0.00    -0.313 OA
HETATM   22  C   UNL     1       8.153  24.351  55.797  1.00  0.00     0.050 A 
HETATM   23  C   UNL     1       8.857  24.154  57.078  1.00  0.00     0.076 C 
HETATM   24  C   UNL     1       8.269  23.768  54.554  1.00  0.00     0.035 A 
HETATM   25  C   UNL     1       7.310  24.404  53.729  1.00  0.00     0.042 A 
ENDBRANCH  15  20
ENDBRANCH   1  14
TORSDOF 2
ENDMDL
MODEL 5
REMARK VINA RESULT:      -8.0      2.298      3.591
REMARK  2 active torsions:
REMARK  status: ('A' for Active; 'I' for Inactive)
REMARK    1  A    between atoms: C_4  and  C_5 
REMARK    2  A    between atoms: C_10  and  C_11 
ROOT
HETATM    1  C   UNL     1       7.956  26.105  55.188  1.00  0.00     0.224 C 
HETATM    2  N   UNL     1       7.274  24.938  55.773  1.00  0.00    -0.359 N 
HETATM    3  C   UNL     1       7.270  24.870  57.234  1.00  0.00     0.152 C 
HETATM    4  C   UNL     1       7.506  23.736  55.068  1.00  0.00     0.047 A 
HETATM    5  C   UNL     1       7.742  23.762  53.680  1.00  0.00     0.058 A 
HETATM    6  C   UNL     1       7.739  25.066  52.992  1.00  0.00     0.255 C 
HETATM    7  O   UNL     1       7.837  25.169  51.775  1.00  0.00    -0.268 OA
HETATM    8  N   UNL     1       7.615  26.162  53.792  1.00  0.00    -0.331 N 
HETATM    9  C   UNL     1       7.464  22.466  55.668  1.00  0.00     0.030 A 
HETATM   10  C   UNL     1       7.682  21.293  54.928  1.00  0.00     0.002 A 
HETATM   11  C   UNL     1       7.930  21.357  53.562  1.00  0.00     0.001 A 
HETATM   12  C   UNL     1       7.954  22.596  52.931  1.00  0.00     0.019 A 
HETATM   13  H   UNL     1       7.753  27.034  53.304  1.00  0.00     0.165 HD
ENDROOT
BRANCH   1  14
HETATM   14  C   UNL     1       7.620  27.457  55.754  1.00  0.00     0.034 A 
HETATM   15  C   UNL     1       6.638  28.382  55.297  1.00  0.00     0.122 A 
HETATM   16  N   UNL     1       6.598  29.488  56.058  1.00  0.00    -0.172 NA
HETATM   17  N   UNL     1       7.561  29.293  56.969  1.00  0.00    -0.288 N 
HETATM   18  H   UNL     1       7.726  30.021  57.657  1.00  0.00     0.188 HD
HETATM   19  C   UNL     1       8.207  28.106  56.829  1.00  0.00     0.123 A 
BRANCH  15  20
HETATM   20  C   UNL     1       5.747  28.222  54.106  1.00  0.00     0.106 A 
HETATM   21  O   UNL     1       6.151  28.340  52.804  1.00  0.00    -0.313 OA
HETATM   22  C   UNL     1       5.060  28.145  52.014  1.00  0.00     0.050 A 
HETATM   23  C   UNL     1       5.276  28.237  50.557  1.00  0.00     0.076 C 
HETATM   24  C   UNL     1       3.949  27.904  52.792  1.00  0.00     0.035 A 
HETATM   25  C   UNL     1       4.391  27.957  54.136  1.00  0.00     0.042 A 
ENDBRANCH  15  20
ENDBRANCH   1  14
TORSDOF 2
ENDMDL
MODEL 6
REMARK VINA RESULT:      -7.9      2.245      3.342
REMARK  2 active torsions:
REMARK  status: ('A' for Active; 'I' for Inactive)
REMARK    1  A    between atoms: C_4  and  C_5 
REMARK    2  A    between atoms: C_10  and  C_11 
ROOT
HETATM    1  C   UNL     1       6.200  25.279  53.593  1.00  0.00     0.224 C 
HETATM    2  N   UNL     1       7.555  24.750  53.366  1.00  0.00    -0.359 N 
HETATM    3  C   UNL     1       7.964  24.628  51.967  1.00  0.00     0.152 C 
HETATM    4  C   UNL     1       7.903  23.694  54.238  1.00  0.00     0.047 A 
HETATM    5  C   UNL     1       7.358  23.637  55.535  1.00  0.00     0.058 A 
HETATM    6  C   UNL     1       6.425  24.701  55.951  1.00  0.00     0.255 C 
HETATM    7  O   UNL     1       5.984  24.781  57.092  1.00  0.00    -0.268 OA
HETATM    8  N   UNL     1       6.080  25.602  54.990  1.00  0.00    -0.331 N 
HETATM    9  C   UNL     1       8.828  22.689  53.908  1.00  0.00     0.030 A 
HETATM   10  C   UNL     1       9.161  21.668  54.810  1.00  0.00     0.002 A 
HETATM   11  C   UNL     1       8.590  21.633  56.077  1.00  0.00     0.001 A 
HETATM   12  C   UNL     1       7.688  22.624  56.447  1.00  0.00     0.019 A 
HETATM   13  H   UNL     1       5.341  26.228  55.272  1.00  0.00     0.165 HD
ENDROOT
BRANCH   1  14
HETATM   14  C   UNL     1       5.810  26.524  52.844  1.00  0.00     0.034 A 
HETATM   15  C   UNL     1       6.137  27.875  53.154  1.00  0.00     0.122 A 
HETATM   16  N   UNL     1       5.635  28.732  52.251  1.00  0.00    -0.172 NA
HETATM   17  N   UNL     1       4.966  27.950  51.394  1.00  0.00    -0.288 N 
HETATM   18  H   UNL     1       4.482  28.390  50.617  1.00  0.00     0.188 HD
HETATM   19  C   UNL     1       5.029  26.628  51.704  1.00  0.00     0.123 A 
BRANCH  15  20
HETATM   20  C   UNL     1       6.916  28.357  54.337  1.00  0.00     0.106 A 
HETATM   21  O   UNL     1       6.368  28.752  55.527  1.00  0.00    -0.313 OA
HETATM   22  C   UNL     1       7.386  29.134  56.344  1.00  0.00     0.050 A 
HETATM   23  C   UNL     1       7.010  29.608  57.690  1.00  0.00     0.076 C 
HETATM   24  C   UNL     1       8.593  28.993  55.694  1.00  0.00     0.035 A 
HETATM   25  C   UNL     1       8.289  28.497  54.403  1.00  0.00     0.042 A 
ENDBRANCH  15  20
ENDBRANCH   1  14
TORSDOF 2
ENDMDL
MODEL 7
REMARK VINA RESULT:      -7.8      9.620     13.391
REMARK  2 active torsions:
REMARK  status: ('A' for Active; 'I' for Inactive)
REMARK    1  A    between atoms: C_4  and  C_5 
REMARK    2  A    between atoms: C_10  and  C_11 
ROOT
HETATM    1  C   UNL     1       5.637  36.237  63.033  1.00  0.00     0.224 C 
HETATM    2  N   UNL     1       4.809  36.712  61.912  1.00  0.00    -0.359 N 
HETATM    3  C   UNL     1       4.275  35.674  61.030  1.00  0.00     0.152 C 
HETATM    4  C   UNL     1       5.302  37.889  61.304  1.00  0.00     0.047 A 
HETATM    5  C   UNL     1       6.026  38.828  62.063  1.00  0.00     0.058 A 
HETATM    6  C   UNL     1       6.250  38.551  63.493  1.00  0.00     0.255 C 
HETATM    7  O   UNL     1       6.782  39.360  64.246  1.00  0.00    -0.268 OA
HETATM    8  N   UNL     1       5.825  37.337  63.940  1.00  0.00    -0.331 N 
HETATM    9  C   UNL     1       5.068  38.224  59.959  1.00  0.00     0.030 A 
HETATM   10  C   UNL     1       5.559  39.411  59.399  1.00  0.00     0.002 A 
HETATM   11  C   UNL     1       6.286  40.309  60.173  1.00  0.00     0.001 A 
HETATM   12  C   UNL     1       6.517  40.021  61.514  1.00  0.00     0.019 A 
HETATM   13  H   UNL     1       6.116  37.131  64.884  1.00  0.00     0.165 HD
ENDROOT
BRANCH   1  14
HETATM   14  C   UNL     1       5.093  35.104  63.860  1.00  0.00     0.034 A 
HETATM   15  C   UNL     1       5.557  33.759  63.921  1.00  0.00     0.122 A 
HETATM   16  N   UNL     1       4.844  33.021  64.787  1.00  0.00    -0.172 NA
HETATM   17  N   UNL     1       3.914  33.868  65.249  1.00  0.00    -0.288 N 
HETATM   18  H   UNL     1       3.238  33.519  65.922  1.00  0.00     0.188 HD
HETATM   19  C   UNL     1       4.010  35.117  64.724  1.00  0.00     0.123 A 
BRANCH  15  20
HETATM   20  C   UNL     1       6.677  33.163  63.128  1.00  0.00     0.106 A 
HETATM   21  O   UNL     1       6.703  33.065  61.763  1.00  0.00    -0.313 OA
HETATM   22  C   UNL     1       7.869  32.456  61.414  1.00  0.00     0.050 A 
HETATM   23  C   UNL     1       8.098  32.244  59.972  1.00  0.00     0.076 C 
HETATM   24  C   UNL     1       8.600  32.155  62.543  1.00  0.00     0.035 A 
HETATM   25  C   UNL     1       7.832  32.606  63.643  1.00  0.00     0.042 A 
ENDBRANCH  15  20
ENDBRANCH   1  14
TORSDOF 2
ENDMDL
MODEL 8
REMARK VINA RESULT:      -7.7      4.751      8.652
REMARK  2 active torsions:
REMARK  status: ('A' for Active; 'I' for Inactive)
REMARK    1  A    between atoms: C_4  and  C_5 
REMARK    2  A    between atoms: C_10  and  C_11 
ROOT
HETATM    1  C   UNL     1       7.952  31.070  59.592  1.00  0.00     0.224 C 
HETATM    2  N   UNL     1       8.366  31.727  60.843  1.00  0.00    -0.359 N 
HETATM    3  C   UNL     1       9.511  31.128  61.528  1.00  0.00     0.152 C 
HETATM    4  C   UNL     1       7.282  32.152  61.644  1.00  0.00     0.047 A 
HETATM    5  C   UNL     1       6.065  32.532  61.045  1.00  0.00     0.058 A 
HETATM    6  C   UNL     1       5.958  32.474  59.576  1.00  0.00     0.255 C 
HETATM    7  O   UNL     1       4.972  32.879  58.970  1.00  0.00    -0.268 OA
HETATM    8  N   UNL     1       7.027  31.944  58.920  1.00  0.00    -0.331 N 
HETATM    9  C   UNL     1       7.352  32.277  63.042  1.00  0.00     0.030 A 
HETATM   10  C   UNL     1       6.258  32.722  63.799  1.00  0.00     0.002 A 
HETATM   11  C   UNL     1       5.066  33.072  63.176  1.00  0.00     0.001 A 
HETATM   12  C   UNL     1       4.967  32.983  61.792  1.00  0.00     0.019 A 
HETATM   13  H   UNL     1       6.863  31.795  57.936  1.00  0.00     0.165 HD
ENDROOT
BRANCH   1  14
HETATM   14  C   UNL     1       9.028  30.754  58.590  1.00  0.00     0.034 A 
HETATM   15  C   UNL     1       9.068  29.683  57.651  1.00  0.00     0.122 A 
HETATM   16  N   UNL     1      10.178  29.719  56.896  1.00  0.00    -0.172 NA
HETATM   17  N   UNL     1      10.857  30.775  57.364  1.00  0.00    -0.288 N 
HETATM   18  H   UNL     1      11.755  30.993  56.944  1.00  0.00     0.188 HD
HETATM   19  C   UNL     1      10.224  31.421  58.378  1.00  0.00     0.123 A 
BRANCH  15  20
HETATM   20  C   UNL     1       8.050  28.599  57.489  1.00  0.00     0.106 A 
HETATM   21  O   UNL     1       8.306  27.260  57.611  1.00  0.00    -0.313 OA
HETATM   22  C   UNL     1       7.142  26.594  57.380  1.00  0.00     0.050 A 
HETATM   23  C   UNL     1       7.197  25.122  57.456  1.00  0.00     0.076 C 
HETATM   24  C   UNL     1       6.131  27.490  57.106  1.00  0.00     0.035 A 
HETATM   25  C   UNL     1       6.717  28.777  57.173  1.00  0.00     0.042 A 
ENDBRANCH  15  20
ENDBRANCH   1  14
TORSDOF 2
ENDMDL
MODEL 9
REMARK VINA RESULT:      -7.4      4.007      5.563
REMARK  2 active torsions:
REMARK  status: ('A' for Active; 'I' for Inactive)
REMARK    1  A    between atoms: C_4  and  C_5 
REMARK    2  A    between atoms: C_10  and  C_11 
ROOT
HETATM    1  C   UNL     1       5.232  27.640  53.403  1.00  0.00     0.224 C 
HETATM    2  N   UNL     1       5.726  27.395  54.768  1.00  0.00    -0.359 N 
HETATM    3  C   UNL     1       6.300  28.552  55.455  1.00  0.00     0.152 C 
HETATM    4  C   UNL     1       6.393  26.158  54.915  1.00  0.00     0.047 A 
HETATM    5  C   UNL     1       6.029  25.058  54.113  1.00  0.00     0.058 A 
HETATM    6  C   UNL     1       4.945  25.234  53.130  1.00  0.00     0.255 C 
HETATM    7  O   UNL     1       4.501  24.305  52.465  1.00  0.00    -0.268 OA
HETATM    8  N   UNL     1       4.454  26.498  53.003  1.00  0.00    -0.331 N 
HETATM    9  C   UNL     1       7.393  25.925  55.874  1.00  0.00     0.030 A 
HETATM   10  C   UNL     1       8.017  24.675  56.000  1.00  0.00     0.002 A 
HETATM   11  C   UNL     1       7.646  23.616  55.180  1.00  0.00     0.001 A 
HETATM   12  C   UNL     1       6.643  23.803  54.235  1.00  0.00     0.019 A 
HETATM   13  H   UNL     1       3.814  26.606  52.230  1.00  0.00     0.165 HD
ENDROOT
BRANCH   1  14
HETATM   14  C   UNL     1       4.349  28.840  53.193  1.00  0.00     0.034 A 
HETATM   15  C   UNL     1       3.952  29.435  51.962  1.00  0.00     0.122 A 
HETATM   16  N   UNL     1       3.138  30.485  52.151  1.00  0.00    -0.172 NA
HETATM   17  N   UNL     1       3.040  30.587  53.484  1.00  0.00    -0.288 N 
HETATM   18  H   UNL     1       2.473  31.336  53.869  1.00  0.00     0.188 HD
HETATM   19  C   UNL     1       3.748  29.639  54.153  1.00  0.00     0.123 A 
BRANCH  15  20
HETATM   20  C   UNL     1       4.373  29.013  50.589  1.00  0.00     0.106 A 
HETATM   21  O   UNL     1       4.131  27.783  50.040  1.00  0.00    -0.313 OA
HETATM   22  C   UNL     1       4.677  27.773  48.793  1.00  0.00     0.050 A 
HETATM   23  C   UNL     1       4.535  26.525  48.020  1.00  0.00     0.076 C 
HETATM   24  C   UNL     1       5.274  28.987  48.529  1.00  0.00     0.035 A 
HETATM   25  C   UNL     1       5.081  29.781  49.685  1.00  0.00     0.042 A 
ENDBRANCH  15  20
ENDBRANCH   1  14
TORSDOF 2
ENDMDL
MODEL 10
REMARK VINA RESULT:      -7.3      2.712      6.448
REMARK  2 active torsions:
REMARK  status: ('A' for Active; 'I' for Inactive)
REMARK    1  A    between atoms: C_4  and  C_5 
REMARK    2  A    between atoms: C_10  and  C_11 
ROOT
HETATM    1  C   UNL     1       6.003  28.573  53.174  1.00  0.00     0.224 C 
HETATM    2  N   UNL     1       5.222  28.307  54.394  1.00  0.00    -0.359 N 
HETATM    3  C   UNL     1       3.768  28.356  54.242  1.00  0.00     0.152 C 
HETATM    4  C   UNL     1       5.772  28.892  55.556  1.00  0.00     0.047 A 
HETATM    5  C   UNL     1       7.164  29.078  55.664  1.00  0.00     0.058 A 
HETATM    6  C   UNL     1       8.019  28.647  54.543  1.00  0.00     0.255 C 
HETATM    7  O   UNL     1       9.243  28.681  54.597  1.00  0.00    -0.268 OA
HETATM    8  N   UNL     1       7.368  28.200  53.434  1.00  0.00    -0.331 N 
HETATM    9  C   UNL     1       5.006  29.268  56.673  1.00  0.00     0.030 A 
HETATM   10  C   UNL     1       5.594  29.829  57.816  1.00  0.00     0.002 A 
HETATM   11  C   UNL     1       6.970  30.014  57.882  1.00  0.00     0.001 A 
HETATM   12  C   UNL     1       7.762  29.632  56.805  1.00  0.00     0.019 A 
HETATM   13  H   UNL     1       7.977  28.045  52.645  1.00  0.00     0.165 HD
ENDROOT
BRANCH   1  14
HETATM   14  C   UNL     1       5.602  27.837  51.924  1.00  0.00     0.034 A 
HETATM   15  C   UNL     1       5.821  26.468  51.601  1.00  0.00     0.122 A 
HETATM   16  N   UNL     1       5.309  26.147  50.403  1.00  0.00    -0.172 NA
HETATM   17  N   UNL     1       4.798  27.299  49.946  1.00  0.00    -0.288 N 
HETATM   18  H   UNL     1       4.360  27.301  49.030  1.00  0.00     0.188 HD
HETATM   19  C   UNL     1       4.953  28.339  50.806  1.00  0.00     0.123 A 
BRANCH  15  20
HETATM   20  C   UNL     1       6.550  25.460  52.432  1.00  0.00     0.106 A 
HETATM   21  O   UNL     1       6.261  25.165  53.737  1.00  0.00    -0.313 OA
HETATM   22  C   UNL     1       7.145  24.217  54.153  1.00  0.00     0.050 A 
HETATM   23  C   UNL     1       7.012  23.758  55.548  1.00  0.00     0.076 C 
HETATM   24  C   UNL     1       8.009  23.896  53.128  1.00  0.00     0.035 A 
HETATM   25  C   UNL     1       7.628  24.697  52.025  1.00  0.00     0.042 A 
ENDBRANCH  15  20
ENDBRANCH   1  14
TORSDOF 2
ENDMDL
