MODEL 1
REMARK VINA RESULT:     -10.8      0.000      0.000
REMARK  3 active torsions:
REMARK  status: ('A' for Active; 'I' for Inactive)
REMARK    1  A    between atoms: C_2  and  C_3 
REMARK    2  A    between atoms: C_18  and  C_19 
REMARK    3  A    between atoms: C_22  and  O_23 
ROOT
HETATM    1  C   UNL     1       8.269  28.267  54.014  1.00  0.00     0.060 C 
HETATM    2  C   UNL     1       7.360  28.417  55.273  1.00  0.00     0.210 C 
HETATM    3  N   UNL     1       6.268  29.272  54.769  1.00  0.00     0.110 N 
HETATM    4  C   UNL     1       5.564  30.083  55.755  1.00  0.00     0.374 C 
HETATM    5  C   UNL     1       4.988  29.404  56.981  1.00  0.00     0.250 C 
HETATM    6  O   UNL     1       4.343  30.087  57.792  1.00  0.00    -0.271 OA
HETATM    7  N   UNL     1       5.046  28.078  57.238  1.00  0.00    -0.325 N 
HETATM    8  C   UNL     1       5.697  26.995  56.638  1.00  0.00     0.044 A 
HETATM    9  C   UNL     1       6.740  27.071  55.701  1.00  0.00     0.012 A 
HETATM   10  C   UNL     1       5.243  25.738  57.077  1.00  0.00     0.031 A 
HETATM   11  C   UNL     1       5.752  24.553  56.551  1.00  0.00     0.014 A 
HETATM   12  C   UNL     1       6.746  24.580  55.574  1.00  0.00    -0.025 A 
HETATM   13  C   UNL     1       7.236  25.841  55.185  1.00  0.00     0.024 A 
HETATM   14  H   UNL     1       5.600  28.686  54.269  1.00  0.00     0.318 HD
HETATM   15  H   UNL     1       4.467  27.865  58.043  1.00  0.00     0.169 HD
ENDROOT
BRANCH  12  16
HETATM   16  C   UNL     1       7.245  23.334  54.960  1.00  0.00    -0.026 A 
HETATM   17  C   UNL     1       7.534  22.207  55.754  1.00  0.00     0.015 A 
HETATM   18  C   UNL     1       7.997  21.015  55.188  1.00  0.00     0.037 A 
HETATM   19  C   UNL     1       8.174  20.938  53.813  1.00  0.00     0.065 A 
HETATM   20  C   UNL     1       7.896  22.030  53.002  1.00  0.00     0.037 A 
HETATM   21  C   UNL     1       7.437  23.221  53.573  1.00  0.00     0.015 A 
BRANCH  19  22
HETATM   22  O   UNL     1       8.619  19.797  53.216  1.00  0.00    -0.361 OA
HETATM   23  H   UNL     1       9.343  19.430  53.749  1.00  0.00     0.217 HD
ENDBRANCH  19  22
ENDBRANCH  12  16
BRANCH   2  24
HETATM   24  C   UNL     1       8.260  29.082  56.349  1.00  0.00    -0.016 A 
HETATM   25  C   UNL     1       7.884  29.166  57.702  1.00  0.00     0.010 A 
HETATM   26  C   UNL     1       8.713  29.775  58.652  1.00  0.00     0.001 A 
HETATM   27  C   UNL     1       9.945  30.300  58.274  1.00  0.00     0.000 A 
HETATM   28  C   UNL     1      10.356  30.207  56.949  1.00  0.00     0.001 A 
HETATM   29  C   UNL     1       9.530  29.595  56.003  1.00  0.00     0.010 A 
ENDBRANCH   2  24
TORSDOF 3
ENDMDL
MODEL 2
REMARK VINA RESULT:     -10.4      6.698      9.809
REMARK  3 active torsions:
REMARK  status: ('A' for Active; 'I' for Inactive)
REMARK    1  A    between atoms: C_2  and  C_3 
REMARK    2  A    between atoms: C_18  and  C_19 
REMARK    3  A    between atoms: C_22  and  O_23 
ROOT
HETATM    1  C   UNL     1       4.024  33.676  60.763  1.00  0.00     0.060 C 
HETATM    2  C   UNL     1       4.676  33.955  62.152  1.00  0.00     0.210 C 
HETATM    3  N   UNL     1       3.733  33.298  63.077  1.00  0.00     0.110 N 
HETATM    4  C   UNL     1       3.683  33.818  64.439  1.00  0.00     0.374 C 
HETATM    5  C   UNL     1       4.974  33.935  65.223  1.00  0.00     0.250 C 
HETATM    6  O   UNL     1       4.923  34.327  66.399  1.00  0.00    -0.271 OA
HETATM    7  N   UNL     1       6.196  33.568  64.774  1.00  0.00    -0.325 N 
HETATM    8  C   UNL     1       6.694  33.142  63.539  1.00  0.00     0.044 A 
HETATM    9  C   UNL     1       6.042  33.251  62.300  1.00  0.00     0.012 A 
HETATM   10  C   UNL     1       7.986  32.591  63.601  1.00  0.00     0.031 A 
HETATM   11  C   UNL     1       8.617  32.077  62.469  1.00  0.00     0.014 A 
HETATM   12  C   UNL     1       7.983  32.108  61.229  1.00  0.00    -0.025 A 
HETATM   13  C   UNL     1       6.715  32.717  61.166  1.00  0.00     0.024 A 
HETATM   14  H   UNL     1       3.941  32.301  63.101  1.00  0.00     0.318 HD
HETATM   15  H   UNL     1       6.863  33.615  65.537  1.00  0.00     0.169 HD
ENDROOT
BRANCH  12  16
HETATM   16  C   UNL     1       8.611  31.506  60.037  1.00  0.00    -0.026 A 
HETATM   17  C   UNL     1       8.073  30.343  59.451  1.00  0.00     0.015 A 
HETATM   18  C   UNL     1       8.649  29.765  58.315  1.00  0.00     0.037 A 
HETATM   19  C   UNL     1       9.773  30.351  57.749  1.00  0.00     0.065 A 
HETATM   20  C   UNL     1      10.326  31.499  58.301  1.00  0.00     0.037 A 
HETATM   21  C   UNL     1       9.750  32.071  59.439  1.00  0.00     0.015 A 
BRANCH  19  22
HETATM   22  O   UNL     1      10.366  29.827  56.640  1.00  0.00    -0.361 OA
HETATM   23  H   UNL     1       9.693  29.724  55.947  1.00  0.00     0.217 HD
ENDBRANCH  19  22
ENDBRANCH  12  16
BRANCH   2  24
HETATM   24  C   UNL     1       4.734  35.501  62.274  1.00  0.00    -0.016 A 
HETATM   25  C   UNL     1       5.940  36.202  62.458  1.00  0.00     0.010 A 
HETATM   26  C   UNL     1       5.963  37.597  62.569  1.00  0.00     0.001 A 
HETATM   27  C   UNL     1       4.781  38.327  62.483  1.00  0.00     0.000 A 
HETATM   28  C   UNL     1       3.577  37.665  62.274  1.00  0.00     0.001 A 
HETATM   29  C   UNL     1       3.556  36.273  62.159  1.00  0.00     0.010 A 
ENDBRANCH   2  24
TORSDOF 3
ENDMDL
MODEL 3
REMARK VINA RESULT:      -9.9      4.093      5.602
REMARK  3 active torsions:
REMARK  status: ('A' for Active; 'I' for Inactive)
REMARK    1  A    between atoms: C_2  and  C_3 
REMARK    2  A    between atoms: C_18  and  C_19 
REMARK    3  A    between atoms: C_22  and  O_23 
ROOT
HETATM    1  C   UNL     1       4.747  27.972  55.619  1.00  0.00     0.060 C 
HETATM    2  C   UNL     1       6.012  27.063  55.688  1.00  0.00     0.210 C 
HETATM    3  N   UNL     1       5.575  25.987  56.597  1.00  0.00     0.110 N 
HETATM    4  C   UNL     1       6.619  25.294  57.343  1.00  0.00     0.374 C 
HETATM    5  C   UNL     1       7.789  24.704  56.582  1.00  0.00     0.250 C 
HETATM    6  O   UNL     1       8.649  24.070  57.212  1.00  0.00    -0.271 OA
HETATM    7  N   UNL     1       7.944  24.739  55.240  1.00  0.00    -0.325 N 
HETATM    8  C   UNL     1       7.264  25.372  54.194  1.00  0.00     0.044 A 
HETATM    9  C   UNL     1       6.336  26.418  54.324  1.00  0.00     0.012 A 
HETATM   10  C   UNL     1       7.604  24.896  52.916  1.00  0.00     0.031 A 
HETATM   11  C   UNL     1       6.990  25.386  51.765  1.00  0.00     0.014 A 
HETATM   12  C   UNL     1       6.019  26.382  51.850  1.00  0.00    -0.025 A 
HETATM   13  C   UNL     1       5.728  26.895  53.129  1.00  0.00     0.024 A 
HETATM   14  H   UNL     1       5.031  25.310  56.063  1.00  0.00     0.318 HD
HETATM   15  H   UNL     1       8.730  24.155  54.976  1.00  0.00     0.169 HD
ENDROOT
BRANCH  12  16
HETATM   16  C   UNL     1       5.311  26.861  50.646  1.00  0.00    -0.026 A 
HETATM   17  C   UNL     1       5.316  28.228  50.307  1.00  0.00     0.015 A 
HETATM   18  C   UNL     1       4.660  28.698  49.164  1.00  0.00     0.037 A 
HETATM   19  C   UNL     1       3.993  27.799  48.344  1.00  0.00     0.065 A 
HETATM   20  C   UNL     1       3.971  26.445  48.650  1.00  0.00     0.037 A 
HETATM   21  C   UNL     1       4.624  25.980  49.795  1.00  0.00     0.015 A 
BRANCH  19  22
HETATM   22  O   UNL     1       3.344  28.209  47.219  1.00  0.00    -0.361 OA
HETATM   23  H   UNL     1       4.000  28.541  46.585  1.00  0.00     0.217 HD
ENDBRANCH  19  22
ENDBRANCH  12  16
BRANCH   2  24
HETATM   24  C   UNL     1       7.138  27.972  56.253  1.00  0.00    -0.016 A 
HETATM   25  C   UNL     1       8.188  28.460  55.454  1.00  0.00     0.010 A 
HETATM   26  C   UNL     1       9.192  29.275  55.991  1.00  0.00     0.001 A 
HETATM   27  C   UNL     1       9.162  29.633  57.335  1.00  0.00     0.000 A 
HETATM   28  C   UNL     1       8.122  29.188  58.143  1.00  0.00     0.001 A 
HETATM   29  C   UNL     1       7.118  28.378  57.605  1.00  0.00     0.010 A 
ENDBRANCH   2  24
TORSDOF 3
ENDMDL
MODEL 4
REMARK VINA RESULT:      -9.7      8.285     13.362
REMARK  3 active torsions:
REMARK  status: ('A' for Active; 'I' for Inactive)
REMARK    1  A    between atoms: C_2  and  C_3 
REMARK    2  A    between atoms: C_18  and  C_19 
REMARK    3  A    between atoms: C_22  and  O_23 
ROOT
HETATM    1  C   UNL     1       6.915  33.661  64.746  1.00  0.00     0.060 C 
HETATM    2  C   UNL     1       6.210  33.461  63.369  1.00  0.00     0.210 C 
HETATM    3  N   UNL     1       5.017  32.677  63.741  1.00  0.00     0.110 N 
HETATM    4  C   UNL     1       4.442  31.828  62.703  1.00  0.00     0.374 C 
HETATM    5  C   UNL     1       4.095  32.447  61.365  1.00  0.00     0.250 C 
HETATM    6  O   UNL     1       3.557  31.736  60.502  1.00  0.00    -0.271 OA
HETATM    7  N   UNL     1       4.249  33.752  61.044  1.00  0.00    -0.325 N 
HETATM    8  C   UNL     1       4.843  34.848  61.677  1.00  0.00     0.044 A 
HETATM    9  C   UNL     1       5.721  34.798  62.771  1.00  0.00     0.012 A 
HETATM   10  C   UNL     1       4.517  36.089  61.100  1.00  0.00     0.031 A 
HETATM   11  C   UNL     1       4.988  37.288  61.631  1.00  0.00     0.014 A 
HETATM   12  C   UNL     1       5.813  37.290  62.754  1.00  0.00    -0.025 A 
HETATM   13  C   UNL     1       6.183  36.040  63.288  1.00  0.00     0.024 A 
HETATM   14  H   UNL     1       4.304  33.315  64.093  1.00  0.00     0.318 HD
HETATM   15  H   UNL     1       3.813  33.931  60.147  1.00  0.00     0.169 HD
ENDROOT
BRANCH  12  16
HETATM   16  C   UNL     1       6.262  38.556  63.368  1.00  0.00    -0.026 A 
HETATM   17  C   UNL     1       5.814  38.931  64.649  1.00  0.00     0.015 A 
HETATM   18  C   UNL     1       6.238  40.121  65.250  1.00  0.00     0.037 A 
HETATM   19  C   UNL     1       7.122  40.949  64.571  1.00  0.00     0.065 A 
HETATM   20  C   UNL     1       7.583  40.607  63.308  1.00  0.00     0.037 A 
HETATM   21  C   UNL     1       7.154  39.418  62.709  1.00  0.00     0.015 A 
BRANCH  19  22
HETATM   22  O   UNL     1       7.565  42.116  65.118  1.00  0.00    -0.361 OA
HETATM   23  H   UNL     1       7.565  42.026  66.085  1.00  0.00     0.217 HD
ENDBRANCH  19  22
ENDBRANCH  12  16
BRANCH   2  24
HETATM   24  C   UNL     1       7.238  32.701  62.489  1.00  0.00    -0.016 A 
HETATM   25  C   UNL     1       7.591  33.129  61.197  1.00  0.00     0.010 A 
HETATM   26  C   UNL     1       8.519  32.421  60.423  1.00  0.00     0.001 A 
HETATM   27  C   UNL     1       9.127  31.277  60.930  1.00  0.00     0.000 A 
HETATM   28  C   UNL     1       8.819  30.845  62.215  1.00  0.00     0.001 A 
HETATM   29  C   UNL     1       7.896  31.554  62.987  1.00  0.00     0.010 A 
ENDBRANCH   2  24
TORSDOF 3
ENDMDL
MODEL 5
REMARK VINA RESULT:      -9.4      2.758      3.670
REMARK  3 active torsions:
REMARK  status: ('A' for Active; 'I' for Inactive)
REMARK    1  A    between atoms: C_2  and  C_3 
REMARK    2  A    between atoms: C_18  and  C_19 
REMARK    3  A    between atoms: C_22  and  O_23 
ROOT
HETATM    1  C   UNL     1       7.842  28.275  54.519  1.00  0.00     0.060 C 
HETATM    2  C   UNL     1       6.421  28.145  53.891  1.00  0.00     0.210 C 
HETATM    3  N   UNL     1       6.574  28.876  52.618  1.00  0.00     0.110 N 
HETATM    4  C   UNL     1       5.365  29.457  52.047  1.00  0.00     0.374 C 
HETATM    5  C   UNL     1       4.158  28.566  51.837  1.00  0.00     0.250 C 
HETATM    6  O   UNL     1       3.148  29.049  51.302  1.00  0.00    -0.271 OA
HETATM    7  N   UNL     1       4.106  27.244  52.113  1.00  0.00    -0.325 N 
HETATM    8  C   UNL     1       4.968  26.345  52.750  1.00  0.00     0.044 A 
HETATM    9  C   UNL     1       6.072  26.681  53.549  1.00  0.00     0.012 A 
HETATM   10  C   UNL     1       4.629  24.993  52.560  1.00  0.00     0.031 A 
HETATM   11  C   UNL     1       5.406  23.964  53.089  1.00  0.00     0.014 A 
HETATM   12  C   UNL     1       6.546  24.250  53.837  1.00  0.00    -0.025 A 
HETATM   13  C   UNL     1       6.843  25.606  54.072  1.00  0.00     0.024 A 
HETATM   14  H   UNL     1       7.010  28.255  51.936  1.00  0.00     0.318 HD
HETATM   15  H   UNL     1       3.240  26.858  51.752  1.00  0.00     0.169 HD
ENDROOT
BRANCH  12  16
HETATM   16  C   UNL     1       7.415  23.169  54.344  1.00  0.00    -0.026 A 
HETATM   17  C   UNL     1       7.704  23.065  55.719  1.00  0.00     0.015 A 
HETATM   18  C   UNL     1       8.517  22.042  56.218  1.00  0.00     0.037 A 
HETATM   19  C   UNL     1       9.048  21.106  55.341  1.00  0.00     0.065 A 
HETATM   20  C   UNL     1       8.781  21.180  53.980  1.00  0.00     0.037 A 
HETATM   21  C   UNL     1       7.971  22.207  53.485  1.00  0.00     0.015 A 
BRANCH  19  22
HETATM   22  O   UNL     1       9.841  20.090  55.781  1.00  0.00    -0.361 OA
HETATM   23  H   UNL     1      10.481  20.448  56.418  1.00  0.00     0.217 HD
ENDBRANCH  19  22
ENDBRANCH  12  16
BRANCH   2  24
HETATM   24  C   UNL     1       5.460  28.814  54.911  1.00  0.00    -0.016 A 
HETATM   25  C   UNL     1       4.428  28.106  55.554  1.00  0.00     0.010 A 
HETATM   26  C   UNL     1       3.574  28.736  56.467  1.00  0.00     0.001 A 
HETATM   27  C   UNL     1       3.740  30.083  56.770  1.00  0.00     0.000 A 
HETATM   28  C   UNL     1       4.769  30.802  56.171  1.00  0.00     0.001 A 
HETATM   29  C   UNL     1       5.624  30.172  55.263  1.00  0.00     0.010 A 
ENDBRANCH   2  24
TORSDOF 3
ENDMDL
MODEL 6
REMARK VINA RESULT:      -9.2      5.434      7.862
REMARK  3 active torsions:
REMARK  status: ('A' for Active; 'I' for Inactive)
REMARK    1  A    between atoms: C_2  and  C_3 
REMARK    2  A    between atoms: C_18  and  C_19 
REMARK    3  A    between atoms: C_22  and  O_23 
ROOT
HETATM    1  C   UNL     1       5.884  30.087  50.191  1.00  0.00     0.060 C 
HETATM    2  C   UNL     1       5.092  28.807  49.784  1.00  0.00     0.210 C 
HETATM    3  N   UNL     1       5.806  28.371  48.569  1.00  0.00     0.110 N 
HETATM    4  C   UNL     1       5.042  27.585  47.607  1.00  0.00     0.374 C 
HETATM    5  C   UNL     1       4.313  26.348  48.091  1.00  0.00     0.250 C 
HETATM    6  O   UNL     1       3.707  25.651  47.262  1.00  0.00    -0.271 OA
HETATM    7  N   UNL     1       4.328  25.879  49.359  1.00  0.00    -0.325 N 
HETATM    8  C   UNL     1       4.823  26.366  50.573  1.00  0.00     0.044 A 
HETATM    9  C   UNL     1       5.229  27.684  50.834  1.00  0.00     0.012 A 
HETATM   10  C   UNL     1       4.866  25.406  51.600  1.00  0.00     0.031 A 
HETATM   11  C   UNL     1       5.372  25.709  52.863  1.00  0.00     0.014 A 
HETATM   12  C   UNL     1       5.843  26.989  53.149  1.00  0.00    -0.025 A 
HETATM   13  C   UNL     1       5.740  27.959  52.133  1.00  0.00     0.024 A 
HETATM   14  H   UNL     1       6.638  27.852  48.848  1.00  0.00     0.318 HD
HETATM   15  H   UNL     1       3.882  24.969  49.387  1.00  0.00     0.169 HD
ENDROOT
BRANCH  12  16
HETATM   16  C   UNL     1       6.445  27.304  54.460  1.00  0.00    -0.026 A 
HETATM   17  C   UNL     1       7.541  28.184  54.554  1.00  0.00     0.015 A 
HETATM   18  C   UNL     1       8.117  28.502  55.788  1.00  0.00     0.037 A 
HETATM   19  C   UNL     1       7.595  27.943  56.947  1.00  0.00     0.065 A 
HETATM   20  C   UNL     1       6.514  27.074  56.888  1.00  0.00     0.037 A 
HETATM   21  C   UNL     1       5.944  26.755  55.652  1.00  0.00     0.015 A 
BRANCH  19  22
HETATM   22  O   UNL     1       8.120  28.226  58.172  1.00  0.00    -0.361 OA
HETATM   23  H   UNL     1       7.833  27.542  58.799  1.00  0.00     0.217 HD
ENDBRANCH  19  22
ENDBRANCH  12  16
BRANCH   2  24
HETATM   24  C   UNL     1       3.635  29.287  49.543  1.00  0.00    -0.016 A 
HETATM   25  C   UNL     1       2.568  28.918  50.382  1.00  0.00     0.010 A 
HETATM   26  C   UNL     1       1.263  29.362  50.139  1.00  0.00     0.001 A 
HETATM   27  C   UNL     1       0.996  30.200  49.060  1.00  0.00     0.000 A 
HETATM   28  C   UNL     1       2.035  30.604  48.229  1.00  0.00     0.001 A 
HETATM   29  C   UNL     1       3.338  30.163  48.475  1.00  0.00     0.010 A 
ENDBRANCH   2  24
TORSDOF 3
ENDMDL
MODEL 7
REMARK VINA RESULT:      -9.1      5.434      6.689
REMARK  3 active torsions:
REMARK  status: ('A' for Active; 'I' for Inactive)
REMARK    1  A    between atoms: C_2  and  C_3 
REMARK    2  A    between atoms: C_18  and  C_19 
REMARK    3  A    between atoms: C_22  and  O_23 
ROOT
HETATM    1  C   UNL     1       4.910  27.437  48.287  1.00  0.00     0.060 C 
HETATM    2  C   UNL     1       4.123  28.446  49.178  1.00  0.00     0.210 C 
HETATM    3  N   UNL     1       2.736  28.259  48.711  1.00  0.00     0.110 N 
HETATM    4  C   UNL     1       1.830  29.390  48.879  1.00  0.00     0.374 C 
HETATM    5  C   UNL     1       1.693  30.016  50.251  1.00  0.00     0.250 C 
HETATM    6  O   UNL     1       0.883  30.944  50.404  1.00  0.00    -0.271 OA
HETATM    7  N   UNL     1       2.329  29.597  51.368  1.00  0.00    -0.325 N 
HETATM    8  C   UNL     1       3.332  28.656  51.625  1.00  0.00     0.044 A 
HETATM    9  C   UNL     1       4.168  28.055  50.671  1.00  0.00     0.012 A 
HETATM   10  C   UNL     1       3.490  28.344  52.987  1.00  0.00     0.031 A 
HETATM   11  C   UNL     1       4.414  27.394  53.417  1.00  0.00     0.014 A 
HETATM   12  C   UNL     1       5.224  26.727  52.499  1.00  0.00    -0.025 A 
HETATM   13  C   UNL     1       5.100  27.090  51.144  1.00  0.00     0.024 A 
HETATM   14  H   UNL     1       2.345  27.438  49.171  1.00  0.00     0.318 HD
HETATM   15  H   UNL     1       1.959  30.091  52.172  1.00  0.00     0.169 HD
ENDROOT
BRANCH  12  16
HETATM   16  C   UNL     1       6.158  25.670  52.934  1.00  0.00    -0.026 A 
HETATM   17  C   UNL     1       6.072  25.124  54.230  1.00  0.00     0.015 A 
HETATM   18  C   UNL     1       6.942  24.114  54.655  1.00  0.00     0.037 A 
HETATM   19  C   UNL     1       7.908  23.636  53.781  1.00  0.00     0.065 A 
HETATM   20  C   UNL     1       8.018  24.151  52.497  1.00  0.00     0.037 A 
HETATM   21  C   UNL     1       7.149  25.163  52.077  1.00  0.00     0.015 A 
BRANCH  19  22
HETATM   22  O   UNL     1       8.774  22.650  54.149  1.00  0.00    -0.361 OA
HETATM   23  H   UNL     1       8.965  22.742  55.097  1.00  0.00     0.217 HD
ENDBRANCH  19  22
ENDBRANCH  12  16
BRANCH   2  24
HETATM   24  C   UNL     1       4.733  29.837  48.859  1.00  0.00    -0.016 A 
HETATM   25  C   UNL     1       5.562  30.525  49.764  1.00  0.00     0.010 A 
HETATM   26  C   UNL     1       6.096  31.781  49.452  1.00  0.00     0.001 A 
HETATM   27  C   UNL     1       5.826  32.372  48.221  1.00  0.00     0.000 A 
HETATM   28  C   UNL     1       5.032  31.704  47.296  1.00  0.00     0.001 A 
HETATM   29  C   UNL     1       4.503  30.449  47.607  1.00  0.00     0.010 A 
ENDBRANCH   2  24
TORSDOF 3
ENDMDL
MODEL 8
REMARK VINA RESULT:      -8.8      5.381      7.931
REMARK  3 active torsions:
REMARK  status: ('A' for Active; 'I' for Inactive)
REMARK    1  A    between atoms: C_2  and  C_3 
REMARK    2  A    between atoms: C_18  and  C_19 
REMARK    3  A    between atoms: C_22  and  O_23 
ROOT
HETATM    1  C   UNL     1       5.852  30.283  50.297  1.00  0.00     0.060 C 
HETATM    2  C   UNL     1       5.100  28.979  49.889  1.00  0.00     0.210 C 
HETATM    3  N   UNL     1       5.873  28.528  48.716  1.00  0.00     0.110 N 
HETATM    4  C   UNL     1       5.164  27.705  47.742  1.00  0.00     0.374 C 
HETATM    5  C   UNL     1       4.438  26.466  48.226  1.00  0.00     0.250 C 
HETATM    6  O   UNL     1       3.881  25.739  47.389  1.00  0.00    -0.271 OA
HETATM    7  N   UNL     1       4.407  26.029  49.505  1.00  0.00    -0.325 N 
HETATM    8  C   UNL     1       4.841  26.553  50.726  1.00  0.00     0.044 A 
HETATM    9  C   UNL     1       5.212  27.884  50.971  1.00  0.00     0.012 A 
HETATM   10  C   UNL     1       4.858  25.619  51.778  1.00  0.00     0.031 A 
HETATM   11  C   UNL     1       5.304  25.961  53.053  1.00  0.00     0.014 A 
HETATM   12  C   UNL     1       5.740  27.256  53.327  1.00  0.00    -0.025 A 
HETATM   13  C   UNL     1       5.663  28.199  52.283  1.00  0.00     0.024 A 
HETATM   14  H   UNL     1       6.701  28.032  49.043  1.00  0.00     0.318 HD
HETATM   15  H   UNL     1       3.977  25.111  49.536  1.00  0.00     0.169 HD
ENDROOT
BRANCH  12  16
HETATM   16  C   UNL     1       6.280  27.614  54.653  1.00  0.00    -0.026 A 
HETATM   17  C   UNL     1       5.416  27.857  55.739  1.00  0.00     0.015 A 
HETATM   18  C   UNL     1       5.910  28.187  57.005  1.00  0.00     0.037 A 
HETATM   19  C   UNL     1       7.282  28.273  57.199  1.00  0.00     0.065 A 
HETATM   20  C   UNL     1       8.160  28.038  56.150  1.00  0.00     0.037 A 
HETATM   21  C   UNL     1       7.662  27.712  54.885  1.00  0.00     0.015 A 
BRANCH  19  22
HETATM   22  O   UNL     1       7.809  28.587  58.415  1.00  0.00    -0.361 OA
HETATM   23  H   UNL     1       8.759  28.382  58.404  1.00  0.00     0.217 HD
ENDBRANCH  19  22
ENDBRANCH  12  16
BRANCH   2  24
HETATM   24  C   UNL     1       3.647  29.426  49.575  1.00  0.00    -0.016 A 
HETATM   25  C   UNL     1       3.329  30.256  48.485  1.00  0.00     0.010 A 
HETATM   26  C   UNL     1       2.010  30.647  48.228  1.00  0.00     0.001 A 
HETATM   27  C   UNL     1       0.975  30.205  49.046  1.00  0.00     0.000 A 
HETATM   28  C   UNL     1       1.254  29.362  50.115  1.00  0.00     0.001 A 
HETATM   29  C   UNL     1       2.571  28.969  50.368  1.00  0.00     0.010 A 
ENDBRANCH   2  24
TORSDOF 3
ENDMDL
MODEL 9
REMARK VINA RESULT:      -8.2      6.461      9.646
REMARK  3 active torsions:
REMARK  status: ('A' for Active; 'I' for Inactive)
REMARK    1  A    between atoms: C_2  and  C_3 
REMARK    2  A    between atoms: C_18  and  C_19 
REMARK    3  A    between atoms: C_22  and  O_23 
ROOT
HETATM    1  C   UNL     1       3.015  31.205  49.270  1.00  0.00     0.060 C 
HETATM    2  C   UNL     1       3.537  29.765  48.973  1.00  0.00     0.210 C 
HETATM    3  N   UNL     1       4.711  30.028  48.119  1.00  0.00     0.110 N 
HETATM    4  C   UNL     1       5.100  28.968  47.197  1.00  0.00     0.374 C 
HETATM    5  C   UNL     1       5.327  27.573  47.743  1.00  0.00     0.250 C 
HETATM    6  O   UNL     1       5.709  26.684  46.967  1.00  0.00    -0.271 OA
HETATM    7  N   UNL     1       5.224  27.219  49.044  1.00  0.00    -0.325 N 
HETATM    8  C   UNL     1       4.783  27.869  50.201  1.00  0.00     0.044 A 
HETATM    9  C   UNL     1       4.040  29.059  50.251  1.00  0.00     0.012 A 
HETATM   10  C   UNL     1       5.121  27.207  51.395  1.00  0.00     0.031 A 
HETATM   11  C   UNL     1       4.798  27.738  52.642  1.00  0.00     0.014 A 
HETATM   12  C   UNL     1       4.114  28.948  52.741  1.00  0.00    -0.025 A 
HETATM   13  C   UNL     1       3.727  29.573  51.540  1.00  0.00     0.024 A 
HETATM   14  H   UNL     1       5.502  30.269  48.715  1.00  0.00     0.318 HD
HETATM   15  H   UNL     1       5.561  26.269  49.162  1.00  0.00     0.169 HD
ENDROOT
BRANCH  12  16
HETATM   16  C   UNL     1       3.826  29.556  54.055  1.00  0.00    -0.026 A 
HETATM   17  C   UNL     1       4.159  28.882  55.247  1.00  0.00     0.015 A 
HETATM   18  C   UNL     1       3.904  29.448  56.500  1.00  0.00     0.037 A 
HETATM   19  C   UNL     1       3.313  30.701  56.574  1.00  0.00     0.065 A 
HETATM   20  C   UNL     1       2.974  31.392  55.418  1.00  0.00     0.037 A 
HETATM   21  C   UNL     1       3.227  30.821  54.167  1.00  0.00     0.015 A 
BRANCH  19  22
HETATM   22  O   UNL     1       3.049  31.294  57.772  1.00  0.00    -0.361 OA
HETATM   23  H   UNL     1       3.312  30.687  58.483  1.00  0.00     0.217 HD
ENDBRANCH  19  22
ENDBRANCH  12  16
BRANCH   2  24
HETATM   24  C   UNL     1       2.363  29.043  48.259  1.00  0.00    -0.016 A 
HETATM   25  C   UNL     1       1.861  27.803  48.693  1.00  0.00     0.010 A 
HETATM   26  C   UNL     1       0.804  27.172  48.027  1.00  0.00     0.001 A 
HETATM   27  C   UNL     1       0.213  27.774  46.921  1.00  0.00     0.000 A 
HETATM   28  C   UNL     1       0.669  29.013  46.485  1.00  0.00     0.001 A 
HETATM   29  C   UNL     1       1.722  29.643  47.153  1.00  0.00     0.010 A 
ENDBRANCH   2  24
TORSDOF 3
ENDMDL
MODEL 10
REMARK VINA RESULT:      -8.0      6.837      9.861
REMARK  3 active torsions:
REMARK  status: ('A' for Active; 'I' for Inactive)
REMARK    1  A    between atoms: C_2  and  C_3 
REMARK    2  A    between atoms: C_18  and  C_19 
REMARK    3  A    between atoms: C_22  and  O_23 
ROOT
HETATM    1  C   UNL     1       6.064  36.098  62.131  1.00  0.00     0.060 C 
HETATM    2  C   UNL     1       4.721  35.313  62.237  1.00  0.00     0.210 C 
HETATM    3  N   UNL     1       3.762  36.251  61.621  1.00  0.00     0.110 N 
HETATM    4  C   UNL     1       2.371  36.137  62.044  1.00  0.00     0.374 C 
HETATM    5  C   UNL     1       1.693  34.785  61.965  1.00  0.00     0.250 C 
HETATM    6  O   UNL     1       0.494  34.701  62.275  1.00  0.00    -0.271 OA
HETATM    7  N   UNL     1       2.265  33.651  61.502  1.00  0.00    -0.325 N 
HETATM    8  C   UNL     1       3.562  33.300  61.115  1.00  0.00     0.044 A 
HETATM    9  C   UNL     1       4.732  34.029  61.382  1.00  0.00     0.012 A 
HETATM   10  C   UNL     1       3.644  32.077  60.425  1.00  0.00     0.031 A 
HETATM   11  C   UNL     1       4.854  31.597  59.929  1.00  0.00     0.014 A 
HETATM   12  C   UNL     1       6.032  32.317  60.117  1.00  0.00    -0.025 A 
HETATM   13  C   UNL     1       5.950  33.510  60.861  1.00  0.00     0.024 A 
HETATM   14  H   UNL     1       3.819  36.156  60.608  1.00  0.00     0.318 HD
HETATM   15  H   UNL     1       1.560  32.926  61.423  1.00  0.00     0.169 HD
ENDROOT
BRANCH  12  16
HETATM   16  C   UNL     1       7.309  31.854  59.538  1.00  0.00    -0.026 A 
HETATM   17  C   UNL     1       7.325  30.884  58.516  1.00  0.00     0.015 A 
HETATM   18  C   UNL     1       8.524  30.442  57.949  1.00  0.00     0.037 A 
HETATM   19  C   UNL     1       9.726  30.972  58.398  1.00  0.00     0.065 A 
HETATM   20  C   UNL     1       9.745  31.931  59.402  1.00  0.00     0.037 A 
HETATM   21  C   UNL     1       8.543  32.367  59.970  1.00  0.00     0.015 A 
BRANCH  19  22
HETATM   22  O   UNL     1      10.919  30.576  57.873  1.00  0.00    -0.361 OA
HETATM   23  H   UNL     1      11.628  30.831  58.486  1.00  0.00     0.217 HD
ENDBRANCH  19  22
ENDBRANCH  12  16
BRANCH   2  24
HETATM   24  C   UNL     1       4.507  35.072  63.756  1.00  0.00    -0.016 A 
HETATM   25  C   UNL     1       3.998  36.063  64.615  1.00  0.00     0.010 A 
HETATM   26  C   UNL     1       3.820  35.820  65.982  1.00  0.00     0.001 A 
HETATM   27  C   UNL     1       4.131  34.575  66.520  1.00  0.00     0.000 A 
HETATM   28  C   UNL     1       4.609  33.567  65.690  1.00  0.00     0.001 A 
HETATM   29  C   UNL     1       4.783  33.810  64.326  1.00  0.00     0.010 A 
ENDBRANCH   2  24
TORSDOF 3
ENDMDL
