MODEL 1
REMARK VINA RESULT:      -9.1      0.000      0.000
REMARK  6 active torsions:
REMARK  status: ('A' for Active; 'I' for Inactive)
REMARK    1  A    between atoms: C_7  and  C_8 
REMARK    2  A    between atoms: C_8  and  N_9 
REMARK       I    between atoms: N_9  and  C_10 
REMARK       I    between atoms: C_10  and  N_11 
REMARK    3  A    between atoms: N_11  and  C_12 
REMARK    4  A    between atoms: C_14  and  C_15 
REMARK    5  A    between atoms: C_15  and  O_16 
REMARK    6  A    between atoms: O_16  and  C_17 
ROOT
HETATM    1  C   UNL     1       7.403  27.957  54.504  1.00  0.00     0.036 A 
HETATM    2  C   UNL     1       7.508  26.665  53.979  1.00  0.00     0.038 A 
HETATM    3  C   UNL     1       6.369  25.851  53.836  1.00  0.00    -0.032 A 
HETATM    4  C   UNL     1       5.116  26.353  54.214  1.00  0.00     0.009 A 
HETATM    5  C   UNL     1       4.997  27.648  54.708  1.00  0.00     0.003 A 
HETATM    6  C   UNL     1       6.133  28.443  54.847  1.00  0.00     0.029 A 
ENDROOT
BRANCH   1   7
HETATM    7  N   UNL     1       8.475  28.850  54.680  1.00  0.00    -0.309 N 
HETATM    8  C   UNL     1       9.139  29.329  55.763  1.00  0.00     0.320 C 
HETATM    9  N   UNL     1       8.600  29.132  56.992  1.00  0.00    -0.339 N 
HETATM   10  O   UNL     1      10.179  29.962  55.587  1.00  0.00    -0.247 OA
HETATM   11  H   UNL     1       7.592  29.122  57.008  1.00  0.00     0.164 HD
HETATM   12  H   UNL     1       8.897  29.206  53.830  1.00  0.00     0.170 HD
BRANCH   9  13
HETATM   13  C   UNL     1       9.241  29.723  58.143  1.00  0.00     0.166 C 
BRANCH  13  14
HETATM   14  C   UNL     1       8.249  30.531  58.893  1.00  0.00     0.003 A 
HETATM   15  C   UNL     1       8.264  30.895  60.233  1.00  0.00     0.035 A 
HETATM   16  C   UNL     1       9.229  30.562  61.312  1.00  0.00     0.070 C 
HETATM   17  N   UNL     1       7.172  31.708  60.411  1.00  0.00    -0.278 N 
HETATM   18  C   UNL     1       6.773  32.425  61.598  1.00  0.00     0.179 C 
HETATM   19  N   UNL     1       6.424  31.844  59.301  1.00  0.00    -0.185 NA
HETATM   20  C   UNL     1       7.087  31.147  58.379  1.00  0.00     0.149 A 
ENDBRANCH  13  14
ENDBRANCH   9  13
ENDBRANCH   1   7
BRANCH   3  21
HETATM   21  C   UNL     1       6.485  24.440  53.315  1.00  0.00     0.206 C 
BRANCH  21  22
HETATM   22  O   UNL     1       6.787  23.565  54.400  1.00  0.00    -0.381 OA
BRANCH  22  23
HETATM   23  C   UNL     1       8.179  23.249  54.501  1.00  0.00     0.121 C 
HETATM   24  C   UNL     1       8.455  22.463  55.790  1.00  0.00     0.032 C 
HETATM   25  C   UNL     1       7.784  21.089  55.785  1.00  0.00     0.002 C 
HETATM   26  C   UNL     1       8.169  20.277  54.553  1.00  0.00     0.000 C 
HETATM   27  C   UNL     1       7.889  21.045  53.264  1.00  0.00     0.002 C 
HETATM   28  C   UNL     1       8.560  22.418  53.271  1.00  0.00     0.032 C 
ENDBRANCH  22  23
ENDBRANCH  21  22
ENDBRANCH   3  21
TORSDOF 6
ENDMDL
MODEL 2
REMARK VINA RESULT:      -8.9      1.894      2.448
REMARK  6 active torsions:
REMARK  status: ('A' for Active; 'I' for Inactive)
REMARK    1  A    between atoms: C_7  and  C_8 
REMARK    2  A    between atoms: C_8  and  N_9 
REMARK       I    between atoms: N_9  and  C_10 
REMARK       I    between atoms: C_10  and  N_11 
REMARK    3  A    between atoms: N_11  and  C_12 
REMARK    4  A    between atoms: C_14  and  C_15 
REMARK    5  A    between atoms: C_15  and  O_16 
REMARK    6  A    between atoms: O_16  and  C_17 
ROOT
HETATM    1  C   UNL     1       7.505  28.395  57.232  1.00  0.00     0.036 A 
HETATM    2  C   UNL     1       7.703  27.014  57.128  1.00  0.00     0.038 A 
HETATM    3  C   UNL     1       6.621  26.148  56.884  1.00  0.00    -0.032 A 
HETATM    4  C   UNL     1       5.335  26.685  56.730  1.00  0.00     0.009 A 
HETATM    5  C   UNL     1       5.134  28.060  56.801  1.00  0.00     0.003 A 
HETATM    6  C   UNL     1       6.214  28.906  57.046  1.00  0.00     0.029 A 
ENDROOT
BRANCH   1   7
HETATM    7  N   UNL     1       8.518  29.342  57.466  1.00  0.00    -0.309 N 
HETATM    8  C   UNL     1       8.935  30.031  58.559  1.00  0.00     0.320 C 
HETATM    9  N   UNL     1       8.143  30.039  59.660  1.00  0.00    -0.339 N 
HETATM   10  O   UNL     1       9.991  30.658  58.496  1.00  0.00    -0.247 OA
HETATM   11  H   UNL     1       7.155  29.996  59.462  1.00  0.00     0.164 HD
HETATM   12  H   UNL     1       9.115  29.554  56.675  1.00  0.00     0.170 HD
BRANCH   9  13
HETATM   13  C   UNL     1       8.522  30.848  60.793  1.00  0.00     0.166 C 
BRANCH  13  14
HETATM   14  C   UNL     1       7.463  31.854  61.051  1.00  0.00     0.003 A 
HETATM   15  C   UNL     1       7.255  32.620  62.190  1.00  0.00     0.035 A 
HETATM   16  C   UNL     1       7.983  32.639  63.485  1.00  0.00     0.070 C 
HETATM   17  N   UNL     1       6.203  33.451  61.895  1.00  0.00    -0.278 N 
HETATM   18  C   UNL     1       5.640  34.506  62.703  1.00  0.00     0.179 C 
HETATM   19  N   UNL     1       5.682  33.234  60.674  1.00  0.00    -0.185 NA
HETATM   20  C   UNL     1       6.457  32.281  60.158  1.00  0.00     0.149 A 
ENDBRANCH  13  14
ENDBRANCH   9  13
ENDBRANCH   1   7
BRANCH   3  21
HETATM   21  C   UNL     1       6.821  24.655  56.819  1.00  0.00     0.206 C 
BRANCH  21  22
HETATM   22  O   UNL     1       6.878  24.249  55.453  1.00  0.00    -0.381 OA
BRANCH  22  23
HETATM   23  C   UNL     1       8.213  24.037  54.982  1.00  0.00     0.121 C 
HETATM   24  C   UNL     1       8.817  22.790  55.642  1.00  0.00     0.032 C 
HETATM   25  C   UNL     1       8.093  21.508  55.230  1.00  0.00     0.002 C 
HETATM   26  C   UNL     1       8.035  21.354  53.714  1.00  0.00     0.000 C 
HETATM   27  C   UNL     1       7.425  22.584  53.047  1.00  0.00     0.002 C 
HETATM   28  C   UNL     1       8.150  23.865  53.460  1.00  0.00     0.032 C 
ENDBRANCH  22  23
ENDBRANCH  21  22
ENDBRANCH   3  21
TORSDOF 6
ENDMDL
MODEL 3
REMARK VINA RESULT:      -8.8      2.378      3.694
REMARK  6 active torsions:
REMARK  status: ('A' for Active; 'I' for Inactive)
REMARK    1  A    between atoms: C_7  and  C_8 
REMARK    2  A    between atoms: C_8  and  N_9 
REMARK       I    between atoms: N_9  and  C_10 
REMARK       I    between atoms: C_10  and  N_11 
REMARK    3  A    between atoms: N_11  and  C_12 
REMARK    4  A    between atoms: C_14  and  C_15 
REMARK    5  A    between atoms: C_15  and  O_16 
REMARK    6  A    between atoms: O_16  and  C_17 
ROOT
HETATM    1  C   UNL     1       7.195  29.599  57.769  1.00  0.00     0.036 A 
HETATM    2  C   UNL     1       7.769  28.323  57.745  1.00  0.00     0.038 A 
HETATM    3  C   UNL     1       7.011  27.200  57.366  1.00  0.00    -0.032 A 
HETATM    4  C   UNL     1       5.669  27.371  56.998  1.00  0.00     0.009 A 
HETATM    5  C   UNL     1       5.099  28.640  56.988  1.00  0.00     0.003 A 
HETATM    6  C   UNL     1       5.860  29.745  57.368  1.00  0.00     0.029 A 
ENDROOT
BRANCH   1   7
HETATM    7  N   UNL     1       7.867  30.782  58.124  1.00  0.00    -0.309 N 
HETATM    8  C   UNL     1       8.218  31.353  59.304  1.00  0.00     0.320 C 
HETATM    9  N   UNL     1       7.671  30.868  60.446  1.00  0.00    -0.339 N 
HETATM   10  O   UNL     1       8.984  32.316  59.291  1.00  0.00    -0.247 OA
HETATM   11  H   UNL     1       6.733  30.513  60.340  1.00  0.00     0.164 HD
HETATM   12  H   UNL     1       8.215  31.340  57.353  1.00  0.00     0.170 HD
BRANCH   9  13
HETATM   13  C   UNL     1       7.955  31.528  61.697  1.00  0.00     0.166 C 
BRANCH  13  14
HETATM   14  C   UNL     1       6.703  32.112  62.237  1.00  0.00     0.003 A 
HETATM   15  C   UNL     1       6.515  32.819  63.417  1.00  0.00     0.035 A 
HETATM   16  C   UNL     1       7.475  33.165  64.497  1.00  0.00     0.070 C 
HETATM   17  N   UNL     1       5.200  33.211  63.413  1.00  0.00    -0.278 N 
HETATM   18  C   UNL     1       4.510  34.045  64.367  1.00  0.00     0.179 C 
HETATM   19  N   UNL     1       4.514  32.757  62.348  1.00  0.00    -0.185 NA
HETATM   20  C   UNL     1       5.429  32.109  61.629  1.00  0.00     0.149 A 
ENDBRANCH  13  14
ENDBRANCH   9  13
ENDBRANCH   1   7
BRANCH   3  21
HETATM   21  C   UNL     1       7.611  25.816  57.386  1.00  0.00     0.206 C 
BRANCH  21  22
HETATM   22  O   UNL     1       7.773  25.358  56.045  1.00  0.00    -0.381 OA
BRANCH  22  23
HETATM   23  C   UNL     1       6.795  24.388  55.658  1.00  0.00     0.121 C 
HETATM   24  C   UNL     1       6.206  24.742  54.286  1.00  0.00     0.032 C 
HETATM   25  C   UNL     1       7.246  24.655  53.169  1.00  0.00     0.002 C 
HETATM   26  C   UNL     1       7.928  23.291  53.139  1.00  0.00     0.000 C 
HETATM   27  C   UNL     1       8.528  22.932  54.495  1.00  0.00     0.002 C 
HETATM   28  C   UNL     1       7.486  23.020  55.611  1.00  0.00     0.032 C 
ENDBRANCH  22  23
ENDBRANCH  21  22
ENDBRANCH   3  21
TORSDOF 6
ENDMDL
MODEL 4
REMARK VINA RESULT:      -8.8      2.377      4.938
REMARK  6 active torsions:
REMARK  status: ('A' for Active; 'I' for Inactive)
REMARK    1  A    between atoms: C_7  and  C_8 
REMARK    2  A    between atoms: C_8  and  N_9 
REMARK       I    between atoms: N_9  and  C_10 
REMARK       I    between atoms: C_10  and  N_11 
REMARK    3  A    between atoms: N_11  and  C_12 
REMARK    4  A    between atoms: C_14  and  C_15 
REMARK    5  A    between atoms: C_15  and  O_16 
REMARK    6  A    between atoms: O_16  and  C_17 
ROOT
HETATM    1  C   UNL     1       8.125  23.866  55.515  1.00  0.00     0.036 A 
HETATM    2  C   UNL     1       7.985  24.533  54.294  1.00  0.00     0.038 A 
HETATM    3  C   UNL     1       7.848  23.813  53.092  1.00  0.00    -0.032 A 
HETATM    4  C   UNL     1       7.840  22.412  53.129  1.00  0.00     0.009 A 
HETATM    5  C   UNL     1       7.947  21.740  54.343  1.00  0.00     0.003 A 
HETATM    6  C   UNL     1       8.084  22.465  55.526  1.00  0.00     0.029 A 
ENDROOT
BRANCH   1   7
HETATM    7  N   UNL     1       8.260  24.490  56.767  1.00  0.00    -0.309 N 
HETATM    8  C   UNL     1       7.827  25.667  57.290  1.00  0.00     0.320 C 
HETATM    9  N   UNL     1       7.329  26.605  56.447  1.00  0.00    -0.339 N 
HETATM   10  O   UNL     1       7.943  25.854  58.500  1.00  0.00    -0.247 OA
HETATM   11  H   UNL     1       7.752  26.608  55.531  1.00  0.00     0.164 HD
HETATM   12  H   UNL     1       8.751  23.957  57.476  1.00  0.00     0.170 HD
BRANCH   9  13
HETATM   13  C   UNL     1       6.959  27.897  56.974  1.00  0.00     0.166 C 
BRANCH  13  14
HETATM   14  C   UNL     1       8.108  28.826  56.837  1.00  0.00     0.003 A 
HETATM   15  C   UNL     1       8.651  29.677  57.790  1.00  0.00     0.035 A 
HETATM   16  C   UNL     1       8.237  29.946  59.191  1.00  0.00     0.070 C 
HETATM   17  N   UNL     1       9.744  30.256  57.194  1.00  0.00    -0.278 N 
HETATM   18  C   UNL     1      10.712  31.154  57.777  1.00  0.00     0.179 C 
HETATM   19  N   UNL     1       9.908  29.886  55.911  1.00  0.00    -0.185 NA
HETATM   20  C   UNL     1       8.928  29.007  55.703  1.00  0.00     0.149 A 
ENDBRANCH  13  14
ENDBRANCH   9  13
ENDBRANCH   1   7
BRANCH   3  21
HETATM   21  C   UNL     1       7.746  24.528  51.767  1.00  0.00     0.206 C 
BRANCH  21  22
HETATM   22  O   UNL     1       6.927  25.685  51.923  1.00  0.00    -0.381 OA
BRANCH  22  23
HETATM   23  C   UNL     1       5.543  25.438  51.656  1.00  0.00     0.121 C 
HETATM   24  C   UNL     1       4.713  25.629  52.932  1.00  0.00     0.032 C 
HETATM   25  C   UNL     1       4.721  27.079  53.417  1.00  0.00     0.002 C 
HETATM   26  C   UNL     1       4.276  28.043  52.322  1.00  0.00     0.000 C 
HETATM   27  C   UNL     1       5.103  27.869  51.051  1.00  0.00     0.002 C 
HETATM   28  C   UNL     1       5.093  26.419  50.568  1.00  0.00     0.032 C 
ENDBRANCH  22  23
ENDBRANCH  21  22
ENDBRANCH   3  21
TORSDOF 6
ENDMDL
MODEL 5
REMARK VINA RESULT:      -8.7      2.179      2.787
REMARK  6 active torsions:
REMARK  status: ('A' for Active; 'I' for Inactive)
REMARK    1  A    between atoms: C_7  and  C_8 
REMARK    2  A    between atoms: C_8  and  N_9 
REMARK       I    between atoms: N_9  and  C_10 
REMARK       I    between atoms: C_10  and  N_11 
REMARK    3  A    between atoms: N_11  and  C_12 
REMARK    4  A    between atoms: C_14  and  C_15 
REMARK    5  A    between atoms: C_15  and  O_16 
REMARK    6  A    between atoms: O_16  and  C_17 
ROOT
HETATM    1  C   UNL     1       4.954  27.447  55.976  1.00  0.00     0.036 A 
HETATM    2  C   UNL     1       5.746  26.516  56.656  1.00  0.00     0.038 A 
HETATM    3  C   UNL     1       6.479  25.543  55.950  1.00  0.00    -0.032 A 
HETATM    4  C   UNL     1       6.419  25.522  54.550  1.00  0.00     0.009 A 
HETATM    5  C   UNL     1       5.658  26.464  53.864  1.00  0.00     0.003 A 
HETATM    6  C   UNL     1       4.935  27.420  54.574  1.00  0.00     0.029 A 
ENDROOT
BRANCH   1   7
HETATM    7  N   UNL     1       4.192  28.460  56.586  1.00  0.00    -0.309 N 
HETATM    8  C   UNL     1       4.475  29.699  57.064  1.00  0.00     0.320 C 
HETATM    9  N   UNL     1       5.776  30.048  57.226  1.00  0.00    -0.339 N 
HETATM   10  O   UNL     1       3.544  30.441  57.372  1.00  0.00    -0.247 OA
HETATM   11  H   UNL     1       6.384  29.283  57.474  1.00  0.00     0.164 HD
HETATM   12  H   UNL     1       3.199  28.275  56.670  1.00  0.00     0.170 HD
BRANCH   9  13
HETATM   13  C   UNL     1       6.091  31.322  57.827  1.00  0.00     0.166 C 
BRANCH  13  14
HETATM   14  C   UNL     1       7.066  31.115  58.926  1.00  0.00     0.003 A 
HETATM   15  C   UNL     1       7.101  31.717  60.177  1.00  0.00     0.035 A 
HETATM   16  C   UNL     1       6.224  32.757  60.772  1.00  0.00     0.070 C 
HETATM   17  N   UNL     1       8.143  31.125  60.846  1.00  0.00    -0.278 N 
HETATM   18  C   UNL     1       8.559  31.325  62.214  1.00  0.00     0.179 C 
HETATM   19  N   UNL     1       8.817  30.232  60.098  1.00  0.00    -0.185 NA
HETATM   20  C   UNL     1       8.152  30.214  58.944  1.00  0.00     0.149 A 
ENDBRANCH  13  14
ENDBRANCH   9  13
ENDBRANCH   1   7
BRANCH   3  21
HETATM   21  C   UNL     1       7.296  24.507  56.681  1.00  0.00     0.206 C 
BRANCH  21  22
HETATM   22  O   UNL     1       7.270  23.287  55.943  1.00  0.00    -0.381 OA
BRANCH  22  23
HETATM   23  C   UNL     1       8.574  22.750  55.693  1.00  0.00     0.121 C 
HETATM   24  C   UNL     1       8.658  21.303  56.196  1.00  0.00     0.032 C 
HETATM   25  C   UNL     1       7.738  20.363  55.415  1.00  0.00     0.002 C 
HETATM   26  C   UNL     1       7.996  20.441  53.913  1.00  0.00     0.000 C 
HETATM   27  C   UNL     1       7.904  21.875  53.400  1.00  0.00     0.002 C 
HETATM   28  C   UNL     1       8.824  22.812  54.182  1.00  0.00     0.032 C 
ENDBRANCH  22  23
ENDBRANCH  21  22
ENDBRANCH   3  21
TORSDOF 6
ENDMDL
MODEL 6
REMARK VINA RESULT:      -8.6      2.671      8.858
REMARK  6 active torsions:
REMARK  status: ('A' for Active; 'I' for Inactive)
REMARK    1  A    between atoms: C_7  and  C_8 
REMARK    2  A    between atoms: C_8  and  N_9 
REMARK       I    between atoms: N_9  and  C_10 
REMARK       I    between atoms: C_10  and  N_11 
REMARK    3  A    between atoms: N_11  and  C_12 
REMARK    4  A    between atoms: C_14  and  C_15 
REMARK    5  A    between atoms: C_15  and  O_16 
REMARK    6  A    between atoms: O_16  and  C_17 
ROOT
HETATM    1  C   UNL     1       6.904  28.266  55.149  1.00  0.00     0.036 A 
HETATM    2  C   UNL     1       7.907  28.689  56.027  1.00  0.00     0.038 A 
HETATM    3  C   UNL     1       7.580  29.299  57.253  1.00  0.00    -0.032 A 
HETATM    4  C   UNL     1       6.232  29.469  57.596  1.00  0.00     0.009 A 
HETATM    5  C   UNL     1       5.228  29.023  56.742  1.00  0.00     0.003 A 
HETATM    6  C   UNL     1       5.564  28.423  55.530  1.00  0.00     0.029 A 
ENDROOT
BRANCH   1   7
HETATM    7  N   UNL     1       7.125  27.642  53.909  1.00  0.00    -0.309 N 
HETATM    8  C   UNL     1       6.965  26.376  53.444  1.00  0.00     0.320 C 
HETATM    9  N   UNL     1       6.750  25.381  54.340  1.00  0.00    -0.339 N 
HETATM   10  O   UNL     1       7.064  26.173  52.235  1.00  0.00    -0.247 OA
HETATM   11  H   UNL     1       7.205  25.516  55.230  1.00  0.00     0.164 HD
HETATM   12  H   UNL     1       7.438  28.248  53.159  1.00  0.00     0.170 HD
BRANCH   9  13
HETATM   13  C   UNL     1       6.678  24.018  53.871  1.00  0.00     0.166 C 
BRANCH  13  14
HETATM   14  C   UNL     1       7.383  23.133  54.832  1.00  0.00     0.003 A 
HETATM   15  C   UNL     1       7.905  21.865  54.618  1.00  0.00     0.035 A 
HETATM   16  C   UNL     1       7.886  21.005  53.407  1.00  0.00     0.070 C 
HETATM   17  N   UNL     1       8.525  21.515  55.792  1.00  0.00    -0.278 N 
HETATM   18  C   UNL     1       9.301  20.331  56.077  1.00  0.00     0.179 C 
HETATM   19  N   UNL     1       8.388  22.437  56.762  1.00  0.00    -0.185 NA
HETATM   20  C   UNL     1       7.713  23.423  56.174  1.00  0.00     0.149 A 
ENDBRANCH  13  14
ENDBRANCH   9  13
ENDBRANCH   1   7
BRANCH   3  21
HETATM   21  C   UNL     1       8.658  29.800  58.182  1.00  0.00     0.206 C 
BRANCH  21  22
HETATM   22  O   UNL     1       8.052  30.317  59.365  1.00  0.00    -0.381 OA
BRANCH  22  23
HETATM   23  C   UNL     1       8.189  31.736  59.495  1.00  0.00     0.121 C 
HETATM   24  C   UNL     1       7.034  32.307  60.329  1.00  0.00     0.032 C 
HETATM   25  C   UNL     1       7.067  31.818  61.777  1.00  0.00     0.002 C 
HETATM   26  C   UNL     1       8.414  32.100  62.437  1.00  0.00     0.000 C 
HETATM   27  C   UNL     1       9.569  31.526  61.622  1.00  0.00     0.002 C 
HETATM   28  C   UNL     1       9.534  32.016  60.174  1.00  0.00     0.032 C 
ENDBRANCH  22  23
ENDBRANCH  21  22
ENDBRANCH   3  21
TORSDOF 6
ENDMDL
MODEL 7
REMARK VINA RESULT:      -8.4      1.879      2.401
REMARK  6 active torsions:
REMARK  status: ('A' for Active; 'I' for Inactive)
REMARK    1  A    between atoms: C_7  and  C_8 
REMARK    2  A    between atoms: C_8  and  N_9 
REMARK       I    between atoms: N_9  and  C_10 
REMARK       I    between atoms: C_10  and  N_11 
REMARK    3  A    between atoms: N_11  and  C_12 
REMARK    4  A    between atoms: C_14  and  C_15 
REMARK    5  A    between atoms: C_15  and  O_16 
REMARK    6  A    between atoms: O_16  and  C_17 
ROOT
HETATM    1  C   UNL     1       5.160  27.674  55.433  1.00  0.00     0.036 A 
HETATM    2  C   UNL     1       5.632  26.799  54.448  1.00  0.00     0.038 A 
HETATM    3  C   UNL     1       5.917  25.456  54.755  1.00  0.00    -0.032 A 
HETATM    4  C   UNL     1       5.712  24.994  56.063  1.00  0.00     0.009 A 
HETATM    5  C   UNL     1       5.215  25.848  57.041  1.00  0.00     0.003 A 
HETATM    6  C   UNL     1       4.937  27.177  56.724  1.00  0.00     0.029 A 
ENDROOT
BRANCH   1   7
HETATM    7  N   UNL     1       4.839  29.027  55.227  1.00  0.00    -0.309 N 
HETATM    8  C   UNL     1       5.187  30.187  55.842  1.00  0.00     0.320 C 
HETATM    9  N   UNL     1       5.804  30.120  57.048  1.00  0.00    -0.339 N 
HETATM   10  O   UNL     1       4.892  31.253  55.304  1.00  0.00    -0.247 OA
HETATM   11  H   UNL     1       5.522  29.336  57.616  1.00  0.00     0.164 HD
HETATM   12  H   UNL     1       4.249  29.224  54.427  1.00  0.00     0.170 HD
BRANCH   9  13
HETATM   13  C   UNL     1       6.089  31.343  57.759  1.00  0.00     0.166 C 
BRANCH  13  14
HETATM   14  C   UNL     1       7.083  31.066  58.826  1.00  0.00     0.003 A 
HETATM   15  C   UNL     1       7.199  31.659  60.076  1.00  0.00     0.035 A 
HETATM   16  C   UNL     1       6.412  32.752  60.702  1.00  0.00     0.070 C 
HETATM   17  N   UNL     1       8.220  30.996  60.710  1.00  0.00    -0.278 N 
HETATM   18  C   UNL     1       8.691  31.161  62.064  1.00  0.00     0.179 C 
HETATM   19  N   UNL     1       8.808  30.063  59.938  1.00  0.00    -0.185 NA
HETATM   20  C   UNL     1       8.107  30.095  58.806  1.00  0.00     0.149 A 
ENDBRANCH  13  14
ENDBRANCH   9  13
ENDBRANCH   1   7
BRANCH   3  21
HETATM   21  C   UNL     1       6.471  24.522  53.709  1.00  0.00     0.206 C 
BRANCH  21  22
HETATM   22  O   UNL     1       6.889  23.312  54.337  1.00  0.00    -0.381 OA
BRANCH  22  23
HETATM   23  C   UNL     1       8.287  23.048  54.181  1.00  0.00     0.121 C 
HETATM   24  C   UNL     1       8.885  22.547  55.503  1.00  0.00     0.032 C 
HETATM   25  C   UNL     1       8.317  21.189  55.918  1.00  0.00     0.002 C 
HETATM   26  C   UNL     1       8.477  20.149  54.813  1.00  0.00     0.000 C 
HETATM   27  C   UNL     1       7.876  20.632  53.496  1.00  0.00     0.002 C 
HETATM   28  C   UNL     1       8.444  21.990  53.083  1.00  0.00     0.032 C 
ENDBRANCH  22  23
ENDBRANCH  21  22
ENDBRANCH   3  21
TORSDOF 6
ENDMDL
MODEL 8
REMARK VINA RESULT:      -8.3      2.575      4.714
REMARK  6 active torsions:
REMARK  status: ('A' for Active; 'I' for Inactive)
REMARK    1  A    between atoms: C_7  and  C_8 
REMARK    2  A    between atoms: C_8  and  N_9 
REMARK       I    between atoms: N_9  and  C_10 
REMARK       I    between atoms: C_10  and  N_11 
REMARK    3  A    between atoms: N_11  and  C_12 
REMARK    4  A    between atoms: C_14  and  C_15 
REMARK    5  A    between atoms: C_15  and  O_16 
REMARK    6  A    between atoms: O_16  and  C_17 
ROOT
HETATM    1  C   UNL     1       9.213  30.334  58.495  1.00  0.00     0.036 A 
HETATM    2  C   UNL     1       8.027  29.596  58.424  1.00  0.00     0.038 A 
HETATM    3  C   UNL     1       7.726  28.825  57.286  1.00  0.00    -0.032 A 
HETATM    4  C   UNL     1       8.637  28.792  56.220  1.00  0.00     0.009 A 
HETATM    5  C   UNL     1       9.833  29.499  56.295  1.00  0.00     0.003 A 
HETATM    6  C   UNL     1      10.118  30.260  57.427  1.00  0.00     0.029 A 
ENDROOT
BRANCH   1   7
HETATM    7  N   UNL     1       9.609  31.127  59.587  1.00  0.00    -0.309 N 
HETATM    8  C   UNL     1       9.126  31.318  60.842  1.00  0.00     0.320 C 
HETATM    9  N   UNL     1       7.886  30.854  61.136  1.00  0.00    -0.339 N 
HETATM   10  O   UNL     1       9.812  31.941  61.651  1.00  0.00    -0.247 OA
HETATM   11  H   UNL     1       7.241  30.872  60.361  1.00  0.00     0.164 HD
HETATM   12  H   UNL     1      10.462  31.659  59.460  1.00  0.00     0.170 HD
BRANCH   9  13
HETATM   13  C   UNL     1       7.320  31.138  62.433  1.00  0.00     0.166 C 
BRANCH  13  14
HETATM   14  C   UNL     1       6.642  32.458  62.391  1.00  0.00     0.003 A 
HETATM   15  C   UNL     1       6.712  33.495  63.311  1.00  0.00     0.035 A 
HETATM   16  C   UNL     1       7.432  33.589  64.607  1.00  0.00     0.070 C 
HETATM   17  N   UNL     1       5.976  34.521  62.772  1.00  0.00    -0.278 N 
HETATM   18  C   UNL     1       5.794  35.859  63.283  1.00  0.00     0.179 C 
HETATM   19  N   UNL     1       5.389  34.198  61.605  1.00  0.00    -0.185 NA
HETATM   20  C   UNL     1       5.809  32.956  61.367  1.00  0.00     0.149 A 
ENDBRANCH  13  14
ENDBRANCH   9  13
ENDBRANCH   1   7
BRANCH   3  21
HETATM   21  C   UNL     1       6.427  28.066  57.184  1.00  0.00     0.206 C 
BRANCH  21  22
HETATM   22  O   UNL     1       6.431  27.290  55.988  1.00  0.00    -0.381 OA
BRANCH  22  23
HETATM   23  C   UNL     1       5.844  25.995  56.152  1.00  0.00     0.121 C 
HETATM   24  C   UNL     1       5.751  25.278  54.799  1.00  0.00     0.032 C 
HETATM   25  C   UNL     1       7.128  24.966  54.212  1.00  0.00     0.002 C 
HETATM   26  C   UNL     1       7.994  24.181  55.192  1.00  0.00     0.000 C 
HETATM   27  C   UNL     1       8.104  24.891  56.538  1.00  0.00     0.002 C 
HETATM   28  C   UNL     1       6.726  25.202  57.123  1.00  0.00     0.032 C 
ENDBRANCH  22  23
ENDBRANCH  21  22
ENDBRANCH   3  21
TORSDOF 6
ENDMDL
MODEL 9
REMARK VINA RESULT:      -8.3      2.578      4.053
REMARK  6 active torsions:
REMARK  status: ('A' for Active; 'I' for Inactive)
REMARK    1  A    between atoms: C_7  and  C_8 
REMARK    2  A    between atoms: C_8  and  N_9 
REMARK       I    between atoms: N_9  and  C_10 
REMARK       I    between atoms: C_10  and  N_11 
REMARK    3  A    between atoms: N_11  and  C_12 
REMARK    4  A    between atoms: C_14  and  C_15 
REMARK    5  A    between atoms: C_15  and  O_16 
REMARK    6  A    between atoms: O_16  and  C_17 
ROOT
HETATM    1  C   UNL     1       5.983  28.945  57.485  1.00  0.00     0.036 A 
HETATM    2  C   UNL     1       6.197  27.593  57.198  1.00  0.00     0.038 A 
HETATM    3  C   UNL     1       7.502  27.084  57.059  1.00  0.00    -0.032 A 
HETATM    4  C   UNL     1       8.595  27.946  57.225  1.00  0.00     0.009 A 
HETATM    5  C   UNL     1       8.393  29.286  57.541  1.00  0.00     0.003 A 
HETATM    6  C   UNL     1       7.095  29.778  57.674  1.00  0.00     0.029 A 
ENDROOT
BRANCH   1   7
HETATM    7  N   UNL     1       4.724  29.549  57.651  1.00  0.00    -0.309 N 
HETATM    8  C   UNL     1       4.291  30.686  58.252  1.00  0.00     0.320 C 
HETATM    9  N   UNL     1       5.142  31.347  59.077  1.00  0.00    -0.339 N 
HETATM   10  O   UNL     1       3.132  31.052  58.062  1.00  0.00    -0.247 OA
HETATM   11  H   UNL     1       5.786  30.750  59.574  1.00  0.00     0.164 HD
HETATM   12  H   UNL     1       3.947  29.078  57.202  1.00  0.00     0.170 HD
BRANCH   9  13
HETATM   13  C   UNL     1       4.665  32.500  59.801  1.00  0.00     0.166 C 
BRANCH  13  14
HETATM   14  C   UNL     1       5.177  32.448  61.193  1.00  0.00     0.003 A 
HETATM   15  C   UNL     1       6.486  32.570  61.639  1.00  0.00     0.035 A 
HETATM   16  C   UNL     1       7.751  32.741  60.880  1.00  0.00     0.070 C 
HETATM   17  N   UNL     1       6.417  32.537  63.009  1.00  0.00    -0.278 N 
HETATM   18  C   UNL     1       7.486  32.711  63.965  1.00  0.00     0.179 C 
HETATM   19  N   UNL     1       5.170  32.344  63.475  1.00  0.00    -0.185 NA
HETATM   20  C   UNL     1       4.419  32.309  62.375  1.00  0.00     0.149 A 
ENDBRANCH  13  14
ENDBRANCH   9  13
ENDBRANCH   1   7
BRANCH   3  21
HETATM   21  C   UNL     1       7.736  25.637  56.702  1.00  0.00     0.206 C 
BRANCH  21  22
HETATM   22  O   UNL     1       7.520  25.461  55.304  1.00  0.00    -0.381 OA
BRANCH  22  23
HETATM   23  C   UNL     1       6.612  24.396  55.002  1.00  0.00     0.121 C 
HETATM   24  C   UNL     1       6.247  24.414  53.512  1.00  0.00     0.032 C 
HETATM   25  C   UNL     1       7.450  24.112  52.617  1.00  0.00     0.002 C 
HETATM   26  C   UNL     1       8.124  22.799  53.002  1.00  0.00     0.000 C 
HETATM   27  C   UNL     1       8.502  22.774  54.480  1.00  0.00     0.002 C 
HETATM   28  C   UNL     1       7.299  23.077  55.373  1.00  0.00     0.032 C 
ENDBRANCH  22  23
ENDBRANCH  21  22
ENDBRANCH   3  21
TORSDOF 6
ENDMDL
MODEL 10
REMARK VINA RESULT:      -8.1      4.281      8.044
REMARK  6 active torsions:
REMARK  status: ('A' for Active; 'I' for Inactive)
REMARK    1  A    between atoms: C_7  and  C_8 
REMARK    2  A    between atoms: C_8  and  N_9 
REMARK       I    between atoms: N_9  and  C_10 
REMARK       I    between atoms: C_10  and  N_11 
REMARK    3  A    between atoms: N_11  and  C_12 
REMARK    4  A    between atoms: C_14  and  C_15 
REMARK    5  A    between atoms: C_15  and  O_16 
REMARK    6  A    between atoms: O_16  and  C_17 
ROOT
HETATM    1  C   UNL     1       7.699  31.247  61.488  1.00  0.00     0.036 A 
HETATM    2  C   UNL     1       7.867  30.834  60.162  1.00  0.00     0.038 A 
HETATM    3  C   UNL     1       9.052  31.128  59.461  1.00  0.00    -0.032 A 
HETATM    4  C   UNL     1      10.076  31.830  60.110  1.00  0.00     0.009 A 
HETATM    5  C   UNL     1       9.931  32.217  61.439  1.00  0.00     0.003 A 
HETATM    6  C   UNL     1       8.751  31.923  62.121  1.00  0.00     0.029 A 
ENDROOT
BRANCH   1   7
HETATM    7  N   UNL     1       6.561  30.998  62.275  1.00  0.00    -0.309 N 
HETATM    8  C   UNL     1       5.650  31.789  62.897  1.00  0.00     0.320 C 
HETATM    9  N   UNL     1       5.920  33.112  63.024  1.00  0.00    -0.339 N 
HETATM   10  O   UNL     1       4.635  31.270  63.361  1.00  0.00    -0.247 OA
HETATM   11  H   UNL     1       6.899  33.328  63.127  1.00  0.00     0.164 HD
HETATM   12  H   UNL     1       6.312  30.023  62.395  1.00  0.00     0.170 HD
BRANCH   9  13
HETATM   13  C   UNL     1       5.009  33.946  63.770  1.00  0.00     0.166 C 
BRANCH  13  14
HETATM   14  C   UNL     1       5.541  34.144  65.141  1.00  0.00     0.003 A 
HETATM   15  C   UNL     1       4.893  34.664  66.254  1.00  0.00     0.035 A 
HETATM   16  C   UNL     1       3.520  35.209  66.404  1.00  0.00     0.070 C 
HETATM   17  N   UNL     1       5.787  34.555  67.290  1.00  0.00    -0.278 N 
HETATM   18  C   UNL     1       5.586  34.871  68.684  1.00  0.00     0.179 C 
HETATM   19  N   UNL     1       6.980  34.060  66.913  1.00  0.00    -0.185 NA
HETATM   20  C   UNL     1       6.823  33.795  65.617  1.00  0.00     0.149 A 
ENDBRANCH  13  14
ENDBRANCH   9  13
ENDBRANCH   1   7
BRANCH   3  21
HETATM   21  C   UNL     1       9.217  30.727  58.016  1.00  0.00     0.206 C 
BRANCH  21  22
HETATM   22  O   UNL     1       8.593  29.462  57.807  1.00  0.00    -0.381 OA
BRANCH  22  23
HETATM   23  C   UNL     1       8.035  29.317  56.497  1.00  0.00     0.121 C 
HETATM   24  C   UNL     1       7.938  27.833  56.121  1.00  0.00     0.032 C 
HETATM   25  C   UNL     1       6.951  27.074  57.008  1.00  0.00     0.002 C 
HETATM   26  C   UNL     1       5.574  27.731  57.011  1.00  0.00     0.000 C 
HETATM   27  C   UNL     1       5.657  29.206  57.394  1.00  0.00     0.002 C 
HETATM   28  C   UNL     1       6.645  29.963  56.507  1.00  0.00     0.032 C 
ENDBRANCH  22  23
ENDBRANCH  21  22
ENDBRANCH   3  21
TORSDOF 6
ENDMDL
