MODEL 1
REMARK VINA RESULT:      -9.6      0.000      0.000
REMARK  3 active torsions:
REMARK  status: ('A' for Active; 'I' for Inactive)
REMARK    1  A    between atoms: C_9  and  C_10 
REMARK    2  A    between atoms: C_10  and  C_11 
REMARK       I    between atoms: C_11  and  N_12 
REMARK    3  A    between atoms: N_12  and  C_13 
ROOT
HETATM    1  C   UNL     1       6.620  25.216  56.770  1.00  0.00     0.165 C 
ENDROOT
BRANCH   1   2
HETATM    2  C   UNL     1       6.954  25.001  55.303  1.00  0.00     0.074 A 
HETATM    3  C   UNL     1       7.341  23.641  54.829  1.00  0.00     0.006 A 
HETATM    4  C   UNL     1       7.460  22.526  55.669  1.00  0.00     0.014 A 
HETATM    5  C   UNL     1       7.614  23.494  53.469  1.00  0.00     0.046 A 
HETATM    6  C   UNL     1       7.818  21.281  55.141  1.00  0.00     0.001 A 
HETATM    7  C   UNL     1       8.069  21.140  53.777  1.00  0.00     0.001 A 
HETATM    8  C   UNL     1       7.972  22.248  52.938  1.00  0.00     0.018 A 
HETATM    9  C   UNL     1       7.552  24.672  52.592  1.00  0.00     0.272 A 
HETATM   10  O   UNL     1       7.777  24.593  51.391  1.00  0.00    -0.266 OA
HETATM   11  N   UNL     1       7.243  25.863  53.202  1.00  0.00    -0.243 N 
HETATM   12  N   UNL     1       6.948  26.038  54.516  1.00  0.00    -0.175 NA
HETATM   13  H   UNL     1       7.214  26.683  52.603  1.00  0.00     0.192 HD
ENDBRANCH   1   2
BRANCH   1  14
HETATM   14  C   UNL     1       7.406  26.250  57.558  1.00  0.00     0.227 C 
HETATM   15  N   UNL     1       7.431  27.516  57.015  1.00  0.00    -0.327 N 
HETATM   16  H   UNL     1       6.786  27.669  56.239  1.00  0.00     0.169 HD
HETATM   17  O   UNL     1       8.019  25.894  58.563  1.00  0.00    -0.273 OA
BRANCH  15  18
HETATM   18  C   UNL     1       8.153  28.640  57.463  1.00  0.00     0.036 A 
HETATM   19  C   UNL     1       7.650  29.589  58.358  1.00  0.00     0.056 A 
HETATM   20  C   UNL     1       8.445  30.667  58.759  1.00  0.00     0.074 A 
HETATM   21 CL   UNL     1       7.811  31.823  59.868  1.00  0.00    -0.081 Cl
HETATM   22  C   UNL     1       9.741  30.800  58.268  1.00  0.00     0.138 A 
HETATM   23  F   UNL     1      10.518  31.827  58.643  1.00  0.00    -0.204 F 
HETATM   24  C   UNL     1      10.254  29.864  57.379  1.00  0.00     0.046 A 
HETATM   25  C   UNL     1       9.463  28.784  56.979  1.00  0.00     0.032 A 
ENDBRANCH  15  18
ENDBRANCH   1  14
TORSDOF 3
ENDMDL
MODEL 2
REMARK VINA RESULT:      -9.5      5.587      7.513
REMARK  3 active torsions:
REMARK  status: ('A' for Active; 'I' for Inactive)
REMARK    1  A    between atoms: C_9  and  C_10 
REMARK    2  A    between atoms: C_10  and  C_11 
REMARK       I    between atoms: C_11  and  N_12 
REMARK    3  A    between atoms: N_12  and  C_13 
ROOT
HETATM    1  C   UNL     1       7.504  25.009  52.156  1.00  0.00     0.165 C 
ENDROOT
BRANCH   1   2
HETATM    2  C   UNL     1       7.706  24.510  53.578  1.00  0.00     0.074 A 
HETATM    3  C   UNL     1       7.879  23.050  53.826  1.00  0.00     0.006 A 
HETATM    4  C   UNL     1       7.827  22.075  52.821  1.00  0.00     0.014 A 
HETATM    5  C   UNL     1       8.085  22.647  55.146  1.00  0.00     0.046 A 
HETATM    6  C   UNL     1       8.010  20.725  53.138  1.00  0.00     0.001 A 
HETATM    7  C   UNL     1       8.236  20.336  54.458  1.00  0.00     0.001 A 
HETATM    8  C   UNL     1       8.269  21.296  55.466  1.00  0.00     0.018 A 
HETATM    9  C   UNL     1       8.078  23.658  56.214  1.00  0.00     0.272 A 
HETATM   10  O   UNL     1       8.260  23.356  57.387  1.00  0.00    -0.266 OA
HETATM   11  N   UNL     1       7.840  24.951  55.820  1.00  0.00    -0.243 N 
HETATM   12  N   UNL     1       7.661  25.381  54.545  1.00  0.00    -0.175 NA
HETATM   13  H   UNL     1       7.819  25.651  56.556  1.00  0.00     0.192 HD
ENDBRANCH   1   2
BRANCH   1  14
HETATM   14  C   UNL     1       6.101  25.365  51.696  1.00  0.00     0.227 C 
HETATM   15  N   UNL     1       6.028  26.245  50.639  1.00  0.00    -0.327 N 
HETATM   16  H   UNL     1       6.914  26.434  50.169  1.00  0.00     0.169 HD
HETATM   17  O   UNL     1       5.138  24.922  52.321  1.00  0.00    -0.273 OA
BRANCH  15  18
HETATM   18  C   UNL     1       4.878  26.828  50.070  1.00  0.00     0.036 A 
HETATM   19  C   UNL     1       4.210  26.315  48.955  1.00  0.00     0.056 A 
HETATM   20  C   UNL     1       3.066  26.953  48.466  1.00  0.00     0.074 A 
HETATM   21 CL   UNL     1       2.250  26.301  47.095  1.00  0.00    -0.081 Cl
HETATM   22  C   UNL     1       2.588  28.103  49.088  1.00  0.00     0.138 A 
HETATM   23  F   UNL     1       1.492  28.727  48.634  1.00  0.00    -0.204 F 
HETATM   24  C   UNL     1       3.242  28.625  50.198  1.00  0.00     0.046 A 
HETATM   25  C   UNL     1       4.383  27.987  50.689  1.00  0.00     0.032 A 
ENDBRANCH  15  18
ENDBRANCH   1  14
TORSDOF 3
ENDMDL
MODEL 3
REMARK VINA RESULT:      -9.2      2.094      2.752
REMARK  3 active torsions:
REMARK  status: ('A' for Active; 'I' for Inactive)
REMARK    1  A    between atoms: C_9  and  C_10 
REMARK    2  A    between atoms: C_10  and  C_11 
REMARK       I    between atoms: C_11  and  N_12 
REMARK    3  A    between atoms: N_12  and  C_13 
ROOT
HETATM    1  C   UNL     1       7.099  27.263  55.007  1.00  0.00     0.165 C 
ENDROOT
BRANCH   1   2
HETATM    2  C   UNL     1       7.436  25.913  55.617  1.00  0.00     0.074 A 
HETATM    3  C   UNL     1       7.648  24.735  54.727  1.00  0.00     0.006 A 
HETATM    4  C   UNL     1       7.516  24.777  53.333  1.00  0.00     0.014 A 
HETATM    5  C   UNL     1       7.979  23.526  55.337  1.00  0.00     0.046 A 
HETATM    6  C   UNL     1       7.743  23.627  52.569  1.00  0.00     0.001 A 
HETATM    7  C   UNL     1       8.094  22.428  53.188  1.00  0.00     0.001 A 
HETATM    8  C   UNL     1       8.208  22.374  54.574  1.00  0.00     0.018 A 
HETATM    9  C   UNL     1       8.058  23.460  56.804  1.00  0.00     0.272 A 
HETATM   10  O   UNL     1       8.351  22.422  57.387  1.00  0.00    -0.266 OA
HETATM   11  N   UNL     1       7.770  24.620  57.478  1.00  0.00    -0.243 N 
HETATM   12  N   UNL     1       7.469  25.820  56.916  1.00  0.00    -0.175 NA
HETATM   13  H   UNL     1       7.808  24.576  58.492  1.00  0.00     0.192 HD
ENDBRANCH   1   2
BRANCH   1  14
HETATM   14  C   UNL     1       7.293  28.516  55.844  1.00  0.00     0.227 C 
HETATM   15  N   UNL     1       8.430  28.540  56.621  1.00  0.00    -0.327 N 
HETATM   16  H   UNL     1       9.103  27.798  56.429  1.00  0.00     0.169 HD
HETATM   17  O   UNL     1       6.415  29.378  55.839  1.00  0.00    -0.273 OA
BRANCH  15  18
HETATM   18  C   UNL     1       8.818  29.513  57.564  1.00  0.00     0.036 A 
HETATM   19  C   UNL     1       8.141  29.755  58.764  1.00  0.00     0.056 A 
HETATM   20  C   UNL     1       8.608  30.732  59.648  1.00  0.00     0.074 A 
HETATM   21 CL   UNL     1       7.765  31.011  61.125  1.00  0.00    -0.081 Cl
HETATM   22  C   UNL     1       9.748  31.468  59.338  1.00  0.00     0.138 A 
HETATM   23  F   UNL     1      10.210  32.408  60.175  1.00  0.00    -0.204 F 
HETATM   24  C   UNL     1      10.431  31.237  58.150  1.00  0.00     0.046 A 
HETATM   25  C   UNL     1       9.969  30.260  57.266  1.00  0.00     0.032 A 
ENDBRANCH  15  18
ENDBRANCH   1  14
TORSDOF 3
ENDMDL
MODEL 4
REMARK VINA RESULT:      -9.0      6.111     10.353
REMARK  3 active torsions:
REMARK  status: ('A' for Active; 'I' for Inactive)
REMARK    1  A    between atoms: C_9  and  C_10 
REMARK    2  A    between atoms: C_10  and  C_11 
REMARK       I    between atoms: C_11  and  N_12 
REMARK    3  A    between atoms: N_12  and  C_13 
ROOT
HETATM    1  C   UNL     1       8.570  32.003  62.683  1.00  0.00     0.165 C 
ENDROOT
BRANCH   1   2
HETATM    2  C   UNL     1       7.077  32.278  62.746  1.00  0.00     0.074 A 
HETATM    3  C   UNL     1       6.506  32.963  63.942  1.00  0.00     0.006 A 
HETATM    4  C   UNL     1       7.262  33.345  65.058  1.00  0.00     0.014 A 
HETATM    5  C   UNL     1       5.134  33.212  63.939  1.00  0.00     0.046 A 
HETATM    6  C   UNL     1       6.649  33.993  66.136  1.00  0.00     0.001 A 
HETATM    7  C   UNL     1       5.280  34.256  66.114  1.00  0.00     0.001 A 
HETATM    8  C   UNL     1       4.518  33.862  65.017  1.00  0.00     0.018 A 
HETATM    9  C   UNL     1       4.324  32.759  62.799  1.00  0.00     0.272 A 
HETATM   10  O   UNL     1       3.116  32.960  62.746  1.00  0.00    -0.266 OA
HETATM   11  N   UNL     1       4.997  32.086  61.809  1.00  0.00    -0.243 N 
HETATM   12  N   UNL     1       6.333  31.848  61.768  1.00  0.00    -0.175 NA
HETATM   13  H   UNL     1       4.439  31.757  61.026  1.00  0.00     0.192 HD
ENDBRANCH   1   2
BRANCH   1  14
HETATM   14  C   UNL     1       9.103  31.094  61.588  1.00  0.00     0.227 C 
HETATM   15  N   UNL     1       8.905  31.538  60.299  1.00  0.00    -0.327 N 
HETATM   16  H   UNL     1       8.577  32.501  60.217  1.00  0.00     0.169 HD
HETATM   17  O   UNL     1       9.597  30.012  61.900  1.00  0.00    -0.273 OA
BRANCH  15  18
HETATM   18  C   UNL     1       9.196  30.868  59.094  1.00  0.00     0.036 A 
HETATM   19  C   UNL     1       8.444  29.804  58.587  1.00  0.00     0.056 A 
HETATM   20  C   UNL     1       8.799  29.208  57.374  1.00  0.00     0.074 A 
HETATM   21 CL   UNL     1       7.855  27.903  56.761  1.00  0.00    -0.081 Cl
HETATM   22  C   UNL     1       9.904  29.671  56.666  1.00  0.00     0.138 A 
HETATM   23  F   UNL     1      10.259  29.111  55.500  1.00  0.00    -0.204 F 
HETATM   24  C   UNL     1      10.661  30.727  57.157  1.00  0.00     0.046 A 
HETATM   25  C   UNL     1      10.306  31.327  58.367  1.00  0.00     0.032 A 
ENDBRANCH  15  18
ENDBRANCH   1  14
TORSDOF 3
ENDMDL
MODEL 5
REMARK VINA RESULT:      -8.9      3.974      7.773
REMARK  3 active torsions:
REMARK  status: ('A' for Active; 'I' for Inactive)
REMARK    1  A    between atoms: C_9  and  C_10 
REMARK    2  A    between atoms: C_10  and  C_11 
REMARK       I    between atoms: C_11  and  N_12 
REMARK    3  A    between atoms: N_12  and  C_13 
ROOT
HETATM    1  C   UNL     1       6.573  28.365  55.095  1.00  0.00     0.165 C 
ENDROOT
BRANCH   1   2
HETATM    2  C   UNL     1       6.818  29.175  56.358  1.00  0.00     0.074 A 
HETATM    3  C   UNL     1       8.211  29.568  56.720  1.00  0.00     0.006 A 
HETATM    4  C   UNL     1       9.343  29.200  55.980  1.00  0.00     0.014 A 
HETATM    5  C   UNL     1       8.378  30.330  57.876  1.00  0.00     0.046 A 
HETATM    6  C   UNL     1      10.615  29.620  56.384  1.00  0.00     0.001 A 
HETATM    7  C   UNL     1      10.769  30.400  57.530  1.00  0.00     0.001 A 
HETATM    8  C   UNL     1       9.651  30.753  58.281  1.00  0.00     0.018 A 
HETATM    9  C   UNL     1       7.201  30.667  58.690  1.00  0.00     0.272 A 
HETATM   10  O   UNL     1       7.295  31.339  59.710  1.00  0.00    -0.266 OA
HETATM   11  N   UNL     1       5.999  30.172  58.249  1.00  0.00    -0.243 N 
HETATM   12  N   UNL     1       5.797  29.448  57.118  1.00  0.00    -0.175 NA
HETATM   13  H   UNL     1       5.185  30.388  58.817  1.00  0.00     0.192 HD
ENDBRANCH   1   2
BRANCH   1  14
HETATM   14  C   UNL     1       6.494  26.852  55.198  1.00  0.00     0.227 C 
HETATM   15  N   UNL     1       7.519  26.162  54.589  1.00  0.00    -0.327 N 
HETATM   16  H   UNL     1       8.306  26.734  54.282  1.00  0.00     0.169 HD
HETATM   17  O   UNL     1       5.512  26.341  55.735  1.00  0.00    -0.273 OA
BRANCH  15  18
HETATM   18  C   UNL     1       7.658  24.767  54.435  1.00  0.00     0.036 A 
HETATM   19  C   UNL     1       7.868  23.879  55.494  1.00  0.00     0.056 A 
HETATM   20  C   UNL     1       7.980  22.508  55.248  1.00  0.00     0.074 A 
HETATM   21 CL   UNL     1       8.231  21.427  56.566  1.00  0.00    -0.081 Cl
HETATM   22  C   UNL     1       7.883  22.021  53.947  1.00  0.00     0.138 A 
HETATM   23  F   UNL     1       7.987  20.708  53.693  1.00  0.00    -0.204 F 
HETATM   24  C   UNL     1       7.674  22.892  52.885  1.00  0.00     0.046 A 
HETATM   25  C   UNL     1       7.558  24.262  53.129  1.00  0.00     0.032 A 
ENDBRANCH  15  18
ENDBRANCH   1  14
TORSDOF 3
ENDMDL
MODEL 6
REMARK VINA RESULT:      -8.8      4.917      7.003
REMARK  3 active torsions:
REMARK  status: ('A' for Active; 'I' for Inactive)
REMARK    1  A    between atoms: C_9  and  C_10 
REMARK    2  A    between atoms: C_10  and  C_11 
REMARK       I    between atoms: C_11  and  N_12 
REMARK    3  A    between atoms: N_12  and  C_13 
ROOT
HETATM    1  C   UNL     1       5.297  24.816  53.166  1.00  0.00     0.165 C 
ENDROOT
BRANCH   1   2
HETATM    2  C   UNL     1       6.246  24.563  54.327  1.00  0.00     0.074 A 
HETATM    3  C   UNL     1       7.229  23.445  54.242  1.00  0.00     0.006 A 
HETATM    4  C   UNL     1       7.315  22.562  53.158  1.00  0.00     0.014 A 
HETATM    5  C   UNL     1       8.092  23.272  55.324  1.00  0.00     0.046 A 
HETATM    6  C   UNL     1       8.275  21.543  53.153  1.00  0.00     0.001 A 
HETATM    7  C   UNL     1       9.147  21.392  54.231  1.00  0.00     0.001 A 
HETATM    8  C   UNL     1       9.054  22.254  55.321  1.00  0.00     0.018 A 
HETATM    9  C   UNL     1       7.966  24.155  56.492  1.00  0.00     0.272 A 
HETATM   10  O   UNL     1       8.704  24.047  57.464  1.00  0.00    -0.266 OA
HETATM   11  N   UNL     1       6.965  25.093  56.435  1.00  0.00    -0.243 N 
HETATM   12  N   UNL     1       6.124  25.306  55.390  1.00  0.00    -0.175 NA
HETATM   13  H   UNL     1       6.863  25.696  57.246  1.00  0.00     0.192 HD
ENDBRANCH   1   2
BRANCH   1  14
HETATM   14  C   UNL     1       5.742  25.736  52.043  1.00  0.00     0.227 C 
HETATM   15  N   UNL     1       4.729  26.372  51.360  1.00  0.00    -0.327 N 
HETATM   16  H   UNL     1       3.803  26.292  51.783  1.00  0.00     0.169 HD
HETATM   17  O   UNL     1       6.938  25.802  51.764  1.00  0.00    -0.273 OA
BRANCH  15  18
HETATM   18  C   UNL     1       4.830  27.194  50.219  1.00  0.00     0.036 A 
HETATM   19  C   UNL     1       5.166  28.551  50.259  1.00  0.00     0.056 A 
HETATM   20  C   UNL     1       5.257  29.287  49.074  1.00  0.00     0.074 A 
HETATM   21 CL   UNL     1       5.681  30.956  49.142  1.00  0.00    -0.081 Cl
HETATM   22  C   UNL     1       5.013  28.671  47.850  1.00  0.00     0.138 A 
HETATM   23  F   UNL     1       5.097  29.362  46.703  1.00  0.00    -0.204 F 
HETATM   24  C   UNL     1       4.678  27.324  47.795  1.00  0.00     0.046 A 
HETATM   25  C   UNL     1       4.590  26.586  48.977  1.00  0.00     0.032 A 
ENDBRANCH  15  18
ENDBRANCH   1  14
TORSDOF 3
ENDMDL
MODEL 7
REMARK VINA RESULT:      -8.6      5.349      6.598
REMARK  3 active torsions:
REMARK  status: ('A' for Active; 'I' for Inactive)
REMARK    1  A    between atoms: C_9  and  C_10 
REMARK    2  A    between atoms: C_10  and  C_11 
REMARK       I    between atoms: C_11  and  N_12 
REMARK    3  A    between atoms: N_12  and  C_13 
ROOT
HETATM    1  C   UNL     1       7.041  25.025  54.658  1.00  0.00     0.165 C 
ENDROOT
BRANCH   1   2
HETATM    2  C   UNL     1       7.421  23.622  54.214  1.00  0.00     0.074 A 
HETATM    3  C   UNL     1       7.847  22.619  55.231  1.00  0.00     0.006 A 
HETATM    4  C   UNL     1       7.964  22.896  56.600  1.00  0.00     0.014 A 
HETATM    5  C   UNL     1       8.162  21.340  54.773  1.00  0.00     0.046 A 
HETATM    6  C   UNL     1       8.361  21.893  57.491  1.00  0.00     0.001 A 
HETATM    7  C   UNL     1       8.653  20.612  57.024  1.00  0.00     0.001 A 
HETATM    8  C   UNL     1       8.558  20.334  55.663  1.00  0.00     0.018 A 
HETATM    9  C   UNL     1       8.102  21.059  53.331  1.00  0.00     0.272 A 
HETATM   10  O   UNL     1       8.363  19.950  52.879  1.00  0.00    -0.266 OA
HETATM   11  N   UNL     1       7.753  22.114  52.524  1.00  0.00    -0.243 N 
HETATM   12  N   UNL     1       7.417  23.363  52.937  1.00  0.00    -0.175 NA
HETATM   13  H   UNL     1       7.725  21.929  51.526  1.00  0.00     0.192 HD
ENDBRANCH   1   2
BRANCH   1  14
HETATM   14  C   UNL     1       6.709  26.065  53.602  1.00  0.00     0.227 C 
HETATM   15  N   UNL     1       5.529  25.864  52.922  1.00  0.00    -0.327 N 
HETATM   16  H   UNL     1       4.922  25.141  53.309  1.00  0.00     0.169 HD
HETATM   17  O   UNL     1       7.523  26.957  53.367  1.00  0.00    -0.273 OA
BRANCH  15  18
HETATM   18  C   UNL     1       5.016  26.597  51.832  1.00  0.00     0.036 A 
HETATM   19  C   UNL     1       5.062  26.161  50.504  1.00  0.00     0.056 A 
HETATM   20  C   UNL     1       4.515  26.950  49.487  1.00  0.00     0.074 A 
HETATM   21 CL   UNL     1       4.574  26.393  47.858  1.00  0.00    -0.081 Cl
HETATM   22  C   UNL     1       3.923  28.172  49.793  1.00  0.00     0.138 A 
HETATM   23  F   UNL     1       3.393  28.941  48.831  1.00  0.00    -0.204 F 
HETATM   24  C   UNL     1       3.870  28.617  51.108  1.00  0.00     0.046 A 
HETATM   25  C   UNL     1       4.413  27.830  52.126  1.00  0.00     0.032 A 
ENDBRANCH  15  18
ENDBRANCH   1  14
TORSDOF 3
ENDMDL
MODEL 8
REMARK VINA RESULT:      -8.5      5.675      7.920
REMARK  3 active torsions:
REMARK  status: ('A' for Active; 'I' for Inactive)
REMARK    1  A    between atoms: C_9  and  C_10 
REMARK    2  A    between atoms: C_10  and  C_11 
REMARK       I    between atoms: C_11  and  N_12 
REMARK    3  A    between atoms: N_12  and  C_13 
ROOT
HETATM    1  C   UNL     1       7.311  25.224  52.024  1.00  0.00     0.165 C 
ENDROOT
BRANCH   1   2
HETATM    2  C   UNL     1       7.499  24.207  53.138  1.00  0.00     0.074 A 
HETATM    3  C   UNL     1       7.569  24.671  54.553  1.00  0.00     0.006 A 
HETATM    4  C   UNL     1       7.513  26.018  54.937  1.00  0.00     0.014 A 
HETATM    5  C   UNL     1       7.718  23.695  55.538  1.00  0.00     0.046 A 
HETATM    6  C   UNL     1       7.575  26.368  56.290  1.00  0.00     0.001 A 
HETATM    7  C   UNL     1       7.703  25.383  57.268  1.00  0.00     0.001 A 
HETATM    8  C   UNL     1       7.779  24.044  56.893  1.00  0.00     0.018 A 
HETATM    9  C   UNL     1       7.840  22.285  55.139  1.00  0.00     0.272 A 
HETATM   10  O   UNL     1       7.967  21.390  55.966  1.00  0.00    -0.266 OA
HETATM   11  N   UNL     1       7.821  22.036  53.789  1.00  0.00    -0.243 N 
HETATM   12  N   UNL     1       7.653  22.957  52.806  1.00  0.00    -0.175 NA
HETATM   13  H   UNL     1       7.921  21.065  53.507  1.00  0.00     0.192 HD
ENDBRANCH   1   2
BRANCH   1  14
HETATM   14  C   UNL     1       5.906  25.510  51.522  1.00  0.00     0.227 C 
HETATM   15  N   UNL     1       5.820  26.407  50.480  1.00  0.00    -0.327 N 
HETATM   16  H   UNL     1       6.709  26.656  50.046  1.00  0.00     0.169 HD
HETATM   17  O   UNL     1       4.950  24.999  52.103  1.00  0.00    -0.273 OA
BRANCH  15  18
HETATM   18  C   UNL     1       4.658  26.937  49.882  1.00  0.00     0.036 A 
HETATM   19  C   UNL     1       4.035  26.386  48.759  1.00  0.00     0.056 A 
HETATM   20  C   UNL     1       2.876  26.971  48.241  1.00  0.00     0.074 A 
HETATM   21 CL   UNL     1       2.117  26.273  46.860  1.00  0.00    -0.081 Cl
HETATM   22  C   UNL     1       2.338  28.106  48.842  1.00  0.00     0.138 A 
HETATM   23  F   UNL     1       1.226  28.680  48.359  1.00  0.00    -0.204 F 
HETATM   24  C   UNL     1       2.947  28.664  49.959  1.00  0.00     0.046 A 
HETATM   25  C   UNL     1       4.103  28.079  50.480  1.00  0.00     0.032 A 
ENDBRANCH  15  18
ENDBRANCH   1  14
TORSDOF 3
ENDMDL
MODEL 9
REMARK VINA RESULT:      -8.5      4.293      7.729
REMARK  3 active torsions:
REMARK  status: ('A' for Active; 'I' for Inactive)
REMARK    1  A    between atoms: C_9  and  C_10 
REMARK    2  A    between atoms: C_10  and  C_11 
REMARK       I    between atoms: C_11  and  N_12 
REMARK    3  A    between atoms: N_12  and  C_13 
ROOT
HETATM    1  C   UNL     1       6.278  27.222  54.280  1.00  0.00     0.165 C 
ENDROOT
BRANCH   1   2
HETATM    2  C   UNL     1       5.796  28.143  55.390  1.00  0.00     0.074 A 
HETATM    3  C   UNL     1       6.781  28.708  56.356  1.00  0.00     0.006 A 
HETATM    4  C   UNL     1       8.151  28.411  56.338  1.00  0.00     0.014 A 
HETATM    5  C   UNL     1       6.290  29.566  57.340  1.00  0.00     0.046 A 
HETATM    6  C   UNL     1       9.010  28.994  57.276  1.00  0.00     0.001 A 
HETATM    7  C   UNL     1       8.511  29.866  58.242  1.00  0.00     0.001 A 
HETATM    8  C   UNL     1       7.149  30.151  58.279  1.00  0.00     0.018 A 
HETATM    9  C   UNL     1       4.845  29.833  57.403  1.00  0.00     0.272 A 
HETATM   10  O   UNL     1       4.366  30.583  58.244  1.00  0.00    -0.266 OA
HETATM   11  N   UNL     1       4.069  29.180  56.477  1.00  0.00    -0.243 N 
HETATM   12  N   UNL     1       4.516  28.359  55.492  1.00  0.00    -0.175 NA
HETATM   13  H   UNL     1       3.069  29.349  56.527  1.00  0.00     0.192 HD
ENDBRANCH   1   2
BRANCH   1  14
HETATM   14  C   UNL     1       6.306  25.724  54.530  1.00  0.00     0.227 C 
HETATM   15  N   UNL     1       7.503  25.099  54.259  1.00  0.00    -0.327 N 
HETATM   16  H   UNL     1       8.289  25.725  54.082  1.00  0.00     0.169 HD
HETATM   17  O   UNL     1       5.270  25.159  54.877  1.00  0.00    -0.273 OA
BRANCH  15  18
HETATM   18  C   UNL     1       7.793  23.720  54.298  1.00  0.00     0.036 A 
HETATM   19  C   UNL     1       8.039  23.005  55.474  1.00  0.00     0.056 A 
HETATM   20  C   UNL     1       8.305  21.633  55.418  1.00  0.00     0.074 A 
HETATM   21 CL   UNL     1       8.599  20.766  56.878  1.00  0.00    -0.081 Cl
HETATM   22  C   UNL     1       8.326  20.975  54.192  1.00  0.00     0.138 A 
HETATM   23  F   UNL     1       8.578  19.660  54.120  1.00  0.00    -0.204 F 
HETATM   24  C   UNL     1       8.082  21.673  53.016  1.00  0.00     0.046 A 
HETATM   25  C   UNL     1       7.813  23.043  53.069  1.00  0.00     0.032 A 
ENDBRANCH  15  18
ENDBRANCH   1  14
TORSDOF 3
ENDMDL
MODEL 10
REMARK VINA RESULT:      -8.3      4.247      8.576
REMARK  3 active torsions:
REMARK  status: ('A' for Active; 'I' for Inactive)
REMARK    1  A    between atoms: C_9  and  C_10 
REMARK    2  A    between atoms: C_10  and  C_11 
REMARK       I    between atoms: C_11  and  N_12 
REMARK    3  A    between atoms: N_12  and  C_13 
ROOT
HETATM    1  C   UNL     1       8.622  29.290  57.933  1.00  0.00     0.165 C 
ENDROOT
BRANCH   1   2
HETATM    2  C   UNL     1       7.731  30.386  58.493  1.00  0.00     0.074 A 
HETATM    3  C   UNL     1       8.042  30.975  59.827  1.00  0.00     0.006 A 
HETATM    4  C   UNL     1       9.101  30.552  60.641  1.00  0.00     0.014 A 
HETATM    5  C   UNL     1       7.206  31.994  60.285  1.00  0.00     0.046 A 
HETATM    6  C   UNL     1       9.330  31.166  61.877  1.00  0.00     0.001 A 
HETATM    7  C   UNL     1       8.501  32.198  62.314  1.00  0.00     0.001 A 
HETATM    8  C   UNL     1       7.434  32.611  61.521  1.00  0.00     0.018 A 
HETATM    9  C   UNL     1       6.056  32.401  59.465  1.00  0.00     0.272 A 
HETATM   10  O   UNL     1       5.296  33.295  59.819  1.00  0.00    -0.266 OA
HETATM   11  N   UNL     1       5.875  31.711  58.292  1.00  0.00    -0.243 N 
HETATM   12  N   UNL     1       6.681  30.733  57.805  1.00  0.00    -0.175 NA
HETATM   13  H   UNL     1       5.073  31.978  57.729  1.00  0.00     0.192 HD
ENDBRANCH   1   2
BRANCH   1  14
HETATM   14  C   UNL     1       7.976  28.043  57.354  1.00  0.00     0.227 C 
HETATM   15  N   UNL     1       7.640  28.113  56.020  1.00  0.00    -0.327 N 
HETATM   16  H   UNL     1       8.010  28.922  55.521  1.00  0.00     0.169 HD
HETATM   17  O   UNL     1       7.727  27.099  58.102  1.00  0.00    -0.273 OA
BRANCH  15  18
HETATM   18  C   UNL     1       6.945  27.161  55.247  1.00  0.00     0.036 A 
HETATM   19  C   UNL     1       7.370  25.842  55.059  1.00  0.00     0.056 A 
HETATM   20  C   UNL     1       6.608  24.962  54.286  1.00  0.00     0.074 A 
HETATM   21 CL   UNL     1       7.143  23.338  54.073  1.00  0.00    -0.081 Cl
HETATM   22  C   UNL     1       5.422  25.396  53.698  1.00  0.00     0.138 A 
HETATM   23  F   UNL     1       4.678  24.565  52.954  1.00  0.00    -0.204 F 
HETATM   24  C   UNL     1       4.988  26.704  53.876  1.00  0.00     0.046 A 
HETATM   25  C   UNL     1       5.746  27.584  54.651  1.00  0.00     0.032 A 
ENDBRANCH  15  18
ENDBRANCH   1  14
TORSDOF 3
ENDMDL
