MODEL 1
REMARK VINA RESULT:      -9.8      0.000      0.000
REMARK  7 active torsions:
REMARK  status: ('A' for Active; 'I' for Inactive)
REMARK    1  A    between atoms: C_4  and  C_5 
REMARK    2  A    between atoms: C_8  and  C_9 
REMARK    3  A    between atoms: C_9  and  C_10 
REMARK       I    between atoms: C_10  and  N_11 
REMARK    4  A    between atoms: N_11  and  N_12 
REMARK       I    between atoms: N_12  and  C_13 
REMARK    5  A    between atoms: C_13  and  C_14 
REMARK    6  A    between atoms: C_14  and  C_15 
REMARK    7  A    between atoms: C_16  and  O_17 
ROOT
HETATM    1  C   UNL     1       6.008  28.294  57.399  1.00  0.00     0.241 C 
HETATM    2  N   UNL     1       5.279  29.437  57.659  1.00  0.00    -0.267 N 
HETATM    3  O   UNL     1       7.186  28.176  57.743  1.00  0.00    -0.271 OA
HETATM    4  H   UNL     1       4.408  29.657  57.172  1.00  0.00     0.190 HD
ENDROOT
BRANCH   1   5
HETATM    5  C   UNL     1       5.245  27.206  56.674  1.00  0.00     0.164 C 
BRANCH   5   6
HETATM    6  C   UNL     1       6.018  26.602  55.547  1.00  0.00     0.051 A 
HETATM    7  C   UNL     1       6.628  27.245  54.487  1.00  0.00     0.079 A 
HETATM    8  S   UNL     1       7.417  26.114  53.477  1.00  0.00    -0.079 SA
HETATM    9  C   UNL     1       6.923  24.833  54.521  1.00  0.00     0.108 A 
HETATM   10  N   UNL     1       6.207  25.225  55.559  1.00  0.00    -0.244 NA
BRANCH   9  11
HETATM   11  C   UNL     1       7.344  23.443  54.278  1.00  0.00     0.000 A 
HETATM   12  C   UNL     1       7.483  22.571  55.373  1.00  0.00     0.021 A 
HETATM   13  C   UNL     1       7.888  21.239  55.202  1.00  0.00    -0.061 A 
HETATM   14  C   UNL     1       8.080  20.340  56.386  1.00  0.00     0.048 C 
HETATM   15  C   UNL     1       8.166  20.774  53.913  1.00  0.00     0.007 A 
HETATM   16  C   UNL     1       8.019  21.618  52.814  1.00  0.00     0.001 A 
HETATM   17  C   UNL     1       7.609  22.941  52.995  1.00  0.00     0.014 A 
ENDBRANCH   9  11
ENDBRANCH   5   6
ENDBRANCH   1   5
BRANCH   2  18
HETATM   18  N   UNL     1       5.953  30.525  58.230  1.00  0.00    -0.267 N 
HETATM   19  C   UNL     1       5.203  31.559  58.752  1.00  0.00     0.240 C 
HETATM   20  O   UNL     1       3.976  31.502  58.829  1.00  0.00    -0.272 OA
HETATM   21  H   UNL     1       6.949  30.604  58.023  1.00  0.00     0.190 HD
BRANCH  19  22
HETATM   22  C   UNL     1       6.018  32.735  59.249  1.00  0.00     0.146 C 
BRANCH  22  23
HETATM   23  C   UNL     1       6.867  32.487  60.481  1.00  0.00    -0.016 A 
HETATM   24  C   UNL     1       8.255  32.285  60.324  1.00  0.00     0.074 A 
HETATM   25  C   UNL     1       9.057  32.038  61.444  1.00  0.00     0.037 A 
HETATM   26  C   UNL     1       8.495  31.998  62.720  1.00  0.00     0.003 A 
HETATM   27  C   UNL     1       7.130  32.199  62.885  1.00  0.00     0.001 A 
HETATM   28  C   UNL     1       6.320  32.440  61.774  1.00  0.00     0.010 A 
BRANCH  24  29
HETATM   29  O   UNL     1       8.721  32.334  59.034  1.00  0.00    -0.355 OA
HETATM   30  C   UNL     1       9.613  31.302  58.627  1.00  0.00     0.210 C 
ENDBRANCH  24  29
ENDBRANCH  22  23
ENDBRANCH  19  22
ENDBRANCH   2  18
TORSDOF 7
ENDMDL
MODEL 2
REMARK VINA RESULT:      -9.7      1.359      2.270
REMARK  7 active torsions:
REMARK  status: ('A' for Active; 'I' for Inactive)
REMARK    1  A    between atoms: C_4  and  C_5 
REMARK    2  A    between atoms: C_8  and  C_9 
REMARK    3  A    between atoms: C_9  and  C_10 
REMARK       I    between atoms: C_10  and  N_11 
REMARK    4  A    between atoms: N_11  and  N_12 
REMARK       I    between atoms: N_12  and  C_13 
REMARK    5  A    between atoms: C_13  and  C_14 
REMARK    6  A    between atoms: C_14  and  C_15 
REMARK    7  A    between atoms: C_16  and  O_17 
ROOT
HETATM    1  C   UNL     1       6.791  28.300  55.303  1.00  0.00     0.241 C 
HETATM    2  N   UNL     1       6.440  28.937  56.476  1.00  0.00    -0.267 N 
HETATM    3  O   UNL     1       7.893  28.461  54.775  1.00  0.00    -0.271 OA
HETATM    4  H   UNL     1       5.471  29.021  56.788  1.00  0.00     0.190 HD
ENDROOT
BRANCH   1   5
HETATM    5  C   UNL     1       5.725  27.390  54.731  1.00  0.00     0.164 C 
BRANCH   5   6
HETATM    6  C   UNL     1       6.281  26.320  53.849  1.00  0.00     0.051 A 
HETATM    7  C   UNL     1       6.602  26.400  52.507  1.00  0.00     0.079 A 
HETATM    8  S   UNL     1       7.237  24.911  51.957  1.00  0.00    -0.079 SA
HETATM    9  C   UNL     1       7.073  24.252  53.542  1.00  0.00     0.108 A 
HETATM   10  N   UNL     1       6.568  25.090  54.429  1.00  0.00    -0.244 NA
BRANCH   9  11
HETATM   11  C   UNL     1       7.533  22.887  53.854  1.00  0.00     0.000 A 
HETATM   12  C   UNL     1       7.707  22.518  55.199  1.00  0.00     0.021 A 
HETATM   13  C   UNL     1       8.149  21.235  55.555  1.00  0.00    -0.061 A 
HETATM   14  C   UNL     1       8.377  20.876  56.993  1.00  0.00     0.048 C 
HETATM   15  C   UNL     1       8.429  20.309  54.545  1.00  0.00     0.007 A 
HETATM   16  C   UNL     1       8.249  20.652  53.207  1.00  0.00     0.001 A 
HETATM   17  C   UNL     1       7.801  21.930  52.864  1.00  0.00     0.014 A 
ENDBRANCH   9  11
ENDBRANCH   5   6
ENDBRANCH   1   5
BRANCH   2  18
HETATM   18  N   UNL     1       7.337  29.877  57.001  1.00  0.00    -0.267 N 
HETATM   19  C   UNL     1       8.108  29.511  58.086  1.00  0.00     0.240 C 
HETATM   20  O   UNL     1       8.111  28.362  58.528  1.00  0.00    -0.272 OA
HETATM   21  H   UNL     1       7.207  30.845  56.706  1.00  0.00     0.190 HD
BRANCH  19  22
HETATM   22  C   UNL     1       8.967  30.625  58.648  1.00  0.00     0.146 C 
BRANCH  22  23
HETATM   23  C   UNL     1       8.545  31.180  59.995  1.00  0.00    -0.016 A 
HETATM   24  C   UNL     1       7.501  32.128  60.046  1.00  0.00     0.074 A 
HETATM   25  C   UNL     1       7.104  32.666  61.276  1.00  0.00     0.037 A 
HETATM   26  C   UNL     1       7.730  32.266  62.457  1.00  0.00     0.003 A 
HETATM   27  C   UNL     1       8.757  31.330  62.417  1.00  0.00     0.001 A 
HETATM   28  C   UNL     1       9.164  30.791  61.195  1.00  0.00     0.010 A 
BRANCH  24  29
HETATM   29  O   UNL     1       6.948  32.470  58.838  1.00  0.00    -0.355 OA
HETATM   30  C   UNL     1       5.531  32.594  58.784  1.00  0.00     0.210 C 
ENDBRANCH  24  29
ENDBRANCH  22  23
ENDBRANCH  19  22
ENDBRANCH   2  18
TORSDOF 7
ENDMDL
MODEL 3
REMARK VINA RESULT:      -9.6      4.775      8.785
REMARK  7 active torsions:
REMARK  status: ('A' for Active; 'I' for Inactive)
REMARK    1  A    between atoms: C_4  and  C_5 
REMARK    2  A    between atoms: C_8  and  C_9 
REMARK    3  A    between atoms: C_9  and  C_10 
REMARK       I    between atoms: C_10  and  N_11 
REMARK    4  A    between atoms: N_11  and  N_12 
REMARK       I    between atoms: N_12  and  C_13 
REMARK    5  A    between atoms: C_13  and  C_14 
REMARK    6  A    between atoms: C_14  and  C_15 
REMARK    7  A    between atoms: C_16  and  O_17 
ROOT
HETATM    1  C   UNL     1       4.585  28.078  54.393  1.00  0.00     0.241 C 
HETATM    2  N   UNL     1       4.099  27.205  53.440  1.00  0.00    -0.267 N 
HETATM    3  O   UNL     1       4.953  29.219  54.108  1.00  0.00    -0.271 OA
HETATM    4  H   UNL     1       4.032  26.198  53.600  1.00  0.00     0.190 HD
ENDROOT
BRANCH   1   5
HETATM    5  C   UNL     1       4.618  27.526  55.802  1.00  0.00     0.164 C 
BRANCH   5   6
HETATM    6  C   UNL     1       5.769  26.605  56.044  1.00  0.00     0.051 A 
HETATM    7  C   UNL     1       6.712  26.663  57.052  1.00  0.00     0.079 A 
HETATM    8  S   UNL     1       7.810  25.358  56.917  1.00  0.00    -0.079 SA
HETATM    9  C   UNL     1       6.951  24.776  55.539  1.00  0.00     0.108 A 
HETATM   10  N   UNL     1       5.911  25.513  55.195  1.00  0.00    -0.244 NA
BRANCH   9  11
HETATM   11  C   UNL     1       7.338  23.520  54.872  1.00  0.00     0.000 A 
HETATM   12  C   UNL     1       7.592  22.382  55.657  1.00  0.00     0.021 A 
HETATM   13  C   UNL     1       7.970  21.162  55.078  1.00  0.00    -0.061 A 
HETATM   14  C   UNL     1       8.287  19.973  55.936  1.00  0.00     0.048 C 
HETATM   15  C   UNL     1       8.103  21.082  53.688  1.00  0.00     0.007 A 
HETATM   16  C   UNL     1       7.840  22.195  52.893  1.00  0.00     0.001 A 
HETATM   17  C   UNL     1       7.458  23.404  53.479  1.00  0.00     0.014 A 
ENDBRANCH   9  11
ENDBRANCH   5   6
ENDBRANCH   1   5
BRANCH   2  18
HETATM   18  N   UNL     1       4.142  27.612  52.100  1.00  0.00    -0.267 N 
HETATM   19  C   UNL     1       4.927  26.891  51.223  1.00  0.00     0.240 C 
HETATM   20  O   UNL     1       5.494  25.850  51.557  1.00  0.00    -0.272 OA
HETATM   21  H   UNL     1       3.781  28.544  51.894  1.00  0.00     0.190 HD
BRANCH  19  22
HETATM   22  C   UNL     1       4.994  27.467  49.824  1.00  0.00     0.146 C 
BRANCH  22  23
HETATM   23  C   UNL     1       3.876  27.065  48.880  1.00  0.00    -0.016 A 
HETATM   24  C   UNL     1       2.713  27.861  48.821  1.00  0.00     0.074 A 
HETATM   25  C   UNL     1       1.662  27.501  47.971  1.00  0.00     0.037 A 
HETATM   26  C   UNL     1       1.758  26.361  47.171  1.00  0.00     0.003 A 
HETATM   27  C   UNL     1       2.902  25.573  47.220  1.00  0.00     0.001 A 
HETATM   28  C   UNL     1       3.954  25.920  48.070  1.00  0.00     0.010 A 
BRANCH  24  29
HETATM   29  O   UNL     1       2.699  28.957  49.646  1.00  0.00    -0.355 OA
HETATM   30  C   UNL     1       1.485  29.238  50.333  1.00  0.00     0.210 C 
ENDBRANCH  24  29
ENDBRANCH  22  23
ENDBRANCH  19  22
ENDBRANCH   2  18
TORSDOF 7
ENDMDL
MODEL 4
REMARK VINA RESULT:      -9.3      3.011     10.880
REMARK  7 active torsions:
REMARK  status: ('A' for Active; 'I' for Inactive)
REMARK    1  A    between atoms: C_4  and  C_5 
REMARK    2  A    between atoms: C_8  and  C_9 
REMARK    3  A    between atoms: C_9  and  C_10 
REMARK       I    between atoms: C_10  and  N_11 
REMARK    4  A    between atoms: N_11  and  N_12 
REMARK       I    between atoms: N_12  and  C_13 
REMARK    5  A    between atoms: C_13  and  C_14 
REMARK    6  A    between atoms: C_14  and  C_15 
REMARK    7  A    between atoms: C_16  and  O_17 
ROOT
HETATM    1  C   UNL     1       8.048  29.029  57.760  1.00  0.00     0.241 C 
HETATM    2  N   UNL     1       7.308  27.865  57.812  1.00  0.00    -0.267 N 
HETATM    3  O   UNL     1       9.185  29.061  57.284  1.00  0.00    -0.271 OA
HETATM    4  H   UNL     1       6.491  27.759  58.417  1.00  0.00     0.190 HD
ENDROOT
BRANCH   1   5
HETATM    5  C   UNL     1       7.351  30.250  58.319  1.00  0.00     0.164 C 
BRANCH   5   6
HETATM    6  C   UNL     1       8.005  30.786  59.551  1.00  0.00     0.051 A 
HETATM    7  C   UNL     1       9.326  30.662  59.938  1.00  0.00     0.079 A 
HETATM    8  S   UNL     1       9.592  31.482  61.416  1.00  0.00    -0.079 SA
HETATM    9  C   UNL     1       7.940  31.976  61.442  1.00  0.00     0.108 A 
HETATM   10  N   UNL     1       7.229  31.551  60.413  1.00  0.00    -0.244 NA
BRANCH   9  11
HETATM   11  C   UNL     1       7.422  32.857  62.504  1.00  0.00     0.000 A 
HETATM   12  C   UNL     1       6.526  33.884  62.161  1.00  0.00     0.021 A 
HETATM   13  C   UNL     1       6.006  34.757  63.128  1.00  0.00    -0.061 A 
HETATM   14  C   UNL     1       5.092  35.878  62.736  1.00  0.00     0.048 C 
HETATM   15  C   UNL     1       6.397  34.602  64.462  1.00  0.00     0.007 A 
HETATM   16  C   UNL     1       7.273  33.580  64.823  1.00  0.00     0.001 A 
HETATM   17  C   UNL     1       7.779  32.712  63.853  1.00  0.00     0.014 A 
ENDBRANCH   9  11
ENDBRANCH   5   6
ENDBRANCH   1   5
BRANCH   2  18
HETATM   18  N   UNL     1       7.933  26.676  57.412  1.00  0.00    -0.267 N 
HETATM   19  C   UNL     1       7.157  25.543  57.275  1.00  0.00     0.240 C 
HETATM   20  O   UNL     1       5.931  25.573  57.385  1.00  0.00    -0.272 OA
HETATM   21  H   UNL     1       8.951  26.655  57.468  1.00  0.00     0.190 HD
BRANCH  19  22
HETATM   22  C   UNL     1       7.935  24.287  56.943  1.00  0.00     0.146 C 
BRANCH  22  23
HETATM   23  C   UNL     1       7.914  23.851  55.490  1.00  0.00    -0.016 A 
HETATM   24  C   UNL     1       8.381  22.561  55.158  1.00  0.00     0.074 A 
HETATM   25  C   UNL     1       8.387  22.142  53.823  1.00  0.00     0.037 A 
HETATM   26  C   UNL     1       7.926  22.989  52.815  1.00  0.00     0.003 A 
HETATM   27  C   UNL     1       7.461  24.260  53.133  1.00  0.00     0.001 A 
HETATM   28  C   UNL     1       7.456  24.690  54.461  1.00  0.00     0.010 A 
BRANCH  24  29
HETATM   29  O   UNL     1       8.824  21.799  56.210  1.00  0.00    -0.355 OA
HETATM   30  C   UNL     1       8.249  20.506  56.361  1.00  0.00     0.210 C 
ENDBRANCH  24  29
ENDBRANCH  22  23
ENDBRANCH  19  22
ENDBRANCH   2  18
TORSDOF 7
ENDMDL
MODEL 5
REMARK VINA RESULT:      -9.3      2.762     10.567
REMARK  7 active torsions:
REMARK  status: ('A' for Active; 'I' for Inactive)
REMARK    1  A    between atoms: C_4  and  C_5 
REMARK    2  A    between atoms: C_8  and  C_9 
REMARK    3  A    between atoms: C_9  and  C_10 
REMARK       I    between atoms: C_10  and  N_11 
REMARK    4  A    between atoms: N_11  and  N_12 
REMARK       I    between atoms: N_12  and  C_13 
REMARK    5  A    between atoms: C_13  and  C_14 
REMARK    6  A    between atoms: C_14  and  C_15 
REMARK    7  A    between atoms: C_16  and  O_17 
ROOT
HETATM    1  C   UNL     1       6.641  29.582  57.676  1.00  0.00     0.241 C 
HETATM    2  N   UNL     1       7.352  28.440  57.369  1.00  0.00    -0.267 N 
HETATM    3  O   UNL     1       5.410  29.584  57.758  1.00  0.00    -0.271 OA
HETATM    4  H   UNL     1       8.323  28.467  57.049  1.00  0.00     0.190 HD
ENDROOT
BRANCH   1   5
HETATM    5  C   UNL     1       7.487  30.815  57.912  1.00  0.00     0.164 C 
BRANCH   5   6
HETATM    6  C   UNL     1       7.944  30.949  59.328  1.00  0.00     0.051 A 
HETATM    7  C   UNL     1       9.000  30.309  59.949  1.00  0.00     0.079 A 
HETATM    8  S   UNL     1       9.137  30.825  61.574  1.00  0.00    -0.079 SA
HETATM    9  C   UNL     1       7.798  31.889  61.351  1.00  0.00     0.108 A 
HETATM   10  N   UNL     1       7.276  31.859  60.138  1.00  0.00    -0.244 NA
BRANCH   9  11
HETATM   11  C   UNL     1       7.351  32.791  62.427  1.00  0.00     0.000 A 
HETATM   12  C   UNL     1       6.440  33.817  62.122  1.00  0.00     0.021 A 
HETATM   13  C   UNL     1       5.985  34.709  63.103  1.00  0.00    -0.061 A 
HETATM   14  C   UNL     1       5.052  35.829  62.748  1.00  0.00     0.048 C 
HETATM   15  C   UNL     1       6.458  34.576  64.413  1.00  0.00     0.007 A 
HETATM   16  C   UNL     1       7.350  33.557  64.738  1.00  0.00     0.001 A 
HETATM   17  C   UNL     1       7.791  32.669  63.753  1.00  0.00     0.014 A 
ENDBRANCH   9  11
ENDBRANCH   5   6
ENDBRANCH   1   5
BRANCH   2  18
HETATM   18  N   UNL     1       6.627  27.290  57.031  1.00  0.00    -0.267 N 
HETATM   19  C   UNL     1       7.158  26.060  57.365  1.00  0.00     0.240 C 
HETATM   20  O   UNL     1       8.183  25.952  58.039  1.00  0.00    -0.272 OA
HETATM   21  H   UNL     1       5.868  27.410  56.360  1.00  0.00     0.190 HD
BRANCH  19  22
HETATM   22  C   UNL     1       6.357  24.876  56.866  1.00  0.00     0.146 C 
BRANCH  22  23
HETATM   23  C   UNL     1       6.805  24.271  55.549  1.00  0.00    -0.016 A 
HETATM   24  C   UNL     1       6.246  24.758  54.349  1.00  0.00     0.074 A 
HETATM   25  C   UNL     1       6.632  24.205  53.122  1.00  0.00     0.037 A 
HETATM   26  C   UNL     1       7.575  23.177  53.077  1.00  0.00     0.003 A 
HETATM   27  C   UNL     1       8.134  22.694  54.254  1.00  0.00     0.001 A 
HETATM   28  C   UNL     1       7.751  23.234  55.482  1.00  0.00     0.010 A 
BRANCH  24  29
HETATM   29  O   UNL     1       5.321  25.762  54.487  1.00  0.00    -0.355 OA
HETATM   30  C   UNL     1       5.272  26.745  53.459  1.00  0.00     0.210 C 
ENDBRANCH  24  29
ENDBRANCH  22  23
ENDBRANCH  19  22
ENDBRANCH   2  18
TORSDOF 7
ENDMDL
MODEL 6
REMARK VINA RESULT:      -9.2      2.578     10.411
REMARK  7 active torsions:
REMARK  status: ('A' for Active; 'I' for Inactive)
REMARK    1  A    between atoms: C_4  and  C_5 
REMARK    2  A    between atoms: C_8  and  C_9 
REMARK    3  A    between atoms: C_9  and  C_10 
REMARK       I    between atoms: C_10  and  N_11 
REMARK    4  A    between atoms: N_11  and  N_12 
REMARK       I    between atoms: N_12  and  C_13 
REMARK    5  A    between atoms: C_13  and  C_14 
REMARK    6  A    between atoms: C_14  and  C_15 
REMARK    7  A    between atoms: C_16  and  O_17 
ROOT
HETATM    1  C   UNL     1       6.981  28.927  57.467  1.00  0.00     0.241 C 
HETATM    2  N   UNL     1       6.064  28.417  56.570  1.00  0.00    -0.267 N 
HETATM    3  O   UNL     1       7.689  28.198  58.165  1.00  0.00    -0.271 OA
HETATM    4  H   UNL     1       5.306  28.980  56.179  1.00  0.00     0.190 HD
ENDROOT
BRANCH   1   5
HETATM    5  C   UNL     1       7.053  30.438  57.511  1.00  0.00     0.164 C 
BRANCH   5   6
HETATM    6  C   UNL     1       7.842  30.953  58.671  1.00  0.00     0.051 A 
HETATM    7  C   UNL     1       9.216  30.994  58.818  1.00  0.00     0.079 A 
HETATM    8  S   UNL     1       9.633  31.707  60.316  1.00  0.00    -0.079 SA
HETATM    9  C   UNL     1       7.962  31.943  60.672  1.00  0.00     0.108 A 
HETATM   10  N   UNL     1       7.140  31.511  59.732  1.00  0.00    -0.244 NA
BRANCH   9  11
HETATM   11  C   UNL     1       7.532  32.636  61.899  1.00  0.00     0.000 A 
HETATM   12  C   UNL     1       6.498  33.585  61.819  1.00  0.00     0.021 A 
HETATM   13  C   UNL     1       6.052  34.280  62.953  1.00  0.00    -0.061 A 
HETATM   14  C   UNL     1       4.983  35.325  62.840  1.00  0.00     0.048 C 
HETATM   15  C   UNL     1       6.659  34.025  64.187  1.00  0.00     0.007 A 
HETATM   16  C   UNL     1       7.675  33.077  64.289  1.00  0.00     0.001 A 
HETATM   17  C   UNL     1       8.106  32.385  63.154  1.00  0.00     0.014 A 
ENDBRANCH   9  11
ENDBRANCH   5   6
ENDBRANCH   1   5
BRANCH   2  18
HETATM   18  N   UNL     1       5.868  27.029  56.555  1.00  0.00    -0.267 N 
HETATM   19  C   UNL     1       6.323  26.316  55.465  1.00  0.00     0.240 C 
HETATM   20  O   UNL     1       6.985  26.842  54.570  1.00  0.00    -0.272 OA
HETATM   21  H   UNL     1       5.202  26.656  57.232  1.00  0.00     0.190 HD
BRANCH  19  22
HETATM   22  C   UNL     1       5.972  24.843  55.490  1.00  0.00     0.146 C 
BRANCH  22  23
HETATM   23  C   UNL     1       6.986  23.903  54.866  1.00  0.00    -0.016 A 
HETATM   24  C   UNL     1       7.979  23.327  55.687  1.00  0.00     0.074 A 
HETATM   25  C   UNL     1       8.935  22.470  55.132  1.00  0.00     0.037 A 
HETATM   26  C   UNL     1       8.911  22.173  53.769  1.00  0.00     0.003 A 
HETATM   27  C   UNL     1       7.935  22.733  52.953  1.00  0.00     0.001 A 
HETATM   28  C   UNL     1       6.980  23.594  53.495  1.00  0.00     0.010 A 
BRANCH  24  29
HETATM   29  O   UNL     1       7.933  23.680  57.012  1.00  0.00    -0.355 OA
HETATM   30  C   UNL     1       9.015  24.455  57.515  1.00  0.00     0.210 C 
ENDBRANCH  24  29
ENDBRANCH  22  23
ENDBRANCH  19  22
ENDBRANCH   2  18
TORSDOF 7
ENDMDL
MODEL 7
REMARK VINA RESULT:      -9.1      2.603      9.640
REMARK  7 active torsions:
REMARK  status: ('A' for Active; 'I' for Inactive)
REMARK    1  A    between atoms: C_4  and  C_5 
REMARK    2  A    between atoms: C_8  and  C_9 
REMARK    3  A    between atoms: C_9  and  C_10 
REMARK       I    between atoms: C_10  and  N_11 
REMARK    4  A    between atoms: N_11  and  N_12 
REMARK       I    between atoms: N_12  and  C_13 
REMARK    5  A    between atoms: C_13  and  C_14 
REMARK    6  A    between atoms: C_14  and  C_15 
REMARK    7  A    between atoms: C_16  and  O_17 
ROOT
HETATM    1  C   UNL     1       5.379  28.892  56.155  1.00  0.00     0.241 C 
HETATM    2  N   UNL     1       5.737  27.954  57.102  1.00  0.00    -0.267 N 
HETATM    3  O   UNL     1       5.924  28.949  55.050  1.00  0.00    -0.271 OA
HETATM    4  H   UNL     1       5.489  28.047  58.089  1.00  0.00     0.190 HD
ENDROOT
BRANCH   1   5
HETATM    5  C   UNL     1       4.265  29.827  56.576  1.00  0.00     0.164 C 
BRANCH   5   6
HETATM    6  C   UNL     1       4.735  30.937  57.459  1.00  0.00     0.051 A 
HETATM    7  C   UNL     1       4.107  32.138  57.728  1.00  0.00     0.079 A 
HETATM    8  S   UNL     1       5.034  33.061  58.830  1.00  0.00    -0.079 SA
HETATM    9  C   UNL     1       6.205  31.797  58.907  1.00  0.00     0.108 A 
HETATM   10  N   UNL     1       5.926  30.751  58.151  1.00  0.00    -0.244 NA
BRANCH   9  11
HETATM   11  C   UNL     1       7.369  31.887  59.805  1.00  0.00     0.000 A 
HETATM   12  C   UNL     1       7.157  32.140  61.172  1.00  0.00     0.021 A 
HETATM   13  C   UNL     1       8.227  32.243  62.073  1.00  0.00    -0.061 A 
HETATM   14  C   UNL     1       7.984  32.564  63.518  1.00  0.00     0.048 C 
HETATM   15  C   UNL     1       9.533  32.098  61.595  1.00  0.00     0.007 A 
HETATM   16  C   UNL     1       9.763  31.832  60.247  1.00  0.00     0.001 A 
HETATM   17  C   UNL     1       8.689  31.724  59.359  1.00  0.00     0.014 A 
ENDBRANCH   9  11
ENDBRANCH   5   6
ENDBRANCH   1   5
BRANCH   2  18
HETATM   18  N   UNL     1       6.833  27.128  56.820  1.00  0.00    -0.267 N 
HETATM   19  C   UNL     1       6.597  25.794  56.559  1.00  0.00     0.240 C 
HETATM   20  O   UNL     1       5.457  25.339  56.458  1.00  0.00    -0.272 OA
HETATM   21  H   UNL     1       7.755  27.501  57.049  1.00  0.00     0.190 HD
BRANCH  19  22
HETATM   22  C   UNL     1       7.848  24.961  56.371  1.00  0.00     0.146 C 
BRANCH  22  23
HETATM   23  C   UNL     1       7.884  24.075  55.141  1.00  0.00    -0.016 A 
HETATM   24  C   UNL     1       8.078  22.687  55.304  1.00  0.00     0.074 A 
HETATM   25  C   UNL     1       8.131  21.851  54.184  1.00  0.00     0.037 A 
HETATM   26  C   UNL     1       7.985  22.380  52.900  1.00  0.00     0.003 A 
HETATM   27  C   UNL     1       7.789  23.745  52.730  1.00  0.00     0.001 A 
HETATM   28  C   UNL     1       7.741  24.589  53.841  1.00  0.00     0.010 A 
BRANCH  24  29
HETATM   29  O   UNL     1       8.220  22.255  56.599  1.00  0.00    -0.355 OA
HETATM   30  C   UNL     1       8.266  20.848  56.812  1.00  0.00     0.210 C 
ENDBRANCH  24  29
ENDBRANCH  22  23
ENDBRANCH  19  22
ENDBRANCH   2  18
TORSDOF 7
ENDMDL
MODEL 8
REMARK VINA RESULT:      -9.1      1.950      2.884
REMARK  7 active torsions:
REMARK  status: ('A' for Active; 'I' for Inactive)
REMARK    1  A    between atoms: C_4  and  C_5 
REMARK    2  A    between atoms: C_8  and  C_9 
REMARK    3  A    between atoms: C_9  and  C_10 
REMARK       I    between atoms: C_10  and  N_11 
REMARK    4  A    between atoms: N_11  and  N_12 
REMARK       I    between atoms: N_12  and  C_13 
REMARK    5  A    between atoms: C_13  and  C_14 
REMARK    6  A    between atoms: C_14  and  C_15 
REMARK    7  A    between atoms: C_16  and  O_17 
ROOT
HETATM    1  C   UNL     1       5.721  29.778  56.889  1.00  0.00     0.241 C 
HETATM    2  N   UNL     1       6.379  30.657  57.725  1.00  0.00    -0.267 N 
HETATM    3  O   UNL     1       4.511  29.561  56.988  1.00  0.00    -0.271 OA
HETATM    4  H   UNL     1       7.395  30.660  57.829  1.00  0.00     0.190 HD
ENDROOT
BRANCH   1   5
HETATM    5  C   UNL     1       6.596  29.118  55.844  1.00  0.00     0.164 C 
BRANCH   5   6
HETATM    6  C   UNL     1       7.059  27.755  56.243  1.00  0.00     0.051 A 
HETATM    7  C   UNL     1       7.397  27.304  57.505  1.00  0.00     0.079 A 
HETATM    8  S   UNL     1       7.834  25.652  57.449  1.00  0.00    -0.079 SA
HETATM    9  C   UNL     1       7.524  25.625  55.753  1.00  0.00     0.108 A 
HETATM   10  N   UNL     1       7.123  26.781  55.255  1.00  0.00    -0.244 NA
BRANCH   9  11
HETATM   11  C   UNL     1       7.641  24.380  54.974  1.00  0.00     0.000 A 
HETATM   12  C   UNL     1       7.610  23.147  55.650  1.00  0.00     0.021 A 
HETATM   13  C   UNL     1       7.724  21.930  54.962  1.00  0.00    -0.061 A 
HETATM   14  C   UNL     1       7.741  20.628  55.705  1.00  0.00     0.048 C 
HETATM   15  C   UNL     1       7.880  21.949  53.572  1.00  0.00     0.007 A 
HETATM   16  C   UNL     1       7.897  23.160  52.883  1.00  0.00     0.001 A 
HETATM   17  C   UNL     1       7.776  24.366  53.577  1.00  0.00     0.014 A 
ENDBRANCH   9  11
ENDBRANCH   5   6
ENDBRANCH   1   5
BRANCH   2  18
HETATM   18  N   UNL     1       5.652  31.219  58.783  1.00  0.00    -0.267 N 
HETATM   19  C   UNL     1       6.263  32.186  59.556  1.00  0.00     0.240 C 
HETATM   20  O   UNL     1       7.372  32.641  59.276  1.00  0.00    -0.272 OA
HETATM   21  H   UNL     1       4.806  30.725  59.068  1.00  0.00     0.190 HD
BRANCH  19  22
HETATM   22  C   UNL     1       5.440  32.656  60.737  1.00  0.00     0.146 C 
BRANCH  22  23
HETATM   23  C   UNL     1       6.202  32.907  62.025  1.00  0.00    -0.016 A 
HETATM   24  C   UNL     1       5.789  33.961  62.867  1.00  0.00     0.074 A 
HETATM   25  C   UNL     1       6.486  34.224  64.052  1.00  0.00     0.037 A 
HETATM   26  C   UNL     1       7.585  33.444  64.413  1.00  0.00     0.003 A 
HETATM   27  C   UNL     1       7.997  32.401  63.591  1.00  0.00     0.001 A 
HETATM   28  C   UNL     1       7.313  32.135  62.404  1.00  0.00     0.010 A 
BRANCH  24  29
HETATM   29  O   UNL     1       4.706  34.682  62.431  1.00  0.00    -0.355 OA
HETATM   30  C   UNL     1       3.652  34.896  63.363  1.00  0.00     0.210 C 
ENDBRANCH  24  29
ENDBRANCH  22  23
ENDBRANCH  19  22
ENDBRANCH   2  18
TORSDOF 7
ENDMDL
MODEL 9
REMARK VINA RESULT:      -8.7      4.273      7.846
REMARK  7 active torsions:
REMARK  status: ('A' for Active; 'I' for Inactive)
REMARK    1  A    between atoms: C_4  and  C_5 
REMARK    2  A    between atoms: C_8  and  C_9 
REMARK    3  A    between atoms: C_9  and  C_10 
REMARK       I    between atoms: C_10  and  N_11 
REMARK    4  A    between atoms: N_11  and  N_12 
REMARK       I    between atoms: N_12  and  C_13 
REMARK    5  A    between atoms: C_13  and  C_14 
REMARK    6  A    between atoms: C_14  and  C_15 
REMARK    7  A    between atoms: C_16  and  O_17 
ROOT
HETATM    1  C   UNL     1       5.915  29.146  55.246  1.00  0.00     0.241 C 
HETATM    2  N   UNL     1       6.280  28.901  53.937  1.00  0.00    -0.267 N 
HETATM    3  O   UNL     1       4.760  29.442  55.559  1.00  0.00    -0.271 OA
HETATM    4  H   UNL     1       7.253  28.908  53.628  1.00  0.00     0.190 HD
ENDROOT
BRANCH   1   5
HETATM    5  C   UNL     1       7.036  29.011  56.254  1.00  0.00     0.164 C 
BRANCH   5   6
HETATM    6  C   UNL     1       7.408  27.590  56.528  1.00  0.00     0.051 A 
HETATM    7  C   UNL     1       7.712  27.007  57.743  1.00  0.00     0.079 A 
HETATM    8  S   UNL     1       8.042  25.341  57.538  1.00  0.00    -0.079 SA
HETATM    9  C   UNL     1       7.735  25.486  55.847  1.00  0.00     0.108 A 
HETATM   10  N   UNL     1       7.412  26.706  55.457  1.00  0.00    -0.244 NA
BRANCH   9  11
HETATM   11  C   UNL     1       7.774  24.311  54.960  1.00  0.00     0.000 A 
HETATM   12  C   UNL     1       7.771  23.026  55.530  1.00  0.00     0.021 A 
HETATM   13  C   UNL     1       7.814  21.871  54.735  1.00  0.00    -0.061 A 
HETATM   14  C   UNL     1       7.862  20.510  55.363  1.00  0.00     0.048 C 
HETATM   15  C   UNL     1       7.868  22.007  53.344  1.00  0.00     0.007 A 
HETATM   16  C   UNL     1       7.856  23.271  52.760  1.00  0.00     0.001 A 
HETATM   17  C   UNL     1       7.806  24.415  53.561  1.00  0.00     0.014 A 
ENDBRANCH   9  11
ENDBRANCH   5   6
ENDBRANCH   1   5
BRANCH   2  18
HETATM   18  N   UNL     1       5.318  29.115  52.941  1.00  0.00    -0.267 N 
HETATM   19  C   UNL     1       4.648  28.021  52.433  1.00  0.00     0.240 C 
HETATM   20  O   UNL     1       4.791  26.891  52.902  1.00  0.00    -0.272 OA
HETATM   21  H   UNL     1       5.329  30.028  52.485  1.00  0.00     0.190 HD
BRANCH  19  22
HETATM   22  C   UNL     1       3.708  28.338  51.288  1.00  0.00     0.146 C 
BRANCH  22  23
HETATM   23  C   UNL     1       4.252  28.106  49.891  1.00  0.00    -0.016 A 
HETATM   24  C   UNL     1       4.871  29.178  49.213  1.00  0.00     0.074 A 
HETATM   25  C   UNL     1       5.366  28.994  47.918  1.00  0.00     0.037 A 
HETATM   26  C   UNL     1       5.260  27.751  47.291  1.00  0.00     0.003 A 
HETATM   27  C   UNL     1       4.656  26.689  47.953  1.00  0.00     0.001 A 
HETATM   28  C   UNL     1       4.153  26.864  49.243  1.00  0.00     0.010 A 
BRANCH  24  29
HETATM   29  O   UNL     1       4.924  30.365  49.900  1.00  0.00    -0.355 OA
HETATM   30  C   UNL     1       5.930  31.294  49.513  1.00  0.00     0.210 C 
ENDBRANCH  24  29
ENDBRANCH  22  23
ENDBRANCH  19  22
ENDBRANCH   2  18
TORSDOF 7
ENDMDL
MODEL 10
REMARK VINA RESULT:      -8.6      2.665      9.676
REMARK  7 active torsions:
REMARK  status: ('A' for Active; 'I' for Inactive)
REMARK    1  A    between atoms: C_4  and  C_5 
REMARK    2  A    between atoms: C_8  and  C_9 
REMARK    3  A    between atoms: C_9  and  C_10 
REMARK       I    between atoms: C_10  and  N_11 
REMARK    4  A    between atoms: N_11  and  N_12 
REMARK       I    between atoms: N_12  and  C_13 
REMARK    5  A    between atoms: C_13  and  C_14 
REMARK    6  A    between atoms: C_14  and  C_15 
REMARK    7  A    between atoms: C_16  and  O_17 
ROOT
HETATM    1  C   UNL     1       4.752  29.372  55.922  1.00  0.00     0.241 C 
HETATM    2  N   UNL     1       5.738  28.583  56.479  1.00  0.00    -0.267 N 
HETATM    3  O   UNL     1       3.673  28.906  55.550  1.00  0.00    -0.271 OA
HETATM    4  H   UNL     1       6.710  28.889  56.555  1.00  0.00     0.190 HD
ENDROOT
BRANCH   1   5
HETATM    5  C   UNL     1       5.098  30.842  55.819  1.00  0.00     0.164 C 
BRANCH   5   6
HETATM    6  C   UNL     1       5.143  31.527  57.146  1.00  0.00     0.051 A 
HETATM    7  C   UNL     1       4.137  32.231  57.778  1.00  0.00     0.079 A 
HETATM    8  S   UNL     1       4.672  32.800  59.300  1.00  0.00    -0.079 SA
HETATM    9  C   UNL     1       6.206  32.054  59.041  1.00  0.00     0.108 A 
HETATM   10  N   UNL     1       6.315  31.423  57.886  1.00  0.00    -0.244 NA
BRANCH   9  11
HETATM   11  C   UNL     1       7.254  32.083  60.076  1.00  0.00     0.000 A 
HETATM   12  C   UNL     1       6.913  32.482  61.380  1.00  0.00     0.021 A 
HETATM   13  C   UNL     1       7.871  32.536  62.404  1.00  0.00    -0.061 A 
HETATM   14  C   UNL     1       7.499  33.013  63.776  1.00  0.00     0.048 C 
HETATM   15  C   UNL     1       9.195  32.190  62.113  1.00  0.00     0.007 A 
HETATM   16  C   UNL     1       9.548  31.777  60.831  1.00  0.00     0.001 A 
HETATM   17  C   UNL     1       8.585  31.721  59.820  1.00  0.00     0.014 A 
ENDBRANCH   9  11
ENDBRANCH   5   6
ENDBRANCH   1   5
BRANCH   2  18
HETATM   18  N   UNL     1       5.528  27.198  56.505  1.00  0.00    -0.267 N 
HETATM   19  C   UNL     1       6.569  26.371  56.133  1.00  0.00     0.240 C 
HETATM   20  O   UNL     1       7.695  26.806  55.890  1.00  0.00    -0.272 OA
HETATM   21  H   UNL     1       4.560  26.884  56.571  1.00  0.00     0.190 HD
BRANCH  19  22
HETATM   22  C   UNL     1       6.215  24.899  56.090  1.00  0.00     0.146 C 
BRANCH  22  23
HETATM   23  C   UNL     1       7.134  24.014  55.269  1.00  0.00    -0.016 A 
HETATM   24  C   UNL     1       6.837  23.801  53.906  1.00  0.00     0.074 A 
HETATM   25  C   UNL     1       7.660  22.975  53.131  1.00  0.00     0.037 A 
HETATM   26  C   UNL     1       8.781  22.365  53.696  1.00  0.00     0.003 A 
HETATM   27  C   UNL     1       9.083  22.572  55.037  1.00  0.00     0.001 A 
HETATM   28  C   UNL     1       8.265  23.388  55.820  1.00  0.00     0.010 A 
BRANCH  24  29
HETATM   29  O   UNL     1       5.713  24.432  53.436  1.00  0.00    -0.355 OA
HETATM   30  C   UNL     1       5.880  25.319  52.335  1.00  0.00     0.210 C 
ENDBRANCH  24  29
ENDBRANCH  22  23
ENDBRANCH  19  22
ENDBRANCH   2  18
TORSDOF 7
ENDMDL
