MODEL 1
REMARK VINA RESULT:      -9.0      0.000      0.000
REMARK  9 active torsions:
REMARK  status: ('A' for Active; 'I' for Inactive)
REMARK    1  A    between atoms: N_6  and  C_7 
REMARK    2  A    between atoms: C_9  and  S_10 
REMARK    3  A    between atoms: S_10  and  C_11 
REMARK    4  A    between atoms: C_11  and  C_12 
REMARK    5  A    between atoms: C_14  and  C_15 
REMARK       I    between atoms: C_15  and  N_16 
REMARK    6  A    between atoms: N_16  and  C_17 
REMARK    7  A    between atoms: C_17  and  C_18 
REMARK    8  A    between atoms: C_18  and  N_19 
REMARK    9  A    between atoms: C_27  and  C_28 
ROOT
HETATM    1  C   UNL     1       7.415  24.141  54.252  1.00  0.00     0.130 A 
HETATM    2  N   UNL     1       7.663  24.866  55.357  1.00  0.00    -0.205 NA
HETATM    3  C   UNL     1       8.081  24.225  56.463  1.00  0.00     0.191 A 
HETATM    4  N   UNL     1       8.187  22.899  56.573  1.00  0.00    -0.218 NA
HETATM    5  C   UNL     1       7.931  22.167  55.467  1.00  0.00     0.146 A 
HETATM    6  C   UNL     1       7.556  22.765  54.276  1.00  0.00     0.087 A 
ENDROOT
BRANCH   3   7
HETATM    7  S   UNL     1       8.578  25.218  57.849  1.00  0.00    -0.084 SA
BRANCH   7   8
HETATM    8  C   UNL     1       7.423  26.596  57.598  1.00  0.00     0.147 C 
BRANCH   8   9
HETATM    9  C   UNL     1       8.097  27.902  57.372  1.00  0.00     0.063 A 
HETATM   10  O   UNL     1       8.095  28.798  58.404  1.00  0.00    -0.309 OA
HETATM   11  C   UNL     1       8.924  29.829  58.045  1.00  0.00     0.143 A 
HETATM   12  C   UNL     1       9.414  29.611  56.774  1.00  0.00     0.045 A 
HETATM   13  C   UNL     1       8.863  28.386  56.331  1.00  0.00     0.036 A 
BRANCH  11  14
HETATM   14  C   UNL     1       9.185  30.879  58.997  1.00  0.00     0.275 C 
HETATM   15  N   UNL     1       8.848  30.589  60.302  1.00  0.00    -0.354 N 
HETATM   16  H   UNL     1       8.358  29.707  60.445  1.00  0.00     0.162 HD
HETATM   17  O   UNL     1       9.709  31.961  58.726  1.00  0.00    -0.265 OA
BRANCH  15  18
HETATM   18  C   UNL     1       8.802  31.607  61.341  1.00  0.00     0.150 C 
BRANCH  18  19
HETATM   19  C   UNL     1       7.736  31.349  62.424  1.00  0.00     0.253 C 
BRANCH  19  20
HETATM   20  N   UNL     1       6.333  31.661  61.945  1.00  0.00    -0.077 N 
HETATM   21  H   UNL     1       6.005  30.837  61.403  1.00  0.00     0.279 HD
HETATM   22  C   UNL     1       5.329  31.783  63.054  1.00  0.00     0.269 C 
HETATM   23  C   UNL     1       6.290  32.837  61.018  1.00  0.00     0.269 C 
ENDBRANCH  19  20
ENDBRANCH  18  19
ENDBRANCH  15  18
ENDBRANCH  11  14
ENDBRANCH   8   9
ENDBRANCH   7   8
ENDBRANCH   3   7
BRANCH   1  24
HETATM   24  N   UNL     1       7.084  24.814  53.072  1.00  0.00    -0.362 N 
HETATM   25  C   UNL     1       7.549  26.215  52.980  1.00  0.00     0.152 C 
HETATM   26  C   UNL     1       6.518  27.183  53.599  1.00  0.00     0.254 C 
HETATM   27  N   UNL     1       5.151  26.982  52.929  1.00  0.00    -0.072 N 
HETATM   28  C   UNL     1       4.118  27.937  53.444  1.00  0.00     0.269 C 
HETATM   29  H   UNL     1       5.279  27.186  51.928  1.00  0.00     0.279 HD
HETATM   30  C   UNL     1       4.696  25.528  53.038  1.00  0.00     0.254 C 
HETATM   31  C   UNL     1       5.765  24.579  52.451  1.00  0.00     0.152 C 
ENDBRANCH   1  24
BRANCH   5  32
HETATM   32  C   UNL     1       8.059  20.652  55.524  1.00  0.00     0.434 C 
HETATM   33  F   UNL     1       8.115  20.058  54.303  1.00  0.00    -0.165 F 
HETATM   34  F   UNL     1       9.185  20.266  56.189  1.00  0.00    -0.165 F 
HETATM   35  F   UNL     1       7.020  20.071  56.185  1.00  0.00    -0.165 F 
ENDBRANCH   5  32
TORSDOF 9
ENDMDL
MODEL 2
REMARK VINA RESULT:      -8.8      1.161      1.605
REMARK  9 active torsions:
REMARK  status: ('A' for Active; 'I' for Inactive)
REMARK    1  A    between atoms: N_6  and  C_7 
REMARK    2  A    between atoms: C_9  and  S_10 
REMARK    3  A    between atoms: S_10  and  C_11 
REMARK    4  A    between atoms: C_11  and  C_12 
REMARK    5  A    between atoms: C_14  and  C_15 
REMARK       I    between atoms: C_15  and  N_16 
REMARK    6  A    between atoms: N_16  and  C_17 
REMARK    7  A    between atoms: C_17  and  C_18 
REMARK    8  A    between atoms: C_18  and  N_19 
REMARK    9  A    between atoms: C_27  and  C_28 
ROOT
HETATM    1  C   UNL     1       6.168  24.613  54.429  1.00  0.00     0.130 A 
HETATM    2  N   UNL     1       6.695  25.085  55.573  1.00  0.00    -0.205 NA
HETATM    3  C   UNL     1       7.817  24.514  56.045  1.00  0.00     0.191 A 
HETATM    4  N   UNL     1       8.406  23.445  55.503  1.00  0.00    -0.218 NA
HETATM    5  C   UNL     1       7.875  22.963  54.359  1.00  0.00     0.146 A 
HETATM    6  C   UNL     1       6.756  23.541  53.782  1.00  0.00     0.087 A 
ENDROOT
BRANCH   3   7
HETATM    7  S   UNL     1       8.595  25.270  57.451  1.00  0.00    -0.084 SA
BRANCH   7   8
HETATM    8  C   UNL     1       7.443  26.658  57.659  1.00  0.00     0.147 C 
BRANCH   8   9
HETATM    9  C   UNL     1       8.077  27.989  57.470  1.00  0.00     0.063 A 
HETATM   10  O   UNL     1       8.092  28.837  58.541  1.00  0.00    -0.309 OA
HETATM   11  C   UNL     1       8.882  29.904  58.200  1.00  0.00     0.143 A 
HETATM   12  C   UNL     1       9.330  29.756  56.904  1.00  0.00     0.045 A 
HETATM   13  C   UNL     1       8.792  28.538  56.425  1.00  0.00     0.036 A 
BRANCH  11  14
HETATM   14  C   UNL     1       9.154  30.916  59.189  1.00  0.00     0.275 C 
HETATM   15  N   UNL     1       8.948  30.532  60.498  1.00  0.00    -0.354 N 
HETATM   16  H   UNL     1       8.531  29.612  60.626  1.00  0.00     0.162 HD
HETATM   17  O   UNL     1       9.581  32.046  58.943  1.00  0.00    -0.265 OA
BRANCH  15  18
HETATM   18  C   UNL     1       8.923  31.487  61.596  1.00  0.00     0.150 C 
BRANCH  18  19
HETATM   19  C   UNL     1       7.751  31.283  62.577  1.00  0.00     0.253 C 
BRANCH  19  20
HETATM   20  N   UNL     1       6.413  31.647  61.966  1.00  0.00    -0.077 N 
HETATM   21  H   UNL     1       6.139  30.864  61.340  1.00  0.00     0.279 HD
HETATM   22  C   UNL     1       5.294  31.716  62.964  1.00  0.00     0.269 C 
HETATM   23  C   UNL     1       6.484  32.880  61.118  1.00  0.00     0.269 C 
ENDBRANCH  19  20
ENDBRANCH  18  19
ENDBRANCH  15  18
ENDBRANCH  11  14
ENDBRANCH   8   9
ENDBRANCH   7   8
ENDBRANCH   3   7
BRANCH   1  24
HETATM   24  N   UNL     1       5.065  25.273  53.880  1.00  0.00    -0.362 N 
HETATM   25  C   UNL     1       4.739  24.924  52.479  1.00  0.00     0.152 C 
HETATM   26  C   UNL     1       5.525  25.813  51.491  1.00  0.00     0.254 C 
HETATM   27  N   UNL     1       5.254  27.293  51.797  1.00  0.00    -0.072 N 
HETATM   28  C   UNL     1       5.942  28.210  50.831  1.00  0.00     0.269 C 
HETATM   29  H   UNL     1       4.242  27.439  51.683  1.00  0.00     0.279 HD
HETATM   30  C   UNL     1       5.598  27.624  53.248  1.00  0.00     0.254 C 
HETATM   31  C   UNL     1       4.832  26.692  54.213  1.00  0.00     0.152 C 
ENDBRANCH   1  24
BRANCH   5  32
HETATM   32  C   UNL     1       8.517  21.762  53.681  1.00  0.00     0.434 C 
HETATM   33  F   UNL     1       7.944  21.428  52.494  1.00  0.00    -0.165 F 
HETATM   34  F   UNL     1       9.837  21.976  53.422  1.00  0.00    -0.165 F 
HETATM   35  F   UNL     1       8.467  20.644  54.457  1.00  0.00    -0.165 F 
ENDBRANCH   5  32
TORSDOF 9
ENDMDL
MODEL 3
REMARK VINA RESULT:      -8.6      2.647      4.308
REMARK  9 active torsions:
REMARK  status: ('A' for Active; 'I' for Inactive)
REMARK    1  A    between atoms: N_6  and  C_7 
REMARK    2  A    between atoms: C_9  and  S_10 
REMARK    3  A    between atoms: S_10  and  C_11 
REMARK    4  A    between atoms: C_11  and  C_12 
REMARK    5  A    between atoms: C_14  and  C_15 
REMARK       I    between atoms: C_15  and  N_16 
REMARK    6  A    between atoms: N_16  and  C_17 
REMARK    7  A    between atoms: C_17  and  C_18 
REMARK    8  A    between atoms: C_18  and  N_19 
REMARK    9  A    between atoms: C_27  and  C_28 
ROOT
HETATM    1  C   UNL     1       7.701  24.661  54.277  1.00  0.00     0.130 A 
HETATM    2  N   UNL     1       7.366  25.452  55.312  1.00  0.00    -0.205 NA
HETATM    3  C   UNL     1       6.321  26.286  55.170  1.00  0.00     0.191 A 
HETATM    4  N   UNL     1       5.636  26.451  54.036  1.00  0.00    -0.218 NA
HETATM    5  C   UNL     1       5.974  25.664  52.991  1.00  0.00     0.146 A 
HETATM    6  C   UNL     1       7.001  24.739  53.087  1.00  0.00     0.087 A 
ENDROOT
BRANCH   3   7
HETATM    7  S   UNL     1       5.783  27.183  56.605  1.00  0.00    -0.084 SA
BRANCH   7   8
HETATM    8  C   UNL     1       7.322  27.070  57.563  1.00  0.00     0.147 C 
BRANCH   8   9
HETATM    9  C   UNL     1       8.137  28.312  57.525  1.00  0.00     0.063 A 
HETATM   10  O   UNL     1       8.016  29.176  58.577  1.00  0.00    -0.309 OA
HETATM   11  C   UNL     1       8.984  30.135  58.425  1.00  0.00     0.143 A 
HETATM   12  C   UNL     1       9.685  29.908  57.259  1.00  0.00     0.045 A 
HETATM   13  C   UNL     1       9.124  28.752  56.667  1.00  0.00     0.036 A 
BRANCH  11  14
HETATM   14  C   UNL     1       9.150  31.129  59.455  1.00  0.00     0.275 C 
HETATM   15  N   UNL     1       9.348  30.634  60.726  1.00  0.00    -0.354 N 
HETATM   16  H   UNL     1       9.256  29.624  60.825  1.00  0.00     0.162 HD
HETATM   17  O   UNL     1       9.164  32.347  59.263  1.00  0.00    -0.265 OA
BRANCH  15  18
HETATM   18  C   UNL     1       9.278  31.476  61.912  1.00  0.00     0.150 C 
BRANCH  18  19
HETATM   19  C   UNL     1       7.857  31.622  62.493  1.00  0.00     0.253 C 
BRANCH  19  20
HETATM   20  N   UNL     1       7.559  33.036  62.949  1.00  0.00    -0.077 N 
HETATM   21  H   UNL     1       8.374  33.623  62.680  1.00  0.00     0.279 HD
HETATM   22  C   UNL     1       6.406  33.671  62.229  1.00  0.00     0.269 C 
HETATM   23  C   UNL     1       7.418  33.142  64.437  1.00  0.00     0.269 C 
ENDBRANCH  19  20
ENDBRANCH  18  19
ENDBRANCH  15  18
ENDBRANCH  11  14
ENDBRANCH   8   9
ENDBRANCH   7   8
ENDBRANCH   3   7
BRANCH   1  24
HETATM   24  N   UNL     1       8.718  23.719  54.459  1.00  0.00    -0.362 N 
HETATM   25  C   UNL     1       8.663  22.536  53.572  1.00  0.00     0.152 C 
HETATM   26  C   UNL     1       7.782  21.426  54.186  1.00  0.00     0.254 C 
HETATM   27  N   UNL     1       8.295  21.074  55.590  1.00  0.00    -0.072 N 
HETATM   28  C   UNL     1       7.518  19.956  56.216  1.00  0.00     0.269 C 
HETATM   29  H   UNL     1       9.263  20.743  55.477  1.00  0.00     0.279 HD
HETATM   30  C   UNL     1       8.341  22.313  56.482  1.00  0.00     0.254 C 
HETATM   31  C   UNL     1       9.193  23.423  55.824  1.00  0.00     0.152 C 
ENDBRANCH   1  24
BRANCH   5  32
HETATM   32  C   UNL     1       5.214  25.789  51.680  1.00  0.00     0.434 C 
HETATM   33  F   UNL     1       6.015  25.905  50.587  1.00  0.00    -0.165 F 
HETATM   34  F   UNL     1       4.416  24.707  51.455  1.00  0.00    -0.165 F 
HETATM   35  F   UNL     1       4.387  26.871  51.663  1.00  0.00    -0.165 F 
ENDBRANCH   5  32
TORSDOF 9
ENDMDL
MODEL 4
REMARK VINA RESULT:      -8.3      5.920      8.959
REMARK  9 active torsions:
REMARK  status: ('A' for Active; 'I' for Inactive)
REMARK    1  A    between atoms: N_6  and  C_7 
REMARK    2  A    between atoms: C_9  and  S_10 
REMARK    3  A    between atoms: S_10  and  C_11 
REMARK    4  A    between atoms: C_11  and  C_12 
REMARK    5  A    between atoms: C_14  and  C_15 
REMARK       I    between atoms: C_15  and  N_16 
REMARK    6  A    between atoms: N_16  and  C_17 
REMARK    7  A    between atoms: C_17  and  C_18 
REMARK    8  A    between atoms: C_18  and  N_19 
REMARK    9  A    between atoms: C_27  and  C_28 
ROOT
HETATM    1  C   UNL     1       7.208  30.779  58.715  1.00  0.00     0.130 A 
HETATM    2  N   UNL     1       6.132  31.561  58.911  1.00  0.00    -0.205 NA
HETATM    3  C   UNL     1       6.027  32.226  60.076  1.00  0.00     0.191 A 
HETATM    4  N   UNL     1       6.878  32.099  61.096  1.00  0.00    -0.218 NA
HETATM    5  C   UNL     1       7.956  31.308  60.906  1.00  0.00     0.146 A 
HETATM    6  C   UNL     1       8.159  30.641  59.709  1.00  0.00     0.087 A 
ENDROOT
BRANCH   3   7
HETATM    7  S   UNL     1       4.698  33.393  60.240  1.00  0.00    -0.084 SA
BRANCH   7   8
HETATM    8  C   UNL     1       3.744  32.509  61.507  1.00  0.00     0.147 C 
BRANCH   8   9
HETATM    9  C   UNL     1       3.662  33.237  62.801  1.00  0.00     0.063 A 
HETATM   10  O   UNL     1       4.658  33.018  63.710  1.00  0.00    -0.309 OA
HETATM   11  C   UNL     1       4.484  33.922  64.726  1.00  0.00     0.143 A 
HETATM   12  C   UNL     1       3.357  34.680  64.487  1.00  0.00     0.045 A 
HETATM   13  C   UNL     1       2.814  34.222  63.263  1.00  0.00     0.036 A 
BRANCH  11  14
HETATM   14  C   UNL     1       5.460  33.980  65.785  1.00  0.00     0.275 C 
HETATM   15  N   UNL     1       4.996  34.471  66.987  1.00  0.00    -0.354 N 
HETATM   16  H   UNL     1       4.045  34.834  66.977  1.00  0.00     0.162 HD
HETATM   17  O   UNL     1       6.626  33.594  65.690  1.00  0.00    -0.265 OA
BRANCH  15  18
HETATM   18  C   UNL     1       5.889  34.838  68.077  1.00  0.00     0.150 C 
BRANCH  18  19
HETATM   19  C   UNL     1       5.832  33.881  69.284  1.00  0.00     0.253 C 
BRANCH  19  20
HETATM   20  N   UNL     1       7.118  33.877  70.084  1.00  0.00    -0.077 N 
HETATM   21  H   UNL     1       7.565  32.950  69.942  1.00  0.00     0.279 HD
HETATM   22  C   UNL     1       8.144  34.851  69.582  1.00  0.00     0.269 C 
HETATM   23  C   UNL     1       6.880  34.025  71.556  1.00  0.00     0.269 C 
ENDBRANCH  19  20
ENDBRANCH  18  19
ENDBRANCH  15  18
ENDBRANCH  11  14
ENDBRANCH   8   9
ENDBRANCH   7   8
ENDBRANCH   3   7
BRANCH   1  24
HETATM   24  N   UNL     1       7.372  30.172  57.467  1.00  0.00    -0.362 N 
HETATM   25  C   UNL     1       6.173  30.149  56.600  1.00  0.00     0.152 C 
HETATM   26  C   UNL     1       5.310  28.901  56.882  1.00  0.00     0.254 C 
HETATM   27  N   UNL     1       6.163  27.634  56.724  1.00  0.00    -0.072 N 
HETATM   28  C   UNL     1       5.365  26.381  56.925  1.00  0.00     0.269 C 
HETATM   29  H   UNL     1       6.500  27.624  55.751  1.00  0.00     0.279 HD
HETATM   30  C   UNL     1       7.392  27.685  57.628  1.00  0.00     0.254 C 
HETATM   31  C   UNL     1       8.214  28.964  57.355  1.00  0.00     0.152 C 
ENDBRANCH   1  24
BRANCH   5  32
HETATM   32  C   UNL     1       8.974  31.143  62.024  1.00  0.00     0.434 C 
HETATM   33  F   UNL     1       9.401  29.864  62.197  1.00  0.00    -0.165 F 
HETATM   34  F   UNL     1      10.091  31.893  61.803  1.00  0.00    -0.165 F 
HETATM   35  F   UNL     1       8.487  31.550  63.230  1.00  0.00    -0.165 F 
ENDBRANCH   5  32
TORSDOF 9
ENDMDL
MODEL 5
REMARK VINA RESULT:      -8.1      4.047      8.192
REMARK  9 active torsions:
REMARK  status: ('A' for Active; 'I' for Inactive)
REMARK    1  A    between atoms: N_6  and  C_7 
REMARK    2  A    between atoms: C_9  and  S_10 
REMARK    3  A    between atoms: S_10  and  C_11 
REMARK    4  A    between atoms: C_11  and  C_12 
REMARK    5  A    between atoms: C_14  and  C_15 
REMARK       I    between atoms: C_15  and  N_16 
REMARK    6  A    between atoms: N_16  and  C_17 
REMARK    7  A    between atoms: C_17  and  C_18 
REMARK    8  A    between atoms: C_18  and  N_19 
REMARK    9  A    between atoms: C_27  and  C_28 
ROOT
HETATM    1  C   UNL     1       7.399  24.221  56.068  1.00  0.00     0.130 A 
HETATM    2  N   UNL     1       7.526  24.817  54.869  1.00  0.00    -0.205 NA
HETATM    3  C   UNL     1       7.909  24.069  53.819  1.00  0.00     0.191 A 
HETATM    4  N   UNL     1       8.257  22.782  53.896  1.00  0.00    -0.218 NA
HETATM    5  C   UNL     1       8.138  22.182  55.100  1.00  0.00     0.146 A 
HETATM    6  C   UNL     1       7.691  22.877  56.212  1.00  0.00     0.087 A 
ENDROOT
BRANCH   3   7
HETATM    7  S   UNL     1       7.893  24.833  52.216  1.00  0.00    -0.084 SA
BRANCH   7   8
HETATM    8  C   UNL     1       6.117  25.201  52.132  1.00  0.00     0.147 C 
BRANCH   8   9
HETATM    9  C   UNL     1       5.816  26.655  52.046  1.00  0.00     0.063 A 
HETATM   10  O   UNL     1       4.956  27.062  51.065  1.00  0.00    -0.309 OA
HETATM   11  C   UNL     1       4.681  28.386  51.293  1.00  0.00     0.143 A 
HETATM   12  C   UNL     1       5.397  28.828  52.386  1.00  0.00     0.045 A 
HETATM   13  C   UNL     1       6.147  27.723  52.854  1.00  0.00     0.036 A 
BRANCH  11  14
HETATM   14  C   UNL     1       3.715  29.053  50.458  1.00  0.00     0.275 C 
HETATM   15  N   UNL     1       2.758  28.235  49.894  1.00  0.00    -0.354 N 
HETATM   16  H   UNL     1       2.890  27.236  50.042  1.00  0.00     0.162 HD
HETATM   17  O   UNL     1       3.674  30.268  50.260  1.00  0.00    -0.265 OA
BRANCH  15  18
HETATM   18  C   UNL     1       1.872  28.688  48.832  1.00  0.00     0.150 C 
BRANCH  18  19
HETATM   19  C   UNL     1       2.477  28.574  47.419  1.00  0.00     0.253 C 
BRANCH  19  20
HETATM   20  N   UNL     1       1.909  27.408  46.636  1.00  0.00    -0.077 N 
HETATM   21  H   UNL     1       2.171  27.550  45.641  1.00  0.00     0.279 HD
HETATM   22  C   UNL     1       2.531  26.087  46.985  1.00  0.00     0.269 C 
HETATM   23  C   UNL     1       0.413  27.354  46.689  1.00  0.00     0.269 C 
ENDBRANCH  19  20
ENDBRANCH  18  19
ENDBRANCH  15  18
ENDBRANCH  11  14
ENDBRANCH   8   9
ENDBRANCH   7   8
ENDBRANCH   3   7
BRANCH   1  24
HETATM   24  N   UNL     1       6.899  24.971  57.136  1.00  0.00    -0.362 N 
HETATM   25  C   UNL     1       5.473  25.354  57.041  1.00  0.00     0.152 C 
HETATM   26  C   UNL     1       5.307  26.684  56.275  1.00  0.00     0.254 C 
HETATM   27  N   UNL     1       6.156  27.776  56.942  1.00  0.00    -0.072 N 
HETATM   28  C   UNL     1       5.991  29.110  56.281  1.00  0.00     0.269 C 
HETATM   29  H   UNL     1       5.811  27.871  57.907  1.00  0.00     0.279 HD
HETATM   30  C   UNL     1       7.622  27.354  57.028  1.00  0.00     0.254 C 
HETATM   31  C   UNL     1       7.754  25.999  57.760  1.00  0.00     0.152 C 
ENDBRANCH   1  24
BRANCH   5  32
HETATM   32  C   UNL     1       8.497  20.711  55.244  1.00  0.00     0.434 C 
HETATM   33  F   UNL     1       9.709  20.494  55.820  1.00  0.00    -0.165 F 
HETATM   34  F   UNL     1       7.586  20.043  56.007  1.00  0.00    -0.165 F 
HETATM   35  F   UNL     1       8.522  20.065  54.045  1.00  0.00    -0.165 F 
ENDBRANCH   5  32
TORSDOF 9
ENDMDL
MODEL 6
REMARK VINA RESULT:      -8.1      5.033     11.136
REMARK  9 active torsions:
REMARK  status: ('A' for Active; 'I' for Inactive)
REMARK    1  A    between atoms: N_6  and  C_7 
REMARK    2  A    between atoms: C_9  and  S_10 
REMARK    3  A    between atoms: S_10  and  C_11 
REMARK    4  A    between atoms: C_11  and  C_12 
REMARK    5  A    between atoms: C_14  and  C_15 
REMARK       I    between atoms: C_15  and  N_16 
REMARK    6  A    between atoms: N_16  and  C_17 
REMARK    7  A    between atoms: C_17  and  C_18 
REMARK    8  A    between atoms: C_18  and  N_19 
REMARK    9  A    between atoms: C_27  and  C_28 
ROOT
HETATM    1  C   UNL     1       5.154  34.129  61.526  1.00  0.00     0.130 A 
HETATM    2  N   UNL     1       4.985  33.611  60.297  1.00  0.00    -0.205 NA
HETATM    3  C   UNL     1       5.804  32.620  59.901  1.00  0.00     0.191 A 
HETATM    4  N   UNL     1       6.838  32.166  60.613  1.00  0.00    -0.218 NA
HETATM    5  C   UNL     1       7.016  32.689  61.845  1.00  0.00     0.146 A 
HETATM    6  C   UNL     1       6.172  33.670  62.342  1.00  0.00     0.087 A 
ENDROOT
BRANCH   3   7
HETATM    7  S   UNL     1       5.447  31.828  58.352  1.00  0.00    -0.084 SA
BRANCH   7   8
HETATM    8  C   UNL     1       6.887  30.723  58.298  1.00  0.00     0.147 C 
BRANCH   8   9
HETATM    9  C   UNL     1       6.608  29.416  57.647  1.00  0.00     0.063 A 
HETATM   10  O   UNL     1       7.534  28.424  57.805  1.00  0.00    -0.309 OA
HETATM   11  C   UNL     1       6.987  27.275  57.296  1.00  0.00     0.143 A 
HETATM   12  C   UNL     1       5.738  27.546  56.776  1.00  0.00     0.045 A 
HETATM   13  C   UNL     1       5.505  28.927  56.978  1.00  0.00     0.036 A 
BRANCH  11  14
HETATM   14  C   UNL     1       7.716  26.038  57.420  1.00  0.00     0.275 C 
HETATM   15  N   UNL     1       7.908  25.347  56.242  1.00  0.00    -0.354 N 
HETATM   16  H   UNL     1       7.431  25.727  55.426  1.00  0.00     0.162 HD
HETATM   17  O   UNL     1       8.193  25.603  58.470  1.00  0.00    -0.265 OA
BRANCH  15  18
HETATM   18  C   UNL     1       8.390  23.974  56.213  1.00  0.00     0.150 C 
BRANCH  18  19
HETATM   19  C   UNL     1       7.424  22.985  55.530  1.00  0.00     0.253 C 
BRANCH  19  20
HETATM   20  N   UNL     1       8.077  22.229  54.391  1.00  0.00    -0.077 N 
HETATM   21  H   UNL     1       9.105  22.322  54.511  1.00  0.00     0.279 HD
HETATM   22  C   UNL     1       7.843  20.747  54.438  1.00  0.00     0.269 C 
HETATM   23  C   UNL     1       7.741  22.807  53.050  1.00  0.00     0.269 C 
ENDBRANCH  19  20
ENDBRANCH  18  19
ENDBRANCH  15  18
ENDBRANCH  11  14
ENDBRANCH   8   9
ENDBRANCH   7   8
ENDBRANCH   3   7
BRANCH   1  24
HETATM   24  N   UNL     1       4.238  35.083  61.980  1.00  0.00    -0.362 N 
HETATM   25  C   UNL     1       4.813  36.219  62.733  1.00  0.00     0.152 C 
HETATM   26  C   UNL     1       4.924  35.886  64.236  1.00  0.00     0.254 C 
HETATM   27  N   UNL     1       3.550  35.469  64.779  1.00  0.00    -0.072 N 
HETATM   28  C   UNL     1       3.578  35.191  66.251  1.00  0.00     0.269 C 
HETATM   29  H   UNL     1       2.919  36.270  64.634  1.00  0.00     0.279 HD
HETATM   30  C   UNL     1       2.980  34.296  63.983  1.00  0.00     0.254 C 
HETATM   31  C   UNL     1       2.920  34.640  62.477  1.00  0.00     0.152 C 
ENDBRANCH   1  24
BRANCH   5  32
HETATM   32  C   UNL     1       8.163  32.195  62.713  1.00  0.00     0.434 C 
HETATM   33  F   UNL     1       8.249  32.817  63.919  1.00  0.00    -0.165 F 
HETATM   34  F   UNL     1       8.055  30.862  62.978  1.00  0.00    -0.165 F 
HETATM   35  F   UNL     1       9.373  32.358  62.111  1.00  0.00    -0.165 F 
ENDBRANCH   5  32
TORSDOF 9
ENDMDL
MODEL 7
REMARK VINA RESULT:      -7.8      4.718      8.446
REMARK  9 active torsions:
REMARK  status: ('A' for Active; 'I' for Inactive)
REMARK    1  A    between atoms: N_6  and  C_7 
REMARK    2  A    between atoms: C_9  and  S_10 
REMARK    3  A    between atoms: S_10  and  C_11 
REMARK    4  A    between atoms: C_11  and  C_12 
REMARK    5  A    between atoms: C_14  and  C_15 
REMARK       I    between atoms: C_15  and  N_16 
REMARK    6  A    between atoms: N_16  and  C_17 
REMARK    7  A    between atoms: C_17  and  C_18 
REMARK    8  A    between atoms: C_18  and  N_19 
REMARK    9  A    between atoms: C_27  and  C_28 
ROOT
HETATM    1  C   UNL     1       5.806  29.241  57.366  1.00  0.00     0.130 A 
HETATM    2  N   UNL     1       6.073  27.940  57.154  1.00  0.00    -0.205 NA
HETATM    3  C   UNL     1       7.274  27.464  57.528  1.00  0.00     0.191 A 
HETATM    4  N   UNL     1       8.262  28.212  58.022  1.00  0.00    -0.218 NA
HETATM    5  C   UNL     1       8.001  29.521  58.229  1.00  0.00     0.146 A 
HETATM    6  C   UNL     1       6.765  30.067  57.925  1.00  0.00     0.087 A 
ENDROOT
BRANCH   3   7
HETATM    7  S   UNL     1       7.536  25.711  57.409  1.00  0.00    -0.084 SA
BRANCH   7   8
HETATM    8  C   UNL     1       5.959  25.275  56.622  1.00  0.00     0.147 C 
BRANCH   8   9
HETATM    9  C   UNL     1       6.093  24.912  55.186  1.00  0.00     0.063 A 
HETATM   10  O   UNL     1       5.507  25.741  54.271  1.00  0.00    -0.309 OA
HETATM   11  C   UNL     1       5.917  25.327  53.030  1.00  0.00     0.143 A 
HETATM   12  C   UNL     1       6.723  24.214  53.154  1.00  0.00     0.045 A 
HETATM   13  C   UNL     1       6.815  23.932  54.537  1.00  0.00     0.036 A 
BRANCH  11  14
HETATM   14  C   UNL     1       5.523  26.089  51.873  1.00  0.00     0.275 C 
HETATM   15  N   UNL     1       5.823  27.435  51.924  1.00  0.00    -0.354 N 
HETATM   16  H   UNL     1       6.198  27.769  52.810  1.00  0.00     0.162 HD
HETATM   17  O   UNL     1       4.992  25.618  50.866  1.00  0.00    -0.265 OA
BRANCH  15  18
HETATM   18  C   UNL     1       5.277  28.392  50.973  1.00  0.00     0.150 C 
BRANCH  18  19
HETATM   19  C   UNL     1       3.756  28.607  51.103  1.00  0.00     0.253 C 
BRANCH  19  20
HETATM   20  N   UNL     1       3.092  28.887  49.770  1.00  0.00    -0.077 N 
HETATM   21  H   UNL     1       3.348  29.856  49.498  1.00  0.00     0.279 HD
HETATM   22  C   UNL     1       3.622  28.047  48.645  1.00  0.00     0.269 C 
HETATM   23  C   UNL     1       1.597  28.836  49.850  1.00  0.00     0.269 C 
ENDBRANCH  19  20
ENDBRANCH  18  19
ENDBRANCH  15  18
ENDBRANCH  11  14
ENDBRANCH   8   9
ENDBRANCH   7   8
ENDBRANCH   3   7
BRANCH   1  24
HETATM   24  N   UNL     1       4.523  29.714  57.077  1.00  0.00    -0.362 N 
HETATM   25  C   UNL     1       3.786  28.974  56.029  1.00  0.00     0.152 C 
HETATM   26  C   UNL     1       4.105  29.537  54.627  1.00  0.00     0.254 C 
HETATM   27  N   UNL     1       3.805  31.042  54.592  1.00  0.00    -0.072 N 
HETATM   28  C   UNL     1       4.036  31.638  53.236  1.00  0.00     0.269 C 
HETATM   29  H   UNL     1       2.803  31.149  54.802  1.00  0.00     0.279 HD
HETATM   30  C   UNL     1       4.577  31.780  55.683  1.00  0.00     0.254 C 
HETATM   31  C   UNL     1       4.273  31.169  57.070  1.00  0.00     0.152 C 
ENDBRANCH   1  24
BRANCH   5  32
HETATM   32  C   UNL     1       9.080  30.420  58.813  1.00  0.00     0.434 C 
HETATM   33  F   UNL     1       8.890  31.742  58.563  1.00  0.00    -0.165 F 
HETATM   34  F   UNL     1       9.162  30.294  60.168  1.00  0.00    -0.165 F 
HETATM   35  F   UNL     1      10.319  30.114  58.336  1.00  0.00    -0.165 F 
ENDBRANCH   5  32
TORSDOF 9
ENDMDL
MODEL 8
REMARK VINA RESULT:      -7.7      2.576      3.698
REMARK  9 active torsions:
REMARK  status: ('A' for Active; 'I' for Inactive)
REMARK    1  A    between atoms: N_6  and  C_7 
REMARK    2  A    between atoms: C_9  and  S_10 
REMARK    3  A    between atoms: S_10  and  C_11 
REMARK    4  A    between atoms: C_11  and  C_12 
REMARK    5  A    between atoms: C_14  and  C_15 
REMARK       I    between atoms: C_15  and  N_16 
REMARK    6  A    between atoms: N_16  and  C_17 
REMARK    7  A    between atoms: C_17  and  C_18 
REMARK    8  A    between atoms: C_18  and  N_19 
REMARK    9  A    between atoms: C_27  and  C_28 
ROOT
HETATM    1  C   UNL     1       4.545  27.394  53.176  1.00  0.00     0.130 A 
HETATM    2  N   UNL     1       4.542  27.958  54.397  1.00  0.00    -0.205 NA
HETATM    3  C   UNL     1       5.302  27.406  55.360  1.00  0.00     0.191 A 
HETATM    4  N   UNL     1       6.000  26.277  55.216  1.00  0.00    -0.218 NA
HETATM    5  C   UNL     1       5.999  25.703  53.994  1.00  0.00     0.146 A 
HETATM    6  C   UNL     1       5.288  26.252  52.939  1.00  0.00     0.087 A 
ENDROOT
BRANCH   3   7
HETATM    7  S   UNL     1       5.426  28.271  56.906  1.00  0.00    -0.084 SA
BRANCH   7   8
HETATM    8  C   UNL     1       6.488  29.634  56.346  1.00  0.00     0.147 C 
BRANCH   8   9
HETATM    9  C   UNL     1       7.590  29.954  57.292  1.00  0.00     0.063 A 
HETATM   10  O   UNL     1       7.242  30.413  58.531  1.00  0.00    -0.309 OA
HETATM   11  C   UNL     1       8.387  30.455  59.283  1.00  0.00     0.143 A 
HETATM   12  C   UNL     1       9.464  30.068  58.512  1.00  0.00     0.045 A 
HETATM   13  C   UNL     1       8.956  29.771  57.226  1.00  0.00     0.036 A 
BRANCH  11  14
HETATM   14  C   UNL     1       8.297  30.816  60.675  1.00  0.00     0.275 C 
HETATM   15  N   UNL     1       7.048  31.220  61.099  1.00  0.00    -0.354 N 
HETATM   16  H   UNL     1       6.346  31.320  60.368  1.00  0.00     0.162 HD
HETATM   17  O   UNL     1       9.225  30.747  61.483  1.00  0.00    -0.265 OA
BRANCH  15  18
HETATM   18  C   UNL     1       6.831  31.858  62.389  1.00  0.00     0.150 C 
BRANCH  18  19
HETATM   19  C   UNL     1       5.500  31.471  63.064  1.00  0.00     0.253 C 
BRANCH  19  20
HETATM   20  N   UNL     1       4.750  32.673  63.600  1.00  0.00    -0.077 N 
HETATM   21  H   UNL     1       3.910  32.313  64.096  1.00  0.00     0.279 HD
HETATM   22  C   UNL     1       5.497  33.426  64.662  1.00  0.00     0.269 C 
HETATM   23  C   UNL     1       4.260  33.578  62.512  1.00  0.00     0.269 C 
ENDBRANCH  19  20
ENDBRANCH  18  19
ENDBRANCH  15  18
ENDBRANCH  11  14
ENDBRANCH   8   9
ENDBRANCH   7   8
ENDBRANCH   3   7
BRANCH   1  24
HETATM   24  N   UNL     1       3.842  28.027  52.147  1.00  0.00    -0.362 N 
HETATM   25  C   UNL     1       4.390  27.840  50.785  1.00  0.00     0.152 C 
HETATM   26  C   UNL     1       5.453  28.913  50.464  1.00  0.00     0.254 C 
HETATM   27  N   UNL     1       4.852  30.313  50.659  1.00  0.00    -0.072 N 
HETATM   28  C   UNL     1       5.818  31.401  50.303  1.00  0.00     0.269 C 
HETATM   29  H   UNL     1       4.059  30.387  50.008  1.00  0.00     0.279 HD
HETATM   30  C   UNL     1       4.295  30.477  52.071  1.00  0.00     0.254 C 
HETATM   31  C   UNL     1       3.267  29.366  52.382  1.00  0.00     0.152 C 
ENDBRANCH   1  24
BRANCH   5  32
HETATM   32  C   UNL     1       6.795  24.428  53.762  1.00  0.00     0.434 C 
HETATM   33  F   UNL     1       6.364  23.694  52.702  1.00  0.00    -0.165 F 
HETATM   34  F   UNL     1       8.113  24.692  53.534  1.00  0.00    -0.165 F 
HETATM   35  F   UNL     1       6.764  23.597  54.841  1.00  0.00    -0.165 F 
ENDBRANCH   5  32
TORSDOF 9
ENDMDL
MODEL 9
REMARK VINA RESULT:      -7.7      3.790      5.820
REMARK  9 active torsions:
REMARK  status: ('A' for Active; 'I' for Inactive)
REMARK    1  A    between atoms: N_6  and  C_7 
REMARK    2  A    between atoms: C_9  and  S_10 
REMARK    3  A    between atoms: S_10  and  C_11 
REMARK    4  A    between atoms: C_11  and  C_12 
REMARK    5  A    between atoms: C_14  and  C_15 
REMARK       I    between atoms: C_15  and  N_16 
REMARK    6  A    between atoms: N_16  and  C_17 
REMARK    7  A    between atoms: C_17  and  C_18 
REMARK    8  A    between atoms: C_18  and  N_19 
REMARK    9  A    between atoms: C_27  and  C_28 
ROOT
HETATM    1  C   UNL     1       7.185  24.260  55.866  1.00  0.00     0.130 A 
HETATM    2  N   UNL     1       7.243  24.951  54.714  1.00  0.00    -0.205 NA
HETATM    3  C   UNL     1       7.496  24.280  53.577  1.00  0.00     0.191 A 
HETATM    4  N   UNL     1       7.781  22.978  53.516  1.00  0.00    -0.218 NA
HETATM    5  C   UNL     1       7.733  22.281  54.672  1.00  0.00     0.146 A 
HETATM    6  C   UNL     1       7.418  22.897  55.873  1.00  0.00     0.087 A 
ENDROOT
BRANCH   3   7
HETATM    7  S   UNL     1       7.384  25.181  52.049  1.00  0.00    -0.084 SA
BRANCH   7   8
HETATM    8  C   UNL     1       5.575  25.303  51.962  1.00  0.00     0.147 C 
BRANCH   8   9
HETATM    9  C   UNL     1       5.093  26.616  51.456  1.00  0.00     0.063 A 
HETATM   10  O   UNL     1       4.640  27.517  52.377  1.00  0.00    -0.309 OA
HETATM   11  C   UNL     1       4.435  28.701  51.716  1.00  0.00     0.143 A 
HETATM   12  C   UNL     1       4.714  28.540  50.375  1.00  0.00     0.045 A 
HETATM   13  C   UNL     1       5.112  27.193  50.203  1.00  0.00     0.036 A 
BRANCH  11  14
HETATM   14  C   UNL     1       4.044  29.864  52.472  1.00  0.00     0.275 C 
HETATM   15  N   UNL     1       4.121  29.730  53.842  1.00  0.00    -0.354 N 
HETATM   16  H   UNL     1       4.349  28.797  54.181  1.00  0.00     0.162 HD
HETATM   17  O   UNL     1       3.697  30.940  51.980  1.00  0.00    -0.265 OA
BRANCH  15  18
HETATM   18  C   UNL     1       3.530  30.698  54.755  1.00  0.00     0.150 C 
BRANCH  18  19
HETATM   19  C   UNL     1       4.467  31.864  55.125  1.00  0.00     0.253 C 
BRANCH  19  20
HETATM   20  N   UNL     1       4.207  33.105  54.295  1.00  0.00    -0.077 N 
HETATM   21  H   UNL     1       4.480  32.882  53.318  1.00  0.00     0.279 HD
HETATM   22  C   UNL     1       2.753  33.464  54.188  1.00  0.00     0.269 C 
HETATM   23  C   UNL     1       5.042  34.271  54.727  1.00  0.00     0.269 C 
ENDBRANCH  19  20
ENDBRANCH  18  19
ENDBRANCH  15  18
ENDBRANCH  11  14
ENDBRANCH   8   9
ENDBRANCH   7   8
ENDBRANCH   3   7
BRANCH   1  24
HETATM   24  N   UNL     1       6.817  24.937  57.033  1.00  0.00    -0.362 N 
HETATM   25  C   UNL     1       5.453  25.510  57.041  1.00  0.00     0.152 C 
HETATM   26  C   UNL     1       5.446  26.931  56.439  1.00  0.00     0.254 C 
HETATM   27  N   UNL     1       6.450  27.817  57.190  1.00  0.00    -0.072 N 
HETATM   28  C   UNL     1       6.446  29.231  56.693  1.00  0.00     0.269 C 
HETATM   29  H   UNL     1       6.144  27.842  58.173  1.00  0.00     0.279 HD
HETATM   30  C   UNL     1       7.848  27.203  57.167  1.00  0.00     0.254 C 
HETATM   31  C   UNL     1       7.818  25.765  57.734  1.00  0.00     0.152 C 
ENDBRANCH   1  24
BRANCH   5  32
HETATM   32  C   UNL     1       8.025  20.789  54.663  1.00  0.00     0.434 C 
HETATM   33  F   UNL     1       9.315  20.478  54.958  1.00  0.00    -0.165 F 
HETATM   34  F   UNL     1       7.254  20.119  55.566  1.00  0.00    -0.165 F 
HETATM   35  F   UNL     1       7.762  20.219  53.454  1.00  0.00    -0.165 F 
ENDBRANCH   5  32
TORSDOF 9
ENDMDL
MODEL 10
REMARK VINA RESULT:      -7.6      2.636      3.769
REMARK  9 active torsions:
REMARK  status: ('A' for Active; 'I' for Inactive)
REMARK    1  A    between atoms: N_6  and  C_7 
REMARK    2  A    between atoms: C_9  and  S_10 
REMARK    3  A    between atoms: S_10  and  C_11 
REMARK    4  A    between atoms: C_11  and  C_12 
REMARK    5  A    between atoms: C_14  and  C_15 
REMARK       I    between atoms: C_15  and  N_16 
REMARK    6  A    between atoms: N_16  and  C_17 
REMARK    7  A    between atoms: C_17  and  C_18 
REMARK    8  A    between atoms: C_18  and  N_19 
REMARK    9  A    between atoms: C_27  and  C_28 
ROOT
HETATM    1  C   UNL     1       6.231  26.754  55.598  1.00  0.00     0.130 A 
HETATM    2  N   UNL     1       6.819  27.902  55.978  1.00  0.00    -0.205 NA
HETATM    3  C   UNL     1       7.985  27.834  56.645  1.00  0.00     0.191 A 
HETATM    4  N   UNL     1       8.567  26.698  57.035  1.00  0.00    -0.218 NA
HETATM    5  C   UNL     1       7.975  25.543  56.662  1.00  0.00     0.146 A 
HETATM    6  C   UNL     1       6.805  25.538  55.921  1.00  0.00     0.087 A 
ENDROOT
BRANCH   3   7
HETATM    7  S   UNL     1       8.834  29.360  56.974  1.00  0.00    -0.084 SA
BRANCH   7   8
HETATM    8  C   UNL     1       7.472  30.231  57.801  1.00  0.00     0.147 C 
BRANCH   8   9
HETATM    9  C   UNL     1       7.920  31.118  58.906  1.00  0.00     0.063 A 
HETATM   10  O   UNL     1       7.063  31.298  59.955  1.00  0.00    -0.309 OA
HETATM   11  C   UNL     1       7.750  31.982  60.925  1.00  0.00     0.143 A 
HETATM   12  C   UNL     1       9.021  32.274  60.476  1.00  0.00     0.045 A 
HETATM   13  C   UNL     1       9.122  31.742  59.169  1.00  0.00     0.036 A 
BRANCH  11  14
HETATM   14  C   UNL     1       7.111  32.226  62.193  1.00  0.00     0.275 C 
HETATM   15  N   UNL     1       7.914  32.801  63.156  1.00  0.00    -0.354 N 
HETATM   16  H   UNL     1       8.897  32.900  62.909  1.00  0.00     0.162 HD
HETATM   17  O   UNL     1       5.926  31.997  62.441  1.00  0.00    -0.265 OA
BRANCH  15  18
HETATM   18  C   UNL     1       7.518  32.881  64.555  1.00  0.00     0.150 C 
BRANCH  18  19
HETATM   19  C   UNL     1       6.898  34.235  64.954  1.00  0.00     0.253 C 
BRANCH  19  20
HETATM   20  N   UNL     1       5.463  34.377  64.487  1.00  0.00    -0.077 N 
HETATM   21  H   UNL     1       5.345  33.750  63.666  1.00  0.00     0.279 HD
HETATM   22  C   UNL     1       4.454  33.869  65.475  1.00  0.00     0.269 C 
HETATM   23  C   UNL     1       5.145  35.765  64.024  1.00  0.00     0.269 C 
ENDBRANCH  19  20
ENDBRANCH  18  19
ENDBRANCH  15  18
ENDBRANCH  11  14
ENDBRANCH   8   9
ENDBRANCH   7   8
ENDBRANCH   3   7
BRANCH   1  24
HETATM   24  N   UNL     1       5.076  26.824  54.814  1.00  0.00    -0.362 N 
HETATM   25  C   UNL     1       4.931  25.767  53.788  1.00  0.00     0.152 C 
HETATM   26  C   UNL     1       5.623  26.176  52.470  1.00  0.00     0.254 C 
HETATM   27  N   UNL     1       5.071  27.526  51.992  1.00  0.00    -0.072 N 
HETATM   28  C   UNL     1       5.660  27.950  50.681  1.00  0.00     0.269 C 
HETATM   29  H   UNL     1       4.061  27.396  51.841  1.00  0.00     0.279 HD
HETATM   30  C   UNL     1       5.233  28.597  53.069  1.00  0.00     0.254 C 
HETATM   31  C   UNL     1       4.570  28.143  54.389  1.00  0.00     0.152 C 
ENDBRANCH   1  24
BRANCH   5  32
HETATM   32  C   UNL     1       8.604  24.215  57.057  1.00  0.00     0.434 C 
HETATM   33  F   UNL     1       9.245  24.244  58.256  1.00  0.00    -0.165 F 
HETATM   34  F   UNL     1       7.673  23.224  57.145  1.00  0.00    -0.165 F 
HETATM   35  F   UNL     1       9.519  23.785  56.144  1.00  0.00    -0.165 F 
ENDBRANCH   5  32
TORSDOF 9
ENDMDL
