MODEL 1
REMARK VINA RESULT:     -10.1      0.000      0.000
REMARK  6 active torsions:
REMARK  status: ('A' for Active; 'I' for Inactive)
REMARK    1  A    between atoms: O_2  and  C_3 
REMARK    2  A    between atoms: C_6  and  C_7 
REMARK    3  A    between atoms: C_13  and  C_14 
REMARK       I    between atoms: C_14  and  N_15 
REMARK    4  A    between atoms: N_15  and  C_16 
REMARK    5  A    between atoms: C_16  and  C_17 
REMARK    6  A    between atoms: C_24  and  C_25 
ROOT
HETATM    1  C   UNL     1       5.773  25.781  54.987  1.00  0.00     0.118 C 
HETATM    2  N   UNL     1       6.519  26.688  55.867  1.00  0.00    -0.365 N 
HETATM    3  C   UNL     1       6.051  27.953  56.062  1.00  0.00     0.138 A 
HETATM    4  N   UNL     1       5.045  28.456  55.262  1.00  0.00    -0.240 N 
HETATM    5  N   UNL     1       4.635  29.681  55.609  1.00  0.00    -0.181 NA
HETATM    6  C   UNL     1       5.477  30.017  56.589  1.00  0.00     0.160 A 
HETATM    7  C   UNL     1       6.385  28.981  56.927  1.00  0.00     0.096 A 
HETATM    8  C   UNL     1       4.430  27.737  54.160  1.00  0.00     0.221 C 
HETATM    9  C   UNL     1       5.321  26.553  53.742  1.00  0.00     0.066 C 
HETATM   10  H   UNL     1       7.524  26.512  55.901  1.00  0.00     0.161 HD
ENDROOT
BRANCH   7  11
HETATM   11  C   UNL     1       7.371  29.065  57.987  1.00  0.00     0.257 C 
HETATM   12  N   UNL     1       7.325  30.202  58.761  1.00  0.00    -0.352 N 
HETATM   13  H   UNL     1       6.763  30.972  58.420  1.00  0.00     0.163 HD
HETATM   14  O   UNL     1       8.210  28.185  58.150  1.00  0.00    -0.267 OA
BRANCH  12  15
HETATM   15  C   UNL     1       8.372  30.473  59.718  1.00  0.00     0.161 C 
BRANCH  15  16
HETATM   16  C   UNL     1       7.970  31.462  60.783  1.00  0.00    -0.041 A 
HETATM   17  C   UNL     1       6.865  32.310  60.623  1.00  0.00     0.009 A 
HETATM   18  C   UNL     1       6.460  33.152  61.660  1.00  0.00     0.001 A 
HETATM   19  C   UNL     1       7.140  33.144  62.875  1.00  0.00     0.000 A 
HETATM   20  C   UNL     1       8.229  32.294  63.056  1.00  0.00     0.001 A 
HETATM   21  C   UNL     1       8.640  31.456  62.018  1.00  0.00     0.009 A 
ENDBRANCH  15  16
ENDBRANCH  12  15
ENDBRANCH   7  11
BRANCH   1  22
HETATM   22  C   UNL     1       6.578  24.521  54.727  1.00  0.00    -0.035 A 
HETATM   23  C   UNL     1       7.099  23.814  55.825  1.00  0.00     0.012 A 
HETATM   24  C   UNL     1       7.788  22.607  55.653  1.00  0.00     0.037 A 
HETATM   25  C   UNL     1       7.973  22.084  54.376  1.00  0.00     0.068 A 
HETATM   26  C   UNL     1       7.499  22.798  53.276  1.00  0.00     0.037 A 
HETATM   27  C   UNL     1       6.810  24.005  53.445  1.00  0.00     0.012 A 
BRANCH  25  28
HETATM   28  O   UNL     1       8.599  20.908  54.071  1.00  0.00    -0.356 OA
HETATM   29  C   UNL     1       8.371  20.386  52.768  1.00  0.00     0.210 C 
ENDBRANCH  25  28
ENDBRANCH   1  22
BRANCH   8  30
HETATM   30  C   UNL     1       4.180  28.623  52.957  1.00  0.00     0.409 C 
HETATM   31  F   UNL     1       5.218  29.449  52.697  1.00  0.00    -0.169 F 
HETATM   32  F   UNL     1       4.024  27.845  51.850  1.00  0.00    -0.169 F 
HETATM   33  F   UNL     1       3.055  29.362  53.051  1.00  0.00    -0.169 F 
ENDBRANCH   8  30
TORSDOF 6
ENDMDL
MODEL 2
REMARK VINA RESULT:      -9.8      3.811      6.058
REMARK  6 active torsions:
REMARK  status: ('A' for Active; 'I' for Inactive)
REMARK    1  A    between atoms: O_2  and  C_3 
REMARK    2  A    between atoms: C_6  and  C_7 
REMARK    3  A    between atoms: C_13  and  C_14 
REMARK       I    between atoms: C_14  and  N_15 
REMARK    4  A    between atoms: N_15  and  C_16 
REMARK    5  A    between atoms: C_16  and  C_17 
REMARK    6  A    between atoms: C_24  and  C_25 
ROOT
HETATM    1  C   UNL     1       7.249  25.326  52.835  1.00  0.00     0.118 C 
HETATM    2  N   UNL     1       7.145  25.676  54.256  1.00  0.00    -0.365 N 
HETATM    3  C   UNL     1       7.819  24.925  55.172  1.00  0.00     0.138 A 
HETATM    4  N   UNL     1       8.382  23.719  54.808  1.00  0.00    -0.240 N 
HETATM    5  N   UNL     1       9.073  23.124  55.786  1.00  0.00    -0.181 NA
HETATM    6  C   UNL     1       8.855  23.916  56.838  1.00  0.00     0.160 A 
HETATM    7  C   UNL     1       8.083  25.064  56.524  1.00  0.00     0.096 A 
HETATM    8  C   UNL     1       8.293  23.134  53.481  1.00  0.00     0.221 C 
HETATM    9  C   UNL     1       7.156  23.803  52.687  1.00  0.00     0.066 C 
HETATM   10  H   UNL     1       6.263  26.119  54.518  1.00  0.00     0.161 HD
ENDROOT
BRANCH   7  11
HETATM   11  C   UNL     1       7.742  26.109  57.469  1.00  0.00     0.257 C 
HETATM   12  N   UNL     1       7.437  27.336  56.924  1.00  0.00    -0.352 N 
HETATM   13  H   UNL     1       7.667  27.479  55.948  1.00  0.00     0.163 HD
HETATM   14  O   UNL     1       7.761  25.908  58.679  1.00  0.00    -0.267 OA
BRANCH  12  15
HETATM   15  C   UNL     1       7.267  28.489  57.776  1.00  0.00     0.161 C 
BRANCH  15  16
HETATM   16  C   UNL     1       8.445  29.430  57.756  1.00  0.00    -0.041 A 
HETATM   17  C   UNL     1       8.584  30.458  58.699  1.00  0.00     0.009 A 
HETATM   18  C   UNL     1       9.728  31.259  58.715  1.00  0.00     0.001 A 
HETATM   19  C   UNL     1      10.755  31.029  57.803  1.00  0.00     0.000 A 
HETATM   20  C   UNL     1      10.640  30.000  56.872  1.00  0.00     0.001 A 
HETATM   21  C   UNL     1       9.494  29.204  56.850  1.00  0.00     0.009 A 
ENDBRANCH  15  16
ENDBRANCH  12  15
ENDBRANCH   7  11
BRANCH   1  22
HETATM   22  C   UNL     1       6.251  26.131  52.022  1.00  0.00    -0.035 A 
HETATM   23  C   UNL     1       6.044  27.482  52.351  1.00  0.00     0.012 A 
HETATM   24  C   UNL     1       5.191  28.294  51.593  1.00  0.00     0.037 A 
HETATM   25  C   UNL     1       4.524  27.768  50.490  1.00  0.00     0.068 A 
HETATM   26  C   UNL     1       4.688  26.418  50.179  1.00  0.00     0.037 A 
HETATM   27  C   UNL     1       5.540  25.605  50.935  1.00  0.00     0.012 A 
BRANCH  25  28
HETATM   28  O   UNL     1       3.690  28.453  49.653  1.00  0.00    -0.356 OA
HETATM   29  C   UNL     1       3.075  27.703  48.613  1.00  0.00     0.210 C 
ENDBRANCH  25  28
ENDBRANCH   1  22
BRANCH   8  30
HETATM   30  C   UNL     1       8.062  21.638  53.522  1.00  0.00     0.409 C 
HETATM   31  F   UNL     1       7.400  21.186  52.434  1.00  0.00    -0.169 F 
HETATM   32  F   UNL     1       9.264  20.997  53.532  1.00  0.00    -0.169 F 
HETATM   33  F   UNL     1       7.411  21.219  54.626  1.00  0.00    -0.169 F 
ENDBRANCH   8  30
TORSDOF 6
ENDMDL
MODEL 3
REMARK VINA RESULT:      -9.7      4.029      9.530
REMARK  6 active torsions:
REMARK  status: ('A' for Active; 'I' for Inactive)
REMARK    1  A    between atoms: O_2  and  C_3 
REMARK    2  A    between atoms: C_6  and  C_7 
REMARK    3  A    between atoms: C_13  and  C_14 
REMARK       I    between atoms: C_14  and  N_15 
REMARK    4  A    between atoms: N_15  and  C_16 
REMARK    5  A    between atoms: C_16  and  C_17 
REMARK    6  A    between atoms: C_24  and  C_25 
ROOT
HETATM    1  C   UNL     1       7.350  27.185  56.664  1.00  0.00     0.118 C 
HETATM    2  N   UNL     1       7.084  27.395  55.237  1.00  0.00    -0.365 N 
HETATM    3  C   UNL     1       6.707  26.333  54.470  1.00  0.00     0.138 A 
HETATM    4  N   UNL     1       6.814  25.047  54.960  1.00  0.00    -0.240 N 
HETATM    5  N   UNL     1       6.343  24.109  54.131  1.00  0.00    -0.181 NA
HETATM    6  C   UNL     1       6.027  24.802  53.035  1.00  0.00     0.160 A 
HETATM    7  C   UNL     1       6.224  26.200  53.180  1.00  0.00     0.096 A 
HETATM    8  C   UNL     1       7.344  24.703  56.268  1.00  0.00     0.221 C 
HETATM    9  C   UNL     1       8.148  25.887  56.836  1.00  0.00     0.066 C 
HETATM   10  H   UNL     1       7.619  28.156  54.814  1.00  0.00     0.161 HD
ENDROOT
BRANCH   7  11
HETATM   11  C   UNL     1       5.914  27.183  52.162  1.00  0.00     0.257 C 
HETATM   12  N   UNL     1       5.564  26.682  50.928  1.00  0.00    -0.352 N 
HETATM   13  H   UNL     1       5.743  25.700  50.760  1.00  0.00     0.163 HD
HETATM   14  O   UNL     1       5.995  28.386  52.390  1.00  0.00    -0.267 OA
BRANCH  12  15
HETATM   15  C   UNL     1       5.419  27.568  49.797  1.00  0.00     0.161 C 
BRANCH  15  16
HETATM   16  C   UNL     1       4.195  27.281  48.963  1.00  0.00    -0.041 A 
HETATM   17  C   UNL     1       4.151  26.206  48.064  1.00  0.00     0.009 A 
HETATM   18  C   UNL     1       2.977  25.908  47.370  1.00  0.00     0.001 A 
HETATM   19  C   UNL     1       1.828  26.666  47.581  1.00  0.00     0.000 A 
HETATM   20  C   UNL     1       1.851  27.725  48.484  1.00  0.00     0.001 A 
HETATM   21  C   UNL     1       3.026  28.030  49.173  1.00  0.00     0.009 A 
ENDBRANCH  15  16
ENDBRANCH  12  15
ENDBRANCH   7  11
BRANCH   1  22
HETATM   22  C   UNL     1       7.972  28.428  57.271  1.00  0.00    -0.035 A 
HETATM   23  C   UNL     1       9.323  28.710  57.000  1.00  0.00     0.012 A 
HETATM   24  C   UNL     1       9.932  29.879  57.473  1.00  0.00     0.037 A 
HETATM   25  C   UNL     1       9.201  30.790  58.230  1.00  0.00     0.068 A 
HETATM   26  C   UNL     1       7.872  30.502  58.542  1.00  0.00     0.037 A 
HETATM   27  C   UNL     1       7.262  29.334  58.071  1.00  0.00     0.012 A 
BRANCH  25  28
HETATM   28  O   UNL     1       9.663  31.977  58.727  1.00  0.00    -0.356 OA
HETATM   29  C   UNL     1       9.351  32.263  60.085  1.00  0.00     0.210 C 
ENDBRANCH  25  28
ENDBRANCH   1  22
BRANCH   8  30
HETATM   30  C   UNL     1       8.226  23.472  56.230  1.00  0.00     0.409 C 
HETATM   31  F   UNL     1       9.217  23.573  55.316  1.00  0.00    -0.169 F 
HETATM   32  F   UNL     1       8.835  23.318  57.439  1.00  0.00    -0.169 F 
HETATM   33  F   UNL     1       7.550  22.327  56.008  1.00  0.00    -0.169 F 
ENDBRANCH   8  30
TORSDOF 6
ENDMDL
MODEL 4
REMARK VINA RESULT:      -9.5      2.471      3.476
REMARK  6 active torsions:
REMARK  status: ('A' for Active; 'I' for Inactive)
REMARK    1  A    between atoms: O_2  and  C_3 
REMARK    2  A    between atoms: C_6  and  C_7 
REMARK    3  A    between atoms: C_13  and  C_14 
REMARK       I    between atoms: C_14  and  N_15 
REMARK    4  A    between atoms: N_15  and  C_16 
REMARK    5  A    between atoms: C_16  and  C_17 
REMARK    6  A    between atoms: C_24  and  C_25 
ROOT
HETATM    1  C   UNL     1       5.699  25.128  53.369  1.00  0.00     0.118 C 
HETATM    2  N   UNL     1       5.750  26.324  54.217  1.00  0.00    -0.365 N 
HETATM    3  C   UNL     1       5.012  27.415  53.867  1.00  0.00     0.138 A 
HETATM    4  N   UNL     1       4.426  27.490  52.620  1.00  0.00    -0.240 N 
HETATM    5  N   UNL     1       3.673  28.580  52.437  1.00  0.00    -0.181 NA
HETATM    6  C   UNL     1       3.870  29.277  53.558  1.00  0.00     0.160 A 
HETATM    7  C   UNL     1       4.692  28.604  54.499  1.00  0.00     0.096 A 
HETATM    8  C   UNL     1       4.556  26.478  51.585  1.00  0.00     0.221 C 
HETATM    9  C   UNL     1       5.748  25.556  51.897  1.00  0.00     0.066 C 
HETATM   10  H   UNL     1       6.634  26.452  54.713  1.00  0.00     0.161 HD
ENDROOT
BRANCH   7  11
HETATM   11  C   UNL     1       5.024  29.115  55.814  1.00  0.00     0.257 C 
HETATM   12  N   UNL     1       6.367  29.255  56.083  1.00  0.00    -0.352 N 
HETATM   13  H   UNL     1       7.017  28.812  55.445  1.00  0.00     0.163 HD
HETATM   14  O   UNL     1       4.153  29.369  56.639  1.00  0.00    -0.267 OA
BRANCH  12  15
HETATM   15  C   UNL     1       6.812  29.576  57.419  1.00  0.00     0.161 C 
BRANCH  15  16
HETATM   16  C   UNL     1       8.259  29.997  57.485  1.00  0.00    -0.041 A 
HETATM   17  C   UNL     1       8.701  30.976  58.385  1.00  0.00     0.009 A 
HETATM   18  C   UNL     1      10.059  31.284  58.490  1.00  0.00     0.001 A 
HETATM   19  C   UNL     1      10.993  30.604  57.712  1.00  0.00     0.000 A 
HETATM   20  C   UNL     1      10.570  29.617  56.826  1.00  0.00     0.001 A 
HETATM   21  C   UNL     1       9.213  29.313  56.715  1.00  0.00     0.009 A 
ENDBRANCH  15  16
ENDBRANCH  12  15
ENDBRANCH   7  11
BRANCH   1  22
HETATM   22  C   UNL     1       6.758  24.131  53.802  1.00  0.00    -0.035 A 
HETATM   23  C   UNL     1       7.098  24.056  55.165  1.00  0.00     0.012 A 
HETATM   24  C   UNL     1       8.015  23.107  55.635  1.00  0.00     0.037 A 
HETATM   25  C   UNL     1       8.613  22.215  54.749  1.00  0.00     0.068 A 
HETATM   26  C   UNL     1       8.315  22.307  53.390  1.00  0.00     0.037 A 
HETATM   27  C   UNL     1       7.400  23.254  52.917  1.00  0.00     0.012 A 
BRANCH  25  28
HETATM   28  O   UNL     1       9.497  21.227  55.078  1.00  0.00    -0.356 OA
HETATM   29  C   UNL     1       9.133  20.382  56.163  1.00  0.00     0.210 C 
ENDBRANCH  25  28
ENDBRANCH   1  22
BRANCH   8  30
HETATM   30  C   UNL     1       4.736  27.079  50.206  1.00  0.00     0.409 C 
HETATM   31  F   UNL     1       3.610  27.668  49.746  1.00  0.00    -0.169 F 
HETATM   32  F   UNL     1       5.683  28.057  50.263  1.00  0.00    -0.169 F 
HETATM   33  F   UNL     1       5.170  26.198  49.282  1.00  0.00    -0.169 F 
ENDBRANCH   8  30
TORSDOF 6
ENDMDL
MODEL 5
REMARK VINA RESULT:      -9.2      4.332      8.555
REMARK  6 active torsions:
REMARK  status: ('A' for Active; 'I' for Inactive)
REMARK    1  A    between atoms: O_2  and  C_3 
REMARK    2  A    between atoms: C_6  and  C_7 
REMARK    3  A    between atoms: C_13  and  C_14 
REMARK       I    between atoms: C_14  and  N_15 
REMARK    4  A    between atoms: N_15  and  C_16 
REMARK    5  A    between atoms: C_16  and  C_17 
REMARK    6  A    between atoms: C_24  and  C_25 
ROOT
HETATM    1  C   UNL     1       7.069  25.644  53.995  1.00  0.00     0.118 C 
HETATM    2  N   UNL     1       6.347  25.807  52.729  1.00  0.00    -0.365 N 
HETATM    3  C   UNL     1       5.795  27.017  52.432  1.00  0.00     0.138 A 
HETATM    4  N   UNL     1       5.697  27.995  53.402  1.00  0.00    -0.240 N 
HETATM    5  N   UNL     1       5.202  29.155  52.956  1.00  0.00    -0.181 NA
HETATM    6  C   UNL     1       4.871  28.879  51.693  1.00  0.00     0.160 A 
HETATM    7  C   UNL     1       5.220  27.562  51.297  1.00  0.00     0.096 A 
HETATM    8  C   UNL     1       6.121  27.834  54.782  1.00  0.00     0.221 C 
HETATM    9  C   UNL     1       6.280  26.339  55.112  1.00  0.00     0.066 C 
HETATM   10  H   UNL     1       5.906  24.954  52.381  1.00  0.00     0.161 HD
ENDROOT
BRANCH   7  11
HETATM   11  C   UNL     1       5.017  27.022  49.968  1.00  0.00     0.257 C 
HETATM   12  N   UNL     1       5.275  27.882  48.924  1.00  0.00    -0.352 N 
HETATM   13  H   UNL     1       5.384  28.863  49.149  1.00  0.00     0.163 HD
HETATM   14  O   UNL     1       4.607  25.878  49.798  1.00  0.00    -0.267 OA
BRANCH  12  15
HETATM   15  C   UNL     1       4.930  27.510  47.572  1.00  0.00     0.161 C 
BRANCH  15  16
HETATM   16  C   UNL     1       3.489  27.785  47.224  1.00  0.00    -0.041 A 
HETATM   17  C   UNL     1       2.555  26.749  47.074  1.00  0.00     0.009 A 
HETATM   18  C   UNL     1       1.209  27.034  46.841  1.00  0.00     0.001 A 
HETATM   19  C   UNL     1       0.774  28.355  46.774  1.00  0.00     0.000 A 
HETATM   20  C   UNL     1       1.686  29.395  46.938  1.00  0.00     0.001 A 
HETATM   21  C   UNL     1       3.034  29.112  47.165  1.00  0.00     0.009 A 
ENDBRANCH  15  16
ENDBRANCH  12  15
ENDBRANCH   7  11
BRANCH   1  22
HETATM   22  C   UNL     1       7.396  24.181  54.229  1.00  0.00    -0.035 A 
HETATM   23  C   UNL     1       7.926  23.428  53.166  1.00  0.00     0.012 A 
HETATM   24  C   UNL     1       8.314  22.094  53.341  1.00  0.00     0.037 A 
HETATM   25  C   UNL     1       8.177  21.484  54.585  1.00  0.00     0.068 A 
HETATM   26  C   UNL     1       7.613  22.207  55.636  1.00  0.00     0.037 A 
HETATM   27  C   UNL     1       7.224  23.540  55.464  1.00  0.00     0.012 A 
BRANCH  25  28
HETATM   28  O   UNL     1       8.540  20.204  54.897  1.00  0.00    -0.356 OA
HETATM   29  C   UNL     1       9.389  20.042  56.027  1.00  0.00     0.210 C 
ENDBRANCH  25  28
ENDBRANCH   1  22
BRANCH   8  30
HETATM   30  C   UNL     1       5.152  28.462  55.763  1.00  0.00     0.409 C 
HETATM   31  F   UNL     1       3.861  28.257  55.418  1.00  0.00    -0.169 F 
HETATM   32  F   UNL     1       5.317  27.888  56.987  1.00  0.00    -0.169 F 
HETATM   33  F   UNL     1       5.344  29.784  55.945  1.00  0.00    -0.169 F 
ENDBRANCH   8  30
TORSDOF 6
ENDMDL
MODEL 6
REMARK VINA RESULT:      -9.0      3.665      7.855
REMARK  6 active torsions:
REMARK  status: ('A' for Active; 'I' for Inactive)
REMARK    1  A    between atoms: O_2  and  C_3 
REMARK    2  A    between atoms: C_6  and  C_7 
REMARK    3  A    between atoms: C_13  and  C_14 
REMARK       I    between atoms: C_14  and  N_15 
REMARK    4  A    between atoms: N_15  and  C_16 
REMARK    5  A    between atoms: C_16  and  C_17 
REMARK    6  A    between atoms: C_24  and  C_25 
ROOT
HETATM    1  C   UNL     1       7.174  26.650  54.393  1.00  0.00     0.118 C 
HETATM    2  N   UNL     1       5.949  27.102  53.726  1.00  0.00    -0.365 N 
HETATM    3  C   UNL     1       5.438  28.326  54.039  1.00  0.00     0.138 A 
HETATM    4  N   UNL     1       5.912  29.020  55.134  1.00  0.00    -0.240 N 
HETATM    5  N   UNL     1       5.373  30.235  55.283  1.00  0.00    -0.181 NA
HETATM    6  C   UNL     1       4.449  30.278  54.321  1.00  0.00     0.160 A 
HETATM    7  C   UNL     1       4.438  29.119  53.502  1.00  0.00     0.096 A 
HETATM    8  C   UNL     1       6.934  28.529  56.043  1.00  0.00     0.221 C 
HETATM    9  C   UNL     1       7.093  27.007  55.882  1.00  0.00     0.066 C 
HETATM   10  H   UNL     1       5.317  26.350  53.446  1.00  0.00     0.161 HD
ENDROOT
BRANCH   7  11
HETATM   11  C   UNL     1       3.569  28.929  52.359  1.00  0.00     0.257 C 
HETATM   12  N   UNL     1       4.025  29.440  51.165  1.00  0.00    -0.352 N 
HETATM   13  H   UNL     1       4.812  30.076  51.204  1.00  0.00     0.163 HD
HETATM   14  O   UNL     1       2.480  28.375  52.470  1.00  0.00    -0.267 OA
BRANCH  12  15
HETATM   15  C   UNL     1       3.161  29.471  50.009  1.00  0.00     0.161 C 
BRANCH  15  16
HETATM   16  C   UNL     1       3.308  28.264  49.116  1.00  0.00    -0.041 A 
HETATM   17  C   UNL     1       4.549  27.645  48.912  1.00  0.00     0.009 A 
HETATM   18  C   UNL     1       4.644  26.477  48.154  1.00  0.00     0.001 A 
HETATM   19  C   UNL     1       3.499  25.902  47.608  1.00  0.00     0.000 A 
HETATM   20  C   UNL     1       2.257  26.495  47.817  1.00  0.00     0.001 A 
HETATM   21  C   UNL     1       2.161  27.667  48.568  1.00  0.00     0.009 A 
ENDBRANCH  15  16
ENDBRANCH  12  15
ENDBRANCH   7  11
BRANCH   1  22
HETATM   22  C   UNL     1       7.436  25.189  54.077  1.00  0.00    -0.035 A 
HETATM   23  C   UNL     1       7.313  24.242  55.109  1.00  0.00     0.012 A 
HETATM   24  C   UNL     1       7.471  22.872  54.862  1.00  0.00     0.037 A 
HETATM   25  C   UNL     1       7.760  22.423  53.576  1.00  0.00     0.068 A 
HETATM   26  C   UNL     1       7.927  23.356  52.554  1.00  0.00     0.037 A 
HETATM   27  C   UNL     1       7.769  24.725  52.797  1.00  0.00     0.012 A 
BRANCH  25  28
HETATM   28  O   UNL     1       7.911  21.119  53.195  1.00  0.00    -0.356 OA
HETATM   29  C   UNL     1       8.545  20.253  54.129  1.00  0.00     0.210 C 
ENDBRANCH  25  28
ENDBRANCH   1  22
BRANCH   8  30
HETATM   30  C   UNL     1       6.623  28.849  57.491  1.00  0.00     0.409 C 
HETATM   31  F   UNL     1       5.334  28.598  57.811  1.00  0.00    -0.169 F 
HETATM   32  F   UNL     1       7.380  28.055  58.299  1.00  0.00    -0.169 F 
HETATM   33  F   UNL     1       6.914  30.118  57.842  1.00  0.00    -0.169 F 
ENDBRANCH   8  30
TORSDOF 6
ENDMDL
MODEL 7
REMARK VINA RESULT:      -9.0      3.364      7.081
REMARK  6 active torsions:
REMARK  status: ('A' for Active; 'I' for Inactive)
REMARK    1  A    between atoms: O_2  and  C_3 
REMARK    2  A    between atoms: C_6  and  C_7 
REMARK    3  A    between atoms: C_13  and  C_14 
REMARK       I    between atoms: C_14  and  N_15 
REMARK    4  A    between atoms: N_15  and  C_16 
REMARK    5  A    between atoms: C_16  and  C_17 
REMARK    6  A    between atoms: C_24  and  C_25 
ROOT
HETATM    1  C   UNL     1       4.317  28.203  53.516  1.00  0.00     0.118 C 
HETATM    2  N   UNL     1       5.481  27.754  54.288  1.00  0.00    -0.365 N 
HETATM    3  C   UNL     1       5.665  28.239  55.548  1.00  0.00     0.138 A 
HETATM    4  N   UNL     1       4.922  29.312  55.999  1.00  0.00    -0.240 N 
HETATM    5  N   UNL     1       5.155  29.636  57.275  1.00  0.00    -0.181 NA
HETATM    6  C   UNL     1       6.153  28.821  57.620  1.00  0.00     0.160 A 
HETATM    7  C   UNL     1       6.518  27.916  56.589  1.00  0.00     0.096 A 
HETATM    8  C   UNL     1       3.936  30.024  55.205  1.00  0.00     0.221 C 
HETATM    9  C   UNL     1       4.141  29.714  53.711  1.00  0.00     0.066 C 
HETATM   10  H   UNL     1       6.292  27.503  53.721  1.00  0.00     0.161 HD
ENDROOT
BRANCH   7  11
HETATM   11  C   UNL     1       7.537  26.893  56.716  1.00  0.00     0.257 C 
HETATM   12  N   UNL     1       7.254  25.685  56.120  1.00  0.00    -0.352 N 
HETATM   13  H   UNL     1       6.299  25.528  55.823  1.00  0.00     0.163 HD
HETATM   14  O   UNL     1       8.569  27.094  57.349  1.00  0.00    -0.267 OA
BRANCH  12  15
HETATM   15  C   UNL     1       8.111  24.545  56.343  1.00  0.00     0.161 C 
BRANCH  15  16
HETATM   16  C   UNL     1       8.107  23.558  55.203  1.00  0.00    -0.041 A 
HETATM   17  C   UNL     1       8.164  22.175  55.424  1.00  0.00     0.009 A 
HETATM   18  C   UNL     1       8.068  21.279  54.357  1.00  0.00     0.001 A 
HETATM   19  C   UNL     1       7.893  21.754  53.060  1.00  0.00     0.000 A 
HETATM   20  C   UNL     1       7.816  23.124  52.826  1.00  0.00     0.001 A 
HETATM   21  C   UNL     1       7.919  24.021  53.890  1.00  0.00     0.009 A 
ENDBRANCH  15  16
ENDBRANCH  12  15
ENDBRANCH   7  11
BRANCH   1  22
HETATM   22  C   UNL     1       4.427  27.731  52.078  1.00  0.00    -0.035 A 
HETATM   23  C   UNL     1       5.099  26.524  51.812  1.00  0.00     0.012 A 
HETATM   24  C   UNL     1       5.170  26.001  50.515  1.00  0.00     0.037 A 
HETATM   25  C   UNL     1       4.572  26.678  49.455  1.00  0.00     0.068 A 
HETATM   26  C   UNL     1       3.940  27.896  49.699  1.00  0.00     0.037 A 
HETATM   27  C   UNL     1       3.867  28.422  50.994  1.00  0.00     0.012 A 
BRANCH  25  28
HETATM   28  O   UNL     1       4.544  26.266  48.153  1.00  0.00    -0.356 OA
HETATM   29  C   UNL     1       3.288  25.820  47.654  1.00  0.00     0.210 C 
ENDBRANCH  25  28
ENDBRANCH   1  22
BRANCH   8  30
HETATM   30  C   UNL     1       3.995  31.523  55.417  1.00  0.00     0.409 C 
HETATM   31  F   UNL     1       5.262  31.989  55.471  1.00  0.00    -0.169 F 
HETATM   32  F   UNL     1       3.402  32.149  54.362  1.00  0.00    -0.169 F 
HETATM   33  F   UNL     1       3.334  31.942  56.515  1.00  0.00    -0.169 F 
ENDBRANCH   8  30
TORSDOF 6
ENDMDL
MODEL 8
REMARK VINA RESULT:      -8.6      4.244      9.891
REMARK  6 active torsions:
REMARK  status: ('A' for Active; 'I' for Inactive)
REMARK    1  A    between atoms: O_2  and  C_3 
REMARK    2  A    between atoms: C_6  and  C_7 
REMARK    3  A    between atoms: C_13  and  C_14 
REMARK       I    between atoms: C_14  and  N_15 
REMARK    4  A    between atoms: N_15  and  C_16 
REMARK    5  A    between atoms: C_16  and  C_17 
REMARK    6  A    between atoms: C_24  and  C_25 
ROOT
HETATM    1  C   UNL     1       5.288  31.810  58.728  1.00  0.00     0.118 C 
HETATM    2  N   UNL     1       5.501  30.911  57.588  1.00  0.00    -0.365 N 
HETATM    3  C   UNL     1       6.529  30.018  57.633  1.00  0.00     0.138 A 
HETATM    4  N   UNL     1       7.499  30.119  58.610  1.00  0.00    -0.240 N 
HETATM    5  N   UNL     1       8.406  29.137  58.579  1.00  0.00    -0.181 NA
HETATM    6  C   UNL     1       8.074  28.449  57.485  1.00  0.00     0.160 A 
HETATM    7  C   UNL     1       6.905  28.942  56.848  1.00  0.00     0.096 A 
HETATM    8  C   UNL     1       7.543  31.158  59.625  1.00  0.00     0.221 C 
HETATM    9  C   UNL     1       6.645  32.337  59.209  1.00  0.00     0.066 C 
HETATM   10  H   UNL     1       5.205  31.293  56.688  1.00  0.00     0.161 HD
ENDROOT
BRANCH   7  11
HETATM   11  C   UNL     1       6.299  28.350  55.672  1.00  0.00     0.257 C 
HETATM   12  N   UNL     1       6.539  27.008  55.482  1.00  0.00    -0.352 N 
HETATM   13  H   UNL     1       7.269  26.584  56.042  1.00  0.00     0.163 HD
HETATM   14  O   UNL     1       5.644  29.024  54.884  1.00  0.00    -0.267 OA
BRANCH  12  15
HETATM   15  C   UNL     1       6.142  26.364  54.252  1.00  0.00     0.161 C 
BRANCH  15  16
HETATM   16  C   UNL     1       6.741  24.992  54.072  1.00  0.00    -0.041 A 
HETATM   17  C   UNL     1       7.322  24.595  52.859  1.00  0.00     0.009 A 
HETATM   18  C   UNL     1       7.950  23.353  52.745  1.00  0.00     0.001 A 
HETATM   19  C   UNL     1       8.023  22.502  53.845  1.00  0.00     0.000 A 
HETATM   20  C   UNL     1       7.466  22.890  55.061  1.00  0.00     0.001 A 
HETATM   21  C   UNL     1       6.832  24.128  55.175  1.00  0.00     0.009 A 
ENDBRANCH  15  16
ENDBRANCH  12  15
ENDBRANCH   7  11
BRANCH   1  22
HETATM   22  C   UNL     1       4.254  32.865  58.379  1.00  0.00    -0.035 A 
HETATM   23  C   UNL     1       3.735  33.668  59.410  1.00  0.00     0.012 A 
HETATM   24  C   UNL     1       2.833  34.706  59.140  1.00  0.00     0.037 A 
HETATM   25  C   UNL     1       2.430  34.957  57.831  1.00  0.00     0.068 A 
HETATM   26  C   UNL     1       2.905  34.140  56.806  1.00  0.00     0.037 A 
HETATM   27  C   UNL     1       3.806  33.103  57.073  1.00  0.00     0.012 A 
BRANCH  25  28
HETATM   28  O   UNL     1       1.582  35.950  57.428  1.00  0.00    -0.356 OA
HETATM   29  C   UNL     1       2.041  36.791  56.376  1.00  0.00     0.210 C 
ENDBRANCH  25  28
ENDBRANCH   1  22
BRANCH   8  30
HETATM   30  C   UNL     1       8.948  31.664  59.876  1.00  0.00     0.409 C 
HETATM   31  F   UNL     1       9.646  31.843  58.732  1.00  0.00    -0.169 F 
HETATM   32  F   UNL     1       8.885  32.883  60.481  1.00  0.00    -0.169 F 
HETATM   33  F   UNL     1       9.669  30.878  60.701  1.00  0.00    -0.169 F 
ENDBRANCH   8  30
TORSDOF 6
ENDMDL
MODEL 9
REMARK VINA RESULT:      -8.6      3.192      4.803
REMARK  6 active torsions:
REMARK  status: ('A' for Active; 'I' for Inactive)
REMARK    1  A    between atoms: O_2  and  C_3 
REMARK    2  A    between atoms: C_6  and  C_7 
REMARK    3  A    between atoms: C_13  and  C_14 
REMARK       I    between atoms: C_14  and  N_15 
REMARK    4  A    between atoms: N_15  and  C_16 
REMARK    5  A    between atoms: C_16  and  C_17 
REMARK    6  A    between atoms: C_24  and  C_25 
ROOT
HETATM    1  C   UNL     1       5.073  26.173  51.784  1.00  0.00     0.118 C 
HETATM    2  N   UNL     1       4.933  27.477  52.441  1.00  0.00    -0.365 N 
HETATM    3  C   UNL     1       4.220  28.458  51.819  1.00  0.00     0.138 A 
HETATM    4  N   UNL     1       3.849  28.319  50.497  1.00  0.00    -0.240 N 
HETATM    5  N   UNL     1       3.093  29.322  50.036  1.00  0.00    -0.181 NA
HETATM    6  C   UNL     1       3.071  30.181  51.057  1.00  0.00     0.160 A 
HETATM    7  C   UNL     1       3.751  29.701  52.207  1.00  0.00     0.096 A 
HETATM    8  C   UNL     1       4.190  27.182  49.659  1.00  0.00     0.221 C 
HETATM    9  C   UNL     1       5.350  26.392  50.292  1.00  0.00     0.066 C 
HETATM   10  H   UNL     1       5.715  27.730  53.047  1.00  0.00     0.161 HD
ENDROOT
BRANCH   7  11
HETATM   11  C   UNL     1       3.838  30.412  53.467  1.00  0.00     0.257 C 
HETATM   12  N   UNL     1       4.978  30.189  54.205  1.00  0.00    -0.352 N 
HETATM   13  H   UNL     1       5.564  29.411  53.930  1.00  0.00     0.163 HD
HETATM   14  O   UNL     1       2.928  31.138  53.854  1.00  0.00    -0.267 OA
BRANCH  12  15
HETATM   15  C   UNL     1       5.082  30.697  55.553  1.00  0.00     0.161 C 
BRANCH  15  16
HETATM   16  C   UNL     1       6.206  30.076  56.343  1.00  0.00    -0.041 A 
HETATM   17  C   UNL     1       6.543  30.529  57.627  1.00  0.00     0.009 A 
HETATM   18  C   UNL     1       7.528  29.880  58.374  1.00  0.00     0.001 A 
HETATM   19  C   UNL     1       8.173  28.759  57.857  1.00  0.00     0.000 A 
HETATM   20  C   UNL     1       7.837  28.287  56.591  1.00  0.00     0.001 A 
HETATM   21  C   UNL     1       6.858  28.939  55.840  1.00  0.00     0.009 A 
ENDBRANCH  15  16
ENDBRANCH  12  15
ENDBRANCH   7  11
BRANCH   1  22
HETATM   22  C   UNL     1       6.083  25.317  52.525  1.00  0.00    -0.035 A 
HETATM   23  C   UNL     1       5.804  24.935  53.849  1.00  0.00     0.012 A 
HETATM   24  C   UNL     1       6.664  24.088  54.559  1.00  0.00     0.037 A 
HETATM   25  C   UNL     1       7.824  23.607  53.958  1.00  0.00     0.068 A 
HETATM   26  C   UNL     1       8.133  24.012  52.660  1.00  0.00     0.037 A 
HETATM   27  C   UNL     1       7.276  24.859  51.948  1.00  0.00     0.012 A 
BRANCH  25  28
HETATM   28  O   UNL     1       8.729  22.755  54.525  1.00  0.00    -0.356 OA
HETATM   29  C   UNL     1       8.637  22.574  55.933  1.00  0.00     0.210 C 
ENDBRANCH  25  28
ENDBRANCH   1  22
BRANCH   8  30
HETATM   30  C   UNL     1       4.574  27.594  48.253  1.00  0.00     0.409 C 
HETATM   31  F   UNL     1       3.506  27.961  47.511  1.00  0.00    -0.169 F 
HETATM   32  F   UNL     1       5.392  28.682  48.311  1.00  0.00    -0.169 F 
HETATM   33  F   UNL     1       5.262  26.649  47.579  1.00  0.00    -0.169 F 
ENDBRANCH   8  30
TORSDOF 6
ENDMDL
MODEL 10
REMARK VINA RESULT:      -8.4      4.418      8.040
REMARK  6 active torsions:
REMARK  status: ('A' for Active; 'I' for Inactive)
REMARK    1  A    between atoms: O_2  and  C_3 
REMARK    2  A    between atoms: C_6  and  C_7 
REMARK    3  A    between atoms: C_13  and  C_14 
REMARK       I    between atoms: C_14  and  N_15 
REMARK    4  A    between atoms: N_15  and  C_16 
REMARK    5  A    between atoms: C_16  and  C_17 
REMARK    6  A    between atoms: C_24  and  C_25 
ROOT
HETATM    1  C   UNL     1       4.970  32.480  57.460  1.00  0.00     0.118 C 
HETATM    2  N   UNL     1       5.902  32.030  58.499  1.00  0.00    -0.365 N 
HETATM    3  C   UNL     1       6.729  30.979  58.237  1.00  0.00     0.138 A 
HETATM    4  N   UNL     1       6.525  30.194  57.120  1.00  0.00    -0.240 N 
HETATM    5  N   UNL     1       7.451  29.244  56.947  1.00  0.00    -0.181 NA
HETATM    6  C   UNL     1       8.205  29.351  58.042  1.00  0.00     0.160 A 
HETATM    7  C   UNL     1       7.813  30.419  58.890  1.00  0.00     0.096 A 
HETATM    8  C   UNL     1       5.443  30.377  56.168  1.00  0.00     0.221 C 
HETATM    9  C   UNL     1       4.340  31.253  56.790  1.00  0.00     0.066 C 
HETATM   10  H   UNL     1       5.579  32.190  59.455  1.00  0.00     0.161 HD
ENDROOT
BRANCH   7  11
HETATM   11  C   UNL     1       8.492  30.786  60.117  1.00  0.00     0.257 C 
HETATM   12  N   UNL     1       7.708  30.823  61.249  1.00  0.00    -0.352 N 
HETATM   13  H   UNL     1       6.704  30.797  61.118  1.00  0.00     0.163 HD
HETATM   14  O   UNL     1       9.683  31.077  60.126  1.00  0.00    -0.267 OA
BRANCH  12  15
HETATM   15  C   UNL     1       8.238  31.354  62.483  1.00  0.00     0.161 C 
BRANCH  15  16
HETATM   16  C   UNL     1       7.465  32.538  63.007  1.00  0.00    -0.041 A 
HETATM   17  C   UNL     1       7.600  32.978  64.332  1.00  0.00     0.009 A 
HETATM   18  C   UNL     1       6.942  34.130  64.768  1.00  0.00     0.001 A 
HETATM   19  C   UNL     1       6.159  34.867  63.883  1.00  0.00     0.000 A 
HETATM   20  C   UNL     1       6.029  34.452  62.560  1.00  0.00     0.001 A 
HETATM   21  C   UNL     1       6.680  33.296  62.124  1.00  0.00     0.009 A 
ENDBRANCH  15  16
ENDBRANCH  12  15
ENDBRANCH   7  11
BRANCH   1  22
HETATM   22  C   UNL     1       3.996  33.494  58.031  1.00  0.00    -0.035 A 
HETATM   23  C   UNL     1       3.907  33.634  59.428  1.00  0.00     0.012 A 
HETATM   24  C   UNL     1       3.081  34.602  60.011  1.00  0.00     0.037 A 
HETATM   25  C   UNL     1       2.323  35.449  59.208  1.00  0.00     0.068 A 
HETATM   26  C   UNL     1       2.370  35.293  57.823  1.00  0.00     0.037 A 
HETATM   27  C   UNL     1       3.195  34.326  57.237  1.00  0.00     0.012 A 
BRANCH  25  28
HETATM   28  O   UNL     1       1.501  36.450  59.645  1.00  0.00    -0.356 OA
HETATM   29  C   UNL     1       1.952  37.782  59.432  1.00  0.00     0.210 C 
ENDBRANCH  25  28
ENDBRANCH   1  22
BRANCH   8  30
HETATM   30  C   UNL     1       4.841  29.063  55.715  1.00  0.00     0.409 C 
HETATM   31  F   UNL     1       5.619  28.420  54.816  1.00  0.00    -0.169 F 
HETATM   32  F   UNL     1       4.725  28.229  56.786  1.00  0.00    -0.169 F 
HETATM   33  F   UNL     1       3.599  29.182  55.203  1.00  0.00    -0.169 F 
ENDBRANCH   8  30
TORSDOF 6
ENDMDL
