MODEL 1
REMARK VINA RESULT:      -9.3      0.000      0.000
REMARK  5 active torsions:
REMARK  status: ('A' for Active; 'I' for Inactive)
REMARK    1  A    between atoms: C_2  and  O_3 
REMARK    2  A    between atoms: O_3  and  C_4 
REMARK    3  A    between atoms: C_7  and  C_8 
REMARK       I    between atoms: C_8  and  N_9 
REMARK    4  A    between atoms: N_12  and  C_13 
REMARK    5  A    between atoms: C_17  and  C_18 
ROOT
HETATM    1  C   UNL     1       9.517  31.398  58.988  1.00  0.00     0.253 C 
HETATM    2  N   UNL     1       8.969  30.372  58.224  1.00  0.00    -0.345 N 
HETATM    3  C   UNL     1       9.694  29.964  57.016  1.00  0.00     0.146 C 
HETATM    4  C   UNL     1       9.433  28.489  56.672  1.00  0.00     0.144 C 
HETATM    5  N   UNL     1       7.984  28.213  56.618  1.00  0.00    -0.363 N 
HETATM    6  C   UNL     1       7.244  28.606  57.828  1.00  0.00     0.144 C 
HETATM    7  C   UNL     1       7.527  30.081  58.178  1.00  0.00     0.146 C 
HETATM    8  O   UNL     1      10.515  32.030  58.648  1.00  0.00    -0.267 OA
ENDROOT
BRANCH   5   9
HETATM    9  C   UNL     1       7.410  27.642  55.524  1.00  0.00     0.122 A 
HETATM   10  N   UNL     1       7.140  26.302  55.417  1.00  0.00    -0.262 N 
HETATM   11  H   UNL     1       7.343  25.575  56.090  1.00  0.00     0.191 HD
HETATM   12  N   UNL     1       6.565  25.938  54.260  1.00  0.00    -0.173 NA
HETATM   13  C   UNL     1       6.452  27.084  53.569  1.00  0.00     0.090 A 
HETATM   14  C   UNL     1       6.989  28.165  54.322  1.00  0.00     0.084 A 
BRANCH  13  15
HETATM   15  C   UNL     1       5.850  27.122  52.232  1.00  0.00    -0.005 A 
HETATM   16  C   UNL     1       5.602  28.352  51.600  1.00  0.00     0.015 A 
HETATM   17  C   UNL     1       5.027  28.401  50.326  1.00  0.00     0.024 A 
HETATM   18  C   UNL     1       4.697  27.218  49.671  1.00  0.00     0.034 A 
HETATM   19 CL   UNL     1       3.991  27.274  48.104  1.00  0.00    -0.084 Cl
HETATM   20  C   UNL     1       4.940  25.988  50.278  1.00  0.00     0.024 A 
HETATM   21  C   UNL     1       5.513  25.941  51.553  1.00  0.00     0.015 A 
ENDBRANCH  13  15
ENDBRANCH   5   9
BRANCH   1  22
HETATM   22  C   UNL     1       8.922  31.704  60.311  1.00  0.00     0.032 A 
HETATM   23  C   UNL     1       8.048  32.783  60.472  1.00  0.00     0.020 A 
HETATM   24  C   UNL     1       7.453  33.015  61.713  1.00  0.00     0.038 A 
HETATM   25  C   UNL     1       7.690  32.148  62.784  1.00  0.00     0.068 A 
HETATM   26  C   UNL     1       8.554  31.064  62.620  1.00  0.00     0.038 A 
HETATM   27  C   UNL     1       9.164  30.836  61.381  1.00  0.00     0.020 A 
BRANCH  25  28
HETATM   28  O   UNL     1       7.032  32.470  63.938  1.00  0.00    -0.352 OA
BRANCH  28  29
HETATM   29  C   UNL     1       7.514  33.617  64.637  1.00  0.00     0.171 C 
HETATM   30  C   UNL     1       6.625  33.831  65.849  1.00  0.00     0.034 C 
ENDBRANCH  28  29
ENDBRANCH  25  28
ENDBRANCH   1  22
TORSDOF 5
ENDMDL
MODEL 2
REMARK VINA RESULT:      -9.3      4.562     10.813
REMARK  5 active torsions:
REMARK  status: ('A' for Active; 'I' for Inactive)
REMARK    1  A    between atoms: C_2  and  O_3 
REMARK    2  A    between atoms: O_3  and  C_4 
REMARK    3  A    between atoms: C_7  and  C_8 
REMARK       I    between atoms: C_8  and  N_9 
REMARK    4  A    between atoms: N_12  and  C_13 
REMARK    5  A    between atoms: C_17  and  C_18 
ROOT
HETATM    1  C   UNL     1       7.358  25.760  55.439  1.00  0.00     0.253 C 
HETATM    2  N   UNL     1       7.678  26.982  56.023  1.00  0.00    -0.345 N 
HETATM    3  C   UNL     1       8.582  26.966  57.178  1.00  0.00     0.146 C 
HETATM    4  C   UNL     1       9.381  28.274  57.290  1.00  0.00     0.144 C 
HETATM    5  N   UNL     1       8.479  29.441  57.257  1.00  0.00    -0.363 N 
HETATM    6  C   UNL     1       7.574  29.479  56.096  1.00  0.00     0.144 C 
HETATM    7  C   UNL     1       6.791  28.156  55.981  1.00  0.00     0.146 C 
HETATM    8  O   UNL     1       7.718  24.679  55.901  1.00  0.00    -0.267 OA
ENDROOT
BRANCH   5   9
HETATM    9  C   UNL     1       8.506  30.388  58.234  1.00  0.00     0.122 A 
HETATM   10  N   UNL     1       9.373  31.451  58.243  1.00  0.00    -0.262 N 
HETATM   11  H   UNL     1      10.100  31.660  57.573  1.00  0.00     0.191 HD
HETATM   12  N   UNL     1       9.234  32.276  59.292  1.00  0.00    -0.173 NA
HETATM   13  C   UNL     1       8.238  31.738  60.012  1.00  0.00     0.090 A 
HETATM   14  C   UNL     1       7.772  30.545  59.389  1.00  0.00     0.084 A 
BRANCH  13  15
HETATM   15  C   UNL     1       7.760  32.356  61.253  1.00  0.00    -0.005 A 
HETATM   16  C   UNL     1       6.614  33.168  61.247  1.00  0.00     0.015 A 
HETATM   17  C   UNL     1       6.151  33.764  62.424  1.00  0.00     0.024 A 
HETATM   18  C   UNL     1       6.830  33.550  63.621  1.00  0.00     0.034 A 
HETATM   19 CL   UNL     1       6.263  34.280  65.071  1.00  0.00    -0.084 Cl
HETATM   20  C   UNL     1       7.965  32.744  63.650  1.00  0.00     0.024 A 
HETATM   21  C   UNL     1       8.428  32.150  62.471  1.00  0.00     0.015 A 
ENDBRANCH  13  15
ENDBRANCH   5   9
BRANCH   1  22
HETATM   22  C   UNL     1       6.610  25.751  54.159  1.00  0.00     0.032 A 
HETATM   23  C   UNL     1       7.211  26.190  52.975  1.00  0.00     0.020 A 
HETATM   24  C   UNL     1       6.507  26.116  51.772  1.00  0.00     0.038 A 
HETATM   25  C   UNL     1       5.224  25.564  51.735  1.00  0.00     0.068 A 
HETATM   26  C   UNL     1       4.628  25.115  52.916  1.00  0.00     0.038 A 
HETATM   27  C   UNL     1       5.325  25.201  54.127  1.00  0.00     0.020 A 
BRANCH  25  28
HETATM   28  O   UNL     1       4.650  25.527  50.495  1.00  0.00    -0.352 OA
BRANCH  28  29
HETATM   29  C   UNL     1       4.662  26.752  49.762  1.00  0.00     0.171 C 
HETATM   30  C   UNL     1       3.836  26.548  48.504  1.00  0.00     0.034 C 
ENDBRANCH  28  29
ENDBRANCH  25  28
ENDBRANCH   1  22
TORSDOF 5
ENDMDL
MODEL 3
REMARK VINA RESULT:      -8.9      3.431      5.262
REMARK  5 active torsions:
REMARK  status: ('A' for Active; 'I' for Inactive)
REMARK    1  A    between atoms: C_2  and  O_3 
REMARK    2  A    between atoms: O_3  and  C_4 
REMARK    3  A    between atoms: C_7  and  C_8 
REMARK       I    between atoms: C_8  and  N_9 
REMARK    4  A    between atoms: N_12  and  C_13 
REMARK    5  A    between atoms: C_17  and  C_18 
ROOT
HETATM    1  C   UNL     1       5.162  33.164  62.355  1.00  0.00     0.253 C 
HETATM    2  N   UNL     1       6.005  32.463  61.498  1.00  0.00    -0.345 N 
HETATM    3  C   UNL     1       5.633  32.403  60.080  1.00  0.00     0.146 C 
HETATM    4  C   UNL     1       6.868  32.253  59.178  1.00  0.00     0.144 C 
HETATM    5  N   UNL     1       7.705  31.121  59.622  1.00  0.00    -0.363 N 
HETATM    6  C   UNL     1       8.098  31.174  61.040  1.00  0.00     0.144 C 
HETATM    7  C   UNL     1       6.855  31.344  61.937  1.00  0.00     0.146 C 
HETATM    8  O   UNL     1       4.089  33.646  61.998  1.00  0.00    -0.267 OA
ENDROOT
BRANCH   5   9
HETATM    9  C   UNL     1       8.068  30.127  58.766  1.00  0.00     0.122 A 
HETATM   10  N   UNL     1       9.304  30.039  58.180  1.00  0.00    -0.262 N 
HETATM   11  H   UNL     1      10.079  30.682  58.271  1.00  0.00     0.191 HD
HETATM   12  N   UNL     1       9.465  28.979  57.373  1.00  0.00    -0.173 NA
HETATM   13  C   UNL     1       8.286  28.339  57.422  1.00  0.00     0.090 A 
HETATM   14  C   UNL     1       7.383  29.040  58.269  1.00  0.00     0.084 A 
BRANCH  13  15
HETATM   15  C   UNL     1       8.049  27.099  56.675  1.00  0.00    -0.005 A 
HETATM   16  C   UNL     1       7.504  27.143  55.381  1.00  0.00     0.015 A 
HETATM   17  C   UNL     1       7.271  25.967  54.660  1.00  0.00     0.024 A 
HETATM   18  C   UNL     1       7.586  24.735  55.227  1.00  0.00     0.034 A 
HETATM   19 CL   UNL     1       7.303  23.287  54.344  1.00  0.00    -0.084 Cl
HETATM   20  C   UNL     1       8.132  24.670  56.507  1.00  0.00     0.024 A 
HETATM   21  C   UNL     1       8.362  25.847  57.227  1.00  0.00     0.015 A 
ENDBRANCH  13  15
ENDBRANCH   5   9
BRANCH   1  22
HETATM   22  C   UNL     1       5.602  33.413  63.749  1.00  0.00     0.032 A 
HETATM   23  C   UNL     1       6.953  33.609  64.050  1.00  0.00     0.020 A 
HETATM   24  C   UNL     1       7.337  33.900  65.360  1.00  0.00     0.038 A 
HETATM   25  C   UNL     1       6.375  34.044  66.363  1.00  0.00     0.068 A 
HETATM   26  C   UNL     1       5.025  33.859  66.060  1.00  0.00     0.038 A 
HETATM   27  C   UNL     1       4.637  33.552  64.751  1.00  0.00     0.020 A 
BRANCH  25  28
HETATM   28  O   UNL     1       6.876  34.352  67.597  1.00  0.00    -0.352 OA
BRANCH  28  29
HETATM   29  C   UNL     1       5.936  34.853  68.548  1.00  0.00     0.171 C 
HETATM   30  C   UNL     1       6.393  34.415  69.928  1.00  0.00     0.034 C 
ENDBRANCH  28  29
ENDBRANCH  25  28
ENDBRANCH   1  22
TORSDOF 5
ENDMDL
MODEL 4
REMARK VINA RESULT:      -8.8      4.065      4.944
REMARK  5 active torsions:
REMARK  status: ('A' for Active; 'I' for Inactive)
REMARK    1  A    between atoms: C_2  and  O_3 
REMARK    2  A    between atoms: O_3  and  C_4 
REMARK    3  A    between atoms: C_7  and  C_8 
REMARK       I    between atoms: C_8  and  N_9 
REMARK    4  A    between atoms: N_12  and  C_13 
REMARK    5  A    between atoms: C_17  and  C_18 
ROOT
HETATM    1  C   UNL     1       3.734  31.546  57.590  1.00  0.00     0.253 C 
HETATM    2  N   UNL     1       4.387  30.468  56.999  1.00  0.00    -0.345 N 
HETATM    3  C   UNL     1       3.989  30.099  55.636  1.00  0.00     0.146 C 
HETATM    4  C   UNL     1       5.146  29.439  54.869  1.00  0.00     0.144 C 
HETATM    5  N   UNL     1       5.718  28.321  55.645  1.00  0.00    -0.363 N 
HETATM    6  C   UNL     1       6.134  28.678  57.011  1.00  0.00     0.144 C 
HETATM    7  C   UNL     1       4.974  29.357  57.767  1.00  0.00     0.146 C 
HETATM    8  O   UNL     1       2.790  32.130  57.064  1.00  0.00    -0.267 OA
ENDROOT
BRANCH   5   9
HETATM    9  C   UNL     1       5.837  27.074  55.113  1.00  0.00     0.122 A 
HETATM   10  N   UNL     1       4.996  26.571  54.154  1.00  0.00    -0.262 N 
HETATM   11  H   UNL     1       4.188  27.020  53.743  1.00  0.00     0.191 HD
HETATM   12  N   UNL     1       5.287  25.323  53.755  1.00  0.00    -0.173 NA
HETATM   13  C   UNL     1       6.363  24.982  54.481  1.00  0.00     0.090 A 
HETATM   14  C   UNL     1       6.722  26.047  55.355  1.00  0.00     0.084 A 
BRANCH  13  15
HETATM   15  C   UNL     1       7.012  23.675  54.332  1.00  0.00    -0.005 A 
HETATM   16  C   UNL     1       7.326  22.905  55.465  1.00  0.00     0.015 A 
HETATM   17  C   UNL     1       7.947  21.659  55.335  1.00  0.00     0.024 A 
HETATM   18  C   UNL     1       8.256  21.170  54.069  1.00  0.00     0.034 A 
HETATM   19 CL   UNL     1       9.019  19.637  53.904  1.00  0.00    -0.084 Cl
HETATM   20  C   UNL     1       7.950  21.915  52.933  1.00  0.00     0.024 A 
HETATM   21  C   UNL     1       7.330  23.163  53.065  1.00  0.00     0.015 A 
ENDBRANCH  13  15
ENDBRANCH   5   9
BRANCH   1  22
HETATM   22  C   UNL     1       4.240  32.069  58.882  1.00  0.00     0.032 A 
HETATM   23  C   UNL     1       3.455  32.010  60.037  1.00  0.00     0.020 A 
HETATM   24  C   UNL     1       3.975  32.455  61.253  1.00  0.00     0.038 A 
HETATM   25  C   UNL     1       5.292  32.915  61.333  1.00  0.00     0.068 A 
HETATM   26  C   UNL     1       6.081  32.963  60.182  1.00  0.00     0.038 A 
HETATM   27  C   UNL     1       5.558  32.532  58.957  1.00  0.00     0.020 A 
BRANCH  25  28
HETATM   28  O   UNL     1       5.691  33.299  62.583  1.00  0.00    -0.352 OA
BRANCH  28  29
HETATM   29  C   UNL     1       6.475  32.354  63.310  1.00  0.00     0.171 C 
HETATM   30  C   UNL     1       7.593  33.112  64.002  1.00  0.00     0.034 C 
ENDBRANCH  28  29
ENDBRANCH  25  28
ENDBRANCH   1  22
TORSDOF 5
ENDMDL
MODEL 5
REMARK VINA RESULT:      -8.6      7.041      9.507
REMARK  5 active torsions:
REMARK  status: ('A' for Active; 'I' for Inactive)
REMARK    1  A    between atoms: C_2  and  O_3 
REMARK    2  A    between atoms: O_3  and  C_4 
REMARK    3  A    between atoms: C_7  and  C_8 
REMARK       I    between atoms: C_8  and  N_9 
REMARK    4  A    between atoms: N_12  and  C_13 
REMARK    5  A    between atoms: C_17  and  C_18 
ROOT
HETATM    1  C   UNL     1       6.810  26.406  53.746  1.00  0.00     0.253 C 
HETATM    2  N   UNL     1       6.053  26.754  52.631  1.00  0.00    -0.345 N 
HETATM    3  C   UNL     1       5.819  28.182  52.388  1.00  0.00     0.146 C 
HETATM    4  C   UNL     1       5.620  28.476  50.893  1.00  0.00     0.144 C 
HETATM    5  N   UNL     1       4.582  27.596  50.321  1.00  0.00    -0.363 N 
HETATM    6  C   UNL     1       4.809  26.159  50.545  1.00  0.00     0.144 C 
HETATM    7  C   UNL     1       5.027  25.876  52.045  1.00  0.00     0.146 C 
HETATM    8  O   UNL     1       7.203  27.226  54.574  1.00  0.00    -0.267 OA
ENDROOT
BRANCH   5   9
HETATM    9  C   UNL     1       3.514  28.104  49.647  1.00  0.00     0.122 A 
HETATM   10  N   UNL     1       2.764  29.162  50.093  1.00  0.00    -0.262 N 
HETATM   11  H   UNL     1       2.871  29.675  50.957  1.00  0.00     0.191 HD
HETATM   12  N   UNL     1       1.757  29.515  49.278  1.00  0.00    -0.173 NA
HETATM   13  C   UNL     1       1.840  28.655  48.251  1.00  0.00     0.090 A 
HETATM   14  C   UNL     1       2.916  27.746  48.459  1.00  0.00     0.084 A 
BRANCH  13  15
HETATM   15  C   UNL     1       0.911  28.713  47.118  1.00  0.00    -0.005 A 
HETATM   16  C   UNL     1       0.500  29.953  46.600  1.00  0.00     0.015 A 
HETATM   17  C   UNL     1      -0.387  30.021  45.521  1.00  0.00     0.024 A 
HETATM   18  C   UNL     1      -0.869  28.847  44.948  1.00  0.00     0.034 A 
HETATM   19 CL   UNL     1      -1.959  28.926  43.620  1.00  0.00    -0.084 Cl
HETATM   20  C   UNL     1      -0.470  27.608  45.443  1.00  0.00     0.024 A 
HETATM   21  C   UNL     1       0.415  27.542  46.524  1.00  0.00     0.015 A 
ENDBRANCH  13  15
ENDBRANCH   5   9
BRANCH   1  22
HETATM   22  C   UNL     1       7.232  24.995  53.915  1.00  0.00     0.032 A 
HETATM   23  C   UNL     1       6.958  24.302  55.097  1.00  0.00     0.020 A 
HETATM   24  C   UNL     1       7.311  22.956  55.210  1.00  0.00     0.038 A 
HETATM   25  C   UNL     1       7.894  22.285  54.132  1.00  0.00     0.068 A 
HETATM   26  C   UNL     1       8.157  22.974  52.947  1.00  0.00     0.038 A 
HETATM   27  C   UNL     1       7.818  24.327  52.834  1.00  0.00     0.020 A 
BRANCH  25  28
HETATM   28  O   UNL     1       8.172  20.966  54.360  1.00  0.00    -0.352 OA
BRANCH  28  29
HETATM   29  C   UNL     1       7.817  20.463  55.648  1.00  0.00     0.171 C 
HETATM   30  C   UNL     1       9.089  20.353  56.470  1.00  0.00     0.034 C 
ENDBRANCH  28  29
ENDBRANCH  25  28
ENDBRANCH   1  22
TORSDOF 5
ENDMDL
MODEL 6
REMARK VINA RESULT:      -8.6      6.360      8.782
REMARK  5 active torsions:
REMARK  status: ('A' for Active; 'I' for Inactive)
REMARK    1  A    between atoms: C_2  and  O_3 
REMARK    2  A    between atoms: O_3  and  C_4 
REMARK    3  A    between atoms: C_7  and  C_8 
REMARK       I    between atoms: C_8  and  N_9 
REMARK    4  A    between atoms: N_12  and  C_13 
REMARK    5  A    between atoms: C_17  and  C_18 
ROOT
HETATM    1  C   UNL     1       5.955  27.255  54.314  1.00  0.00     0.253 C 
HETATM    2  N   UNL     1       5.602  27.178  52.970  1.00  0.00    -0.345 N 
HETATM    3  C   UNL     1       5.258  28.429  52.285  1.00  0.00     0.146 C 
HETATM    4  C   UNL     1       5.563  28.353  50.781  1.00  0.00     0.144 C 
HETATM    5  N   UNL     1       4.942  27.156  50.181  1.00  0.00    -0.363 N 
HETATM    6  C   UNL     1       5.288  25.891  50.849  1.00  0.00     0.144 C 
HETATM    7  C   UNL     1       4.996  25.982  52.360  1.00  0.00     0.146 C 
HETATM    8  O   UNL     1       5.899  28.297  54.964  1.00  0.00    -0.267 OA
ENDROOT
BRANCH   5   9
HETATM    9  C   UNL     1       4.121  27.249  49.100  1.00  0.00     0.122 A 
HETATM   10  N   UNL     1       4.299  26.534  47.943  1.00  0.00    -0.262 N 
HETATM   11  H   UNL     1       5.045  25.887  47.726  1.00  0.00     0.191 HD
HETATM   12  N   UNL     1       3.376  26.762  46.997  1.00  0.00    -0.173 NA
HETATM   13  C   UNL     1       2.552  27.670  47.545  1.00  0.00     0.090 A 
HETATM   14  C   UNL     1       3.000  28.010  48.853  1.00  0.00     0.084 A 
BRANCH  13  15
HETATM   15  C   UNL     1       1.381  28.184  46.827  1.00  0.00    -0.005 A 
HETATM   16  C   UNL     1       0.419  27.299  46.313  1.00  0.00     0.015 A 
HETATM   17  C   UNL     1      -0.700  27.778  45.624  1.00  0.00     0.024 A 
HETATM   18  C   UNL     1      -0.868  29.149  45.447  1.00  0.00     0.034 A 
HETATM   19 CL   UNL     1      -2.244  29.742  44.603  1.00  0.00    -0.084 Cl
HETATM   20  C   UNL     1       0.072  30.043  45.954  1.00  0.00     0.024 A 
HETATM   21  C   UNL     1       1.192  29.562  46.640  1.00  0.00     0.015 A 
ENDBRANCH  13  15
ENDBRANCH   5   9
BRANCH   1  22
HETATM   22  C   UNL     1       6.496  26.048  54.984  1.00  0.00     0.032 A 
HETATM   23  C   UNL     1       7.549  25.325  54.417  1.00  0.00     0.020 A 
HETATM   24  C   UNL     1       8.080  24.227  55.095  1.00  0.00     0.038 A 
HETATM   25  C   UNL     1       7.598  23.875  56.358  1.00  0.00     0.068 A 
HETATM   26  C   UNL     1       6.554  24.605  56.930  1.00  0.00     0.038 A 
HETATM   27  C   UNL     1       6.009  25.697  56.247  1.00  0.00     0.020 A 
BRANCH  25  28
HETATM   28  O   UNL     1       8.216  22.797  56.928  1.00  0.00    -0.352 OA
BRANCH  28  29
HETATM   29  C   UNL     1       8.702  21.803  56.027  1.00  0.00     0.171 C 
HETATM   30  C   UNL     1       7.861  20.553  56.216  1.00  0.00     0.034 C 
ENDBRANCH  28  29
ENDBRANCH  25  28
ENDBRANCH   1  22
TORSDOF 5
ENDMDL
MODEL 7
REMARK VINA RESULT:      -8.4      5.303     10.555
REMARK  5 active torsions:
REMARK  status: ('A' for Active; 'I' for Inactive)
REMARK    1  A    between atoms: C_2  and  O_3 
REMARK    2  A    between atoms: O_3  and  C_4 
REMARK    3  A    between atoms: C_7  and  C_8 
REMARK       I    between atoms: C_8  and  N_9 
REMARK    4  A    between atoms: N_12  and  C_13 
REMARK    5  A    between atoms: C_17  and  C_18 
ROOT
HETATM    1  C   UNL     1       5.413  26.584  53.705  1.00  0.00     0.253 C 
HETATM    2  N   UNL     1       5.470  27.420  54.816  1.00  0.00    -0.345 N 
HETATM    3  C   UNL     1       4.458  28.476  54.923  1.00  0.00     0.146 C 
HETATM    4  C   UNL     1       4.176  28.844  56.388  1.00  0.00     0.144 C 
HETATM    5  N   UNL     1       5.432  29.149  57.101  1.00  0.00    -0.363 N 
HETATM    6  C   UNL     1       6.454  28.094  57.014  1.00  0.00     0.144 C 
HETATM    7  C   UNL     1       6.716  27.717  55.542  1.00  0.00     0.146 C 
HETATM    8  O   UNL     1       4.624  26.750  52.779  1.00  0.00    -0.267 OA
ENDROOT
BRANCH   5   9
HETATM    9  C   UNL     1       5.600  30.321  57.773  1.00  0.00     0.122 A 
HETATM   10  N   UNL     1       6.804  30.968  57.889  1.00  0.00    -0.262 N 
HETATM   11  H   UNL     1       7.702  30.670  57.534  1.00  0.00     0.191 HD
HETATM   12  N   UNL     1       6.758  32.113  58.587  1.00  0.00    -0.173 NA
HETATM   13  C   UNL     1       5.471  32.230  58.952  1.00  0.00     0.090 A 
HETATM   14  C   UNL     1       4.724  31.117  58.477  1.00  0.00     0.084 A 
BRANCH  13  15
HETATM   15  C   UNL     1       4.992  33.376  59.733  1.00  0.00    -0.005 A 
HETATM   16  C   UNL     1       4.236  34.388  59.118  1.00  0.00     0.015 A 
HETATM   17  C   UNL     1       3.775  35.486  59.851  1.00  0.00     0.024 A 
HETATM   18  C   UNL     1       4.063  35.578  61.210  1.00  0.00     0.034 A 
HETATM   19 CL   UNL     1       3.497  36.926  62.117  1.00  0.00    -0.084 Cl
HETATM   20  C   UNL     1       4.807  34.584  61.840  1.00  0.00     0.024 A 
HETATM   21  C   UNL     1       5.269  33.487  61.104  1.00  0.00     0.015 A 
ENDBRANCH  13  15
ENDBRANCH   5   9
BRANCH   1  22
HETATM   22  C   UNL     1       6.292  25.390  53.661  1.00  0.00     0.032 A 
HETATM   23  C   UNL     1       7.124  25.153  52.563  1.00  0.00     0.020 A 
HETATM   24  C   UNL     1       7.986  24.055  52.571  1.00  0.00     0.038 A 
HETATM   25  C   UNL     1       8.056  23.218  53.687  1.00  0.00     0.068 A 
HETATM   26  C   UNL     1       7.232  23.461  54.789  1.00  0.00     0.038 A 
HETATM   27  C   UNL     1       6.357  24.553  54.779  1.00  0.00     0.020 A 
BRANCH  25  28
HETATM   28  O   UNL     1       8.954  22.193  53.581  1.00  0.00    -0.352 OA
BRANCH  28  29
HETATM   29  C   UNL     1       8.401  20.893  53.375  1.00  0.00     0.171 C 
HETATM   30  C   UNL     1       8.736  20.048  54.592  1.00  0.00     0.034 C 
ENDBRANCH  28  29
ENDBRANCH  25  28
ENDBRANCH   1  22
TORSDOF 5
ENDMDL
MODEL 8
REMARK VINA RESULT:      -8.2      4.321      5.249
REMARK  5 active torsions:
REMARK  status: ('A' for Active; 'I' for Inactive)
REMARK    1  A    between atoms: C_2  and  O_3 
REMARK    2  A    between atoms: O_3  and  C_4 
REMARK    3  A    between atoms: C_7  and  C_8 
REMARK       I    between atoms: C_8  and  N_9 
REMARK    4  A    between atoms: N_12  and  C_13 
REMARK    5  A    between atoms: C_17  and  C_18 
ROOT
HETATM    1  C   UNL     1       3.500  31.653  57.101  1.00  0.00     0.253 C 
HETATM    2  N   UNL     1       4.487  30.699  56.872  1.00  0.00    -0.345 N 
HETATM    3  C   UNL     1       4.311  29.802  55.724  1.00  0.00     0.146 C 
HETATM    4  C   UNL     1       5.661  29.320  55.171  1.00  0.00     0.144 C 
HETATM    5  N   UNL     1       6.494  28.751  56.249  1.00  0.00    -0.363 N 
HETATM    6  C   UNL     1       6.691  29.644  57.402  1.00  0.00     0.144 C 
HETATM    7  C   UNL     1       5.333  30.138  57.939  1.00  0.00     0.146 C 
HETATM    8  O   UNL     1       2.459  31.713  56.451  1.00  0.00    -0.267 OA
ENDROOT
BRANCH   5   9
HETATM    9  C   UNL     1       7.022  27.500  56.153  1.00  0.00     0.122 A 
HETATM   10  N   UNL     1       7.740  26.897  57.153  1.00  0.00    -0.262 N 
HETATM   11  H   UNL     1       7.995  27.285  58.051  1.00  0.00     0.191 HD
HETATM   12  N   UNL     1       8.168  25.658  56.865  1.00  0.00    -0.173 NA
HETATM   13  C   UNL     1       7.719  25.430  55.620  1.00  0.00     0.090 A 
HETATM   14  C   UNL     1       7.014  26.569  55.138  1.00  0.00     0.084 A 
BRANCH  13  15
HETATM   15  C   UNL     1       7.966  24.160  54.930  1.00  0.00    -0.005 A 
HETATM   16  C   UNL     1       8.784  23.180  55.518  1.00  0.00     0.015 A 
HETATM   17  C   UNL     1       9.029  21.966  54.868  1.00  0.00     0.024 A 
HETATM   18  C   UNL     1       8.452  21.719  53.625  1.00  0.00     0.034 A 
HETATM   19 CL   UNL     1       8.749  20.227  52.824  1.00  0.00    -0.084 Cl
HETATM   20  C   UNL     1       7.634  22.675  53.028  1.00  0.00     0.024 A 
HETATM   21  C   UNL     1       7.393  23.890  53.678  1.00  0.00     0.015 A 
ENDBRANCH  13  15
ENDBRANCH   5   9
BRANCH   1  22
HETATM   22  C   UNL     1       3.737  32.698  58.126  1.00  0.00     0.032 A 
HETATM   23  C   UNL     1       4.258  33.946  57.770  1.00  0.00     0.020 A 
HETATM   24  C   UNL     1       4.416  34.934  58.743  1.00  0.00     0.038 A 
HETATM   25  C   UNL     1       4.014  34.700  60.061  1.00  0.00     0.068 A 
HETATM   26  C   UNL     1       3.483  33.458  60.414  1.00  0.00     0.038 A 
HETATM   27  C   UNL     1       3.336  32.459  59.444  1.00  0.00     0.020 A 
BRANCH  25  28
HETATM   28  O   UNL     1       4.199  35.753  60.913  1.00  0.00    -0.352 OA
BRANCH  28  29
HETATM   29  C   UNL     1       4.424  35.420  62.282  1.00  0.00     0.171 C 
HETATM   30  C   UNL     1       5.909  35.158  62.459  1.00  0.00     0.034 C 
ENDBRANCH  28  29
ENDBRANCH  25  28
ENDBRANCH   1  22
TORSDOF 5
ENDMDL
MODEL 9
REMARK VINA RESULT:      -8.0      5.610     10.010
REMARK  5 active torsions:
REMARK  status: ('A' for Active; 'I' for Inactive)
REMARK    1  A    between atoms: C_2  and  O_3 
REMARK    2  A    between atoms: O_3  and  C_4 
REMARK    3  A    between atoms: C_7  and  C_8 
REMARK       I    between atoms: C_8  and  N_9 
REMARK    4  A    between atoms: N_12  and  C_13 
REMARK    5  A    between atoms: C_17  and  C_18 
ROOT
HETATM    1  C   UNL     1       8.025  25.894  57.039  1.00  0.00     0.253 C 
HETATM    2  N   UNL     1       7.271  27.064  57.041  1.00  0.00    -0.345 N 
HETATM    3  C   UNL     1       7.660  28.120  57.981  1.00  0.00     0.146 C 
HETATM    4  C   UNL     1       7.272  29.513  57.459  1.00  0.00     0.144 C 
HETATM    5  N   UNL     1       5.847  29.550  57.079  1.00  0.00    -0.363 N 
HETATM    6  C   UNL     1       5.443  28.504  56.125  1.00  0.00     0.144 C 
HETATM    7  C   UNL     1       5.853  27.112  56.647  1.00  0.00     0.146 C 
HETATM    8  O   UNL     1       8.928  25.676  57.843  1.00  0.00    -0.267 OA
ENDROOT
BRANCH   5   9
HETATM    9  C   UNL     1       5.001  30.488  57.586  1.00  0.00     0.122 A 
HETATM   10  N   UNL     1       3.901  30.190  58.348  1.00  0.00    -0.262 N 
HETATM   11  H   UNL     1       3.559  29.275  58.609  1.00  0.00     0.191 HD
HETATM   12  N   UNL     1       3.199  31.258  58.759  1.00  0.00    -0.173 NA
HETATM   13  C   UNL     1       3.858  32.309  58.244  1.00  0.00     0.090 A 
HETATM   14  C   UNL     1       4.979  31.862  57.489  1.00  0.00     0.084 A 
BRANCH  13  15
HETATM   15  C   UNL     1       3.414  33.687  58.476  1.00  0.00    -0.005 A 
HETATM   16  C   UNL     1       2.951  34.473  57.407  1.00  0.00     0.015 A 
HETATM   17  C   UNL     1       2.527  35.789  57.616  1.00  0.00     0.024 A 
HETATM   18  C   UNL     1       2.560  36.330  58.898  1.00  0.00     0.034 A 
HETATM   19 CL   UNL     1       2.038  37.948  59.160  1.00  0.00    -0.084 Cl
HETATM   20  C   UNL     1       3.011  35.567  59.972  1.00  0.00     0.024 A 
HETATM   21  C   UNL     1       3.436  34.251  59.761  1.00  0.00     0.015 A 
ENDBRANCH  13  15
ENDBRANCH   5   9
BRANCH   1  22
HETATM   22  C   UNL     1       7.787  24.890  55.975  1.00  0.00     0.032 A 
HETATM   23  C   UNL     1       7.807  25.256  54.625  1.00  0.00     0.020 A 
HETATM   24  C   UNL     1       7.639  24.282  53.640  1.00  0.00     0.038 A 
HETATM   25  C   UNL     1       7.499  22.937  53.991  1.00  0.00     0.068 A 
HETATM   26  C   UNL     1       7.491  22.569  55.338  1.00  0.00     0.038 A 
HETATM   27  C   UNL     1       7.644  23.545  56.330  1.00  0.00     0.020 A 
BRANCH  25  28
HETATM   28  O   UNL     1       7.366  22.079  52.935  1.00  0.00    -0.352 OA
BRANCH  28  29
HETATM   29  C   UNL     1       7.540  20.693  53.228  1.00  0.00     0.171 C 
HETATM   30  C   UNL     1       8.978  20.326  52.907  1.00  0.00     0.034 C 
ENDBRANCH  28  29
ENDBRANCH  25  28
ENDBRANCH   1  22
TORSDOF 5
ENDMDL
MODEL 10
REMARK VINA RESULT:      -7.7      3.838      4.854
REMARK  5 active torsions:
REMARK  status: ('A' for Active; 'I' for Inactive)
REMARK    1  A    between atoms: C_2  and  O_3 
REMARK    2  A    between atoms: O_3  and  C_4 
REMARK    3  A    between atoms: C_7  and  C_8 
REMARK       I    between atoms: C_8  and  N_9 
REMARK    4  A    between atoms: N_12  and  C_13 
REMARK    5  A    between atoms: C_17  and  C_18 
ROOT
HETATM    1  C   UNL     1       3.173  33.904  59.098  1.00  0.00     0.253 C 
HETATM    2  N   UNL     1       3.849  32.973  58.315  1.00  0.00    -0.345 N 
HETATM    3  C   UNL     1       3.500  32.902  56.892  1.00  0.00     0.146 C 
HETATM    4  C   UNL     1       4.685  32.414  56.044  1.00  0.00     0.144 C 
HETATM    5  N   UNL     1       5.232  31.154  56.585  1.00  0.00    -0.363 N 
HETATM    6  C   UNL     1       5.598  31.212  58.010  1.00  0.00     0.144 C 
HETATM    7  C   UNL     1       4.411  31.722  58.851  1.00  0.00     0.146 C 
HETATM    8  O   UNL     1       2.246  34.591  58.675  1.00  0.00    -0.267 OA
ENDROOT
BRANCH   5   9
HETATM    9  C   UNL     1       5.372  30.047  55.805  1.00  0.00     0.122 A 
HETATM   10  N   UNL     1       4.651  29.824  54.661  1.00  0.00    -0.262 N 
HETATM   11  H   UNL     1       3.926  30.406  54.264  1.00  0.00     0.191 HD
HETATM   12  N   UNL     1       4.944  28.676  54.031  1.00  0.00    -0.173 NA
HETATM   13  C   UNL     1       5.896  28.111  54.790  1.00  0.00     0.090 A 
HETATM   14  C   UNL     1       6.174  28.933  55.919  1.00  0.00     0.084 A 
BRANCH  13  15
HETATM   15  C   UNL     1       6.507  26.826  54.434  1.00  0.00    -0.005 A 
HETATM   16  C   UNL     1       6.299  25.694  55.239  1.00  0.00     0.015 A 
HETATM   17  C   UNL     1       6.878  24.464  54.910  1.00  0.00     0.024 A 
HETATM   18  C   UNL     1       7.668  24.356  53.769  1.00  0.00     0.034 A 
HETATM   19 CL   UNL     1       8.381  22.845  53.360  1.00  0.00    -0.084 Cl
HETATM   20  C   UNL     1       7.883  25.465  52.955  1.00  0.00     0.024 A 
HETATM   21  C   UNL     1       7.305  26.695  53.287  1.00  0.00     0.015 A 
ENDBRANCH  13  15
ENDBRANCH   5   9
BRANCH   1  22
HETATM   22  C   UNL     1       3.632  34.140  60.488  1.00  0.00     0.032 A 
HETATM   23  C   UNL     1       2.920  33.625  61.575  1.00  0.00     0.020 A 
HETATM   24  C   UNL     1       3.404  33.810  62.871  1.00  0.00     0.038 A 
HETATM   25  C   UNL     1       4.619  34.464  63.086  1.00  0.00     0.068 A 
HETATM   26  C   UNL     1       5.337  34.968  61.999  1.00  0.00     0.038 A 
HETATM   27  C   UNL     1       4.848  34.799  60.699  1.00  0.00     0.020 A 
BRANCH  25  28
HETATM   28  O   UNL     1       4.995  34.561  64.397  1.00  0.00    -0.352 OA
BRANCH  28  29
HETATM   29  C   UNL     1       5.685  33.433  64.936  1.00  0.00     0.171 C 
HETATM   30  C   UNL     1       7.160  33.787  65.020  1.00  0.00     0.034 C 
ENDBRANCH  28  29
ENDBRANCH  25  28
ENDBRANCH   1  22
TORSDOF 5
ENDMDL
