MODEL 1
REMARK VINA RESULT:      -9.0      0.000      0.000
REMARK  8 active torsions:
REMARK  status: ('A' for Active; 'I' for Inactive)
REMARK    1  A    between atoms: C_3  and  C_4 
REMARK    2  A    between atoms: C_4  and  C_5 
REMARK    3  A    between atoms: C_5  and  N_6 
REMARK       I    between atoms: N_6  and  C_7 
REMARK    4  A    between atoms: C_7  and  C_8 
REMARK    5  A    between atoms: C_8  and  S_9 
REMARK    6  A    between atoms: S_9  and  C_10 
REMARK    7  A    between atoms: C_13  and  C_14 
REMARK    8  A    between atoms: C_15  and  O_16 
ROOT
HETATM    1  S   UNL     1       4.666  28.243  55.762  1.00  0.00    -0.081 SA
ENDROOT
BRANCH   1   2
HETATM    2  C   UNL     1       5.515  27.869  54.204  1.00  0.00     0.185 C 
BRANCH   2   3
HETATM    3  C   UNL     1       5.616  26.368  53.954  1.00  0.00     0.227 C 
HETATM    4  N   UNL     1       6.376  26.051  52.838  1.00  0.00    -0.360 N 
HETATM    5  H   UNL     1       6.594  26.787  52.178  1.00  0.00     0.162 HD
HETATM    6  O   UNL     1       5.106  25.505  54.665  1.00  0.00    -0.273 OA
BRANCH   4   7
HETATM    7  C   UNL     1       6.522  24.671  52.407  1.00  0.00     0.127 C 
BRANCH   7   8
HETATM    8  C   UNL     1       7.937  24.146  52.648  1.00  0.00     0.058 C 
BRANCH   8   9
HETATM    9  C   UNL     1       7.953  22.916  53.526  1.00  0.00    -0.051 A 
HETATM   10  C   UNL     1       8.018  22.973  54.933  1.00  0.00    -0.056 A 
HETATM   11  C   UNL     1       8.077  24.254  55.720  1.00  0.00     0.049 C 
HETATM   12  C   UNL     1       8.052  21.771  55.664  1.00  0.00     0.007 A 
HETATM   13  C   UNL     1       8.019  20.534  55.022  1.00  0.00     0.001 A 
HETATM   14  C   UNL     1       7.958  20.477  53.637  1.00  0.00     0.001 A 
HETATM   15  C   UNL     1       7.928  21.658  52.894  1.00  0.00     0.007 A 
ENDBRANCH   8   9
ENDBRANCH   7   8
ENDBRANCH   4   7
ENDBRANCH   2   3
ENDBRANCH   1   2
BRANCH   1  16
HETATM   16  C   UNL     1       6.042  28.439  56.787  1.00  0.00     0.191 A 
HETATM   17  N   UNL     1       6.473  29.636  57.281  1.00  0.00    -0.312 N 
HETATM   18  C   UNL     1       5.918  30.945  57.049  1.00  0.00     0.160 C 
HETATM   19  C   UNL     1       7.544  29.338  58.096  1.00  0.00     0.166 A 
HETATM   20  N   UNL     1       7.751  28.033  58.057  1.00  0.00    -0.128 NA
HETATM   21  N   UNL     1       6.797  27.468  57.241  1.00  0.00    -0.122 NA
BRANCH  19  22
HETATM   22  C   UNL     1       8.295  30.306  58.886  1.00  0.00     0.045 A 
HETATM   23  C   UNL     1       9.481  30.879  58.409  1.00  0.00     0.082 A 
HETATM   24  C   UNL     1      10.172  31.825  59.170  1.00  0.00     0.038 A 
HETATM   25  C   UNL     1       9.699  32.181  60.433  1.00  0.00     0.003 A 
HETATM   26  C   UNL     1       8.532  31.601  60.929  1.00  0.00     0.001 A 
HETATM   27  C   UNL     1       7.832  30.668  60.159  1.00  0.00     0.018 A 
BRANCH  23  28
HETATM   28  O   UNL     1       9.926  30.582  57.144  1.00  0.00    -0.355 OA
HETATM   29  C   UNL     1      11.159  29.865  57.207  1.00  0.00     0.210 C 
ENDBRANCH  23  28
ENDBRANCH  19  22
ENDBRANCH   1  16
TORSDOF 8
ENDMDL
MODEL 2
REMARK VINA RESULT:      -8.9      2.087      9.597
REMARK  8 active torsions:
REMARK  status: ('A' for Active; 'I' for Inactive)
REMARK    1  A    between atoms: C_3  and  C_4 
REMARK    2  A    between atoms: C_4  and  C_5 
REMARK    3  A    between atoms: C_5  and  N_6 
REMARK       I    between atoms: N_6  and  C_7 
REMARK    4  A    between atoms: C_7  and  C_8 
REMARK    5  A    between atoms: C_8  and  S_9 
REMARK    6  A    between atoms: S_9  and  C_10 
REMARK    7  A    between atoms: C_13  and  C_14 
REMARK    8  A    between atoms: C_15  and  O_16 
ROOT
HETATM    1  S   UNL     1       6.367  27.687  57.310  1.00  0.00    -0.081 SA
ENDROOT
BRANCH   1   2
HETATM    2  C   UNL     1       7.556  28.891  56.655  1.00  0.00     0.185 C 
BRANCH   2   3
HETATM    3  C   UNL     1       8.503  29.404  57.735  1.00  0.00     0.227 C 
HETATM    4  N   UNL     1       7.842  29.849  58.870  1.00  0.00    -0.360 N 
HETATM    5  H   UNL     1       6.846  30.017  58.815  1.00  0.00     0.162 HD
HETATM    6  O   UNL     1       9.728  29.413  57.644  1.00  0.00    -0.273 OA
BRANCH   4   7
HETATM    7  C   UNL     1       8.581  30.440  59.974  1.00  0.00     0.127 C 
BRANCH   7   8
HETATM    8  C   UNL     1       8.380  31.953  60.048  1.00  0.00     0.058 C 
BRANCH   8   9
HETATM    9  C   UNL     1       7.725  32.385  61.340  1.00  0.00    -0.051 A 
HETATM   10  C   UNL     1       6.402  32.868  61.411  1.00  0.00    -0.056 A 
HETATM   11  C   UNL     1       5.495  33.009  60.219  1.00  0.00     0.049 C 
HETATM   12  C   UNL     1       5.888  33.268  62.658  1.00  0.00     0.007 A 
HETATM   13  C   UNL     1       6.660  33.191  63.817  1.00  0.00     0.001 A 
HETATM   14  C   UNL     1       7.963  32.717  63.747  1.00  0.00     0.001 A 
HETATM   15  C   UNL     1       8.492  32.320  62.519  1.00  0.00     0.007 A 
ENDBRANCH   8   9
ENDBRANCH   7   8
ENDBRANCH   4   7
ENDBRANCH   2   3
ENDBRANCH   1   2
BRANCH   1  16
HETATM   16  C   UNL     1       7.233  26.231  56.970  1.00  0.00     0.191 A 
HETATM   17  N   UNL     1       6.839  25.293  56.061  1.00  0.00    -0.312 N 
HETATM   18  C   UNL     1       5.658  25.295  55.236  1.00  0.00     0.160 C 
HETATM   19  C   UNL     1       7.835  24.341  56.055  1.00  0.00     0.166 A 
HETATM   20  N   UNL     1       8.753  24.687  56.941  1.00  0.00    -0.128 NA
HETATM   21  N   UNL     1       8.377  25.883  57.509  1.00  0.00    -0.122 NA
BRANCH  19  22
HETATM   22  C   UNL     1       7.873  23.168  55.189  1.00  0.00     0.045 A 
HETATM   23  C   UNL     1       8.092  23.283  53.809  1.00  0.00     0.082 A 
HETATM   24  C   UNL     1       8.152  22.145  53.001  1.00  0.00     0.038 A 
HETATM   25  C   UNL     1       7.958  20.883  53.561  1.00  0.00     0.003 A 
HETATM   26  C   UNL     1       7.717  20.757  54.928  1.00  0.00     0.001 A 
HETATM   27  C   UNL     1       7.675  21.894  55.739  1.00  0.00     0.018 A 
BRANCH  23  28
HETATM   28  O   UNL     1       8.342  24.513  53.255  1.00  0.00    -0.355 OA
HETATM   29  C   UNL     1       7.544  24.704  52.086  1.00  0.00     0.210 C 
ENDBRANCH  23  28
ENDBRANCH  19  22
ENDBRANCH   1  16
TORSDOF 8
ENDMDL
MODEL 3
REMARK VINA RESULT:      -8.8      3.284      6.893
REMARK  8 active torsions:
REMARK  status: ('A' for Active; 'I' for Inactive)
REMARK    1  A    between atoms: C_3  and  C_4 
REMARK    2  A    between atoms: C_4  and  C_5 
REMARK    3  A    between atoms: C_5  and  N_6 
REMARK       I    between atoms: N_6  and  C_7 
REMARK    4  A    between atoms: C_7  and  C_8 
REMARK    5  A    between atoms: C_8  and  S_9 
REMARK    6  A    between atoms: S_9  and  C_10 
REMARK    7  A    between atoms: C_13  and  C_14 
REMARK    8  A    between atoms: C_15  and  O_16 
ROOT
HETATM    1  S   UNL     1       5.015  27.719  55.530  1.00  0.00    -0.081 SA
ENDROOT
BRANCH   1   2
HETATM    2  C   UNL     1       6.661  28.073  56.204  1.00  0.00     0.185 C 
BRANCH   2   3
HETATM    3  C   UNL     1       7.223  26.892  56.988  1.00  0.00     0.227 C 
HETATM    4  N   UNL     1       7.053  25.678  56.340  1.00  0.00    -0.360 N 
HETATM    5  H   UNL     1       6.403  25.631  55.565  1.00  0.00     0.162 HD
HETATM    6  O   UNL     1       7.792  26.980  58.074  1.00  0.00    -0.273 OA
BRANCH   4   7
HETATM    7  C   UNL     1       7.463  24.435  56.972  1.00  0.00     0.127 C 
BRANCH   7   8
HETATM    8  C   UNL     1       8.717  23.852  56.319  1.00  0.00     0.058 C 
BRANCH   8   9
HETATM    9  C   UNL     1       8.388  22.823  55.262  1.00  0.00    -0.051 A 
HETATM   10  C   UNL     1       8.276  21.444  55.535  1.00  0.00    -0.056 A 
HETATM   11  C   UNL     1       8.467  20.841  56.900  1.00  0.00     0.049 C 
HETATM   12  C   UNL     1       7.990  20.560  54.478  1.00  0.00     0.007 A 
HETATM   13  C   UNL     1       7.814  21.025  53.175  1.00  0.00     0.001 A 
HETATM   14  C   UNL     1       7.927  22.382  52.905  1.00  0.00     0.001 A 
HETATM   15  C   UNL     1       8.215  23.273  53.939  1.00  0.00     0.007 A 
ENDBRANCH   8   9
ENDBRANCH   7   8
ENDBRANCH   4   7
ENDBRANCH   2   3
ENDBRANCH   1   2
BRANCH   1  16
HETATM   16  C   UNL     1       5.463  27.296  53.915  1.00  0.00     0.191 A 
HETATM   17  N   UNL     1       4.776  27.676  52.799  1.00  0.00    -0.312 N 
HETATM   18  C   UNL     1       3.569  28.459  52.722  1.00  0.00     0.160 C 
HETATM   19  C   UNL     1       5.502  27.190  51.733  1.00  0.00     0.166 A 
HETATM   20  N   UNL     1       6.546  26.529  52.202  1.00  0.00    -0.128 NA
HETATM   21  N   UNL     1       6.525  26.606  53.577  1.00  0.00    -0.122 NA
BRANCH  19  22
HETATM   22  C   UNL     1       5.178  27.403  50.328  1.00  0.00     0.045 A 
HETATM   23  C   UNL     1       5.446  28.621  49.690  1.00  0.00     0.082 A 
HETATM   24  C   UNL     1       5.152  28.796  48.335  1.00  0.00     0.038 A 
HETATM   25  C   UNL     1       4.555  27.763  47.614  1.00  0.00     0.003 A 
HETATM   26  C   UNL     1       4.262  26.553  48.243  1.00  0.00     0.001 A 
HETATM   27  C   UNL     1       4.573  26.373  49.593  1.00  0.00     0.018 A 
BRANCH  23  28
HETATM   28  O   UNL     1       6.087  29.626  50.372  1.00  0.00    -0.355 OA
HETATM   29  C   UNL     1       5.317  30.828  50.325  1.00  0.00     0.210 C 
ENDBRANCH  23  28
ENDBRANCH  19  22
ENDBRANCH   1  16
TORSDOF 8
ENDMDL
MODEL 4
REMARK VINA RESULT:      -8.8      1.544      2.161
REMARK  8 active torsions:
REMARK  status: ('A' for Active; 'I' for Inactive)
REMARK    1  A    between atoms: C_3  and  C_4 
REMARK    2  A    between atoms: C_4  and  C_5 
REMARK    3  A    between atoms: C_5  and  N_6 
REMARK       I    between atoms: N_6  and  C_7 
REMARK    4  A    between atoms: C_7  and  C_8 
REMARK    5  A    between atoms: C_8  and  S_9 
REMARK    6  A    between atoms: S_9  and  C_10 
REMARK    7  A    between atoms: C_13  and  C_14 
REMARK    8  A    between atoms: C_15  and  O_16 
ROOT
HETATM    1  S   UNL     1       5.677  29.593  55.457  1.00  0.00    -0.081 SA
ENDROOT
BRANCH   1   2
HETATM    2  C   UNL     1       4.595  28.384  56.268  1.00  0.00     0.185 C 
BRANCH   2   3
HETATM    3  C   UNL     1       5.132  26.962  56.140  1.00  0.00     0.227 C 
HETATM    4  N   UNL     1       5.168  26.509  54.830  1.00  0.00    -0.360 N 
HETATM    5  H   UNL     1       4.650  27.022  54.128  1.00  0.00     0.162 HD
HETATM    6  O   UNL     1       5.520  26.274  57.081  1.00  0.00    -0.273 OA
BRANCH   4   7
HETATM    7  C   UNL     1       5.584  25.150  54.526  1.00  0.00     0.127 C 
BRANCH   7   8
HETATM    8  C   UNL     1       7.084  25.065  54.241  1.00  0.00     0.058 C 
BRANCH   8   9
HETATM    9  C   UNL     1       7.598  23.644  54.286  1.00  0.00    -0.051 A 
HETATM   10  C   UNL     1       8.156  23.061  55.443  1.00  0.00    -0.056 A 
HETATM   11  C   UNL     1       8.303  23.779  56.757  1.00  0.00     0.049 C 
HETATM   12  C   UNL     1       8.629  21.738  55.379  1.00  0.00     0.007 A 
HETATM   13  C   UNL     1       8.552  20.999  54.199  1.00  0.00     0.001 A 
HETATM   14  C   UNL     1       8.005  21.573  53.060  1.00  0.00     0.001 A 
HETATM   15  C   UNL     1       7.534  22.885  53.102  1.00  0.00     0.007 A 
ENDBRANCH   8   9
ENDBRANCH   7   8
ENDBRANCH   4   7
ENDBRANCH   2   3
ENDBRANCH   1   2
BRANCH   1  16
HETATM   16  C   UNL     1       5.978  30.639  56.799  1.00  0.00     0.191 A 
HETATM   17  N   UNL     1       6.807  30.340  57.841  1.00  0.00    -0.312 N 
HETATM   18  C   UNL     1       7.563  29.134  58.057  1.00  0.00     0.160 C 
HETATM   19  C   UNL     1       6.812  31.460  58.644  1.00  0.00     0.166 A 
HETATM   20  N   UNL     1       6.000  32.360  58.116  1.00  0.00    -0.128 NA
HETATM   21  N   UNL     1       5.484  31.844  56.948  1.00  0.00    -0.122 NA
BRANCH  19  22
HETATM   22  C   UNL     1       7.607  31.623  59.855  1.00  0.00     0.045 A 
HETATM   23  C   UNL     1       8.965  31.968  59.799  1.00  0.00     0.082 A 
HETATM   24  C   UNL     1       9.703  32.147  60.972  1.00  0.00     0.038 A 
HETATM   25  C   UNL     1       9.098  31.947  62.212  1.00  0.00     0.003 A 
HETATM   26  C   UNL     1       7.754  31.581  62.281  1.00  0.00     0.001 A 
HETATM   27  C   UNL     1       7.011  31.421  61.108  1.00  0.00     0.018 A 
BRANCH  23  28
HETATM   28  O   UNL     1       9.557  32.225  58.587  1.00  0.00    -0.355 OA
HETATM   29  C   UNL     1      10.497  31.199  58.267  1.00  0.00     0.210 C 
ENDBRANCH  23  28
ENDBRANCH  19  22
ENDBRANCH   1  16
TORSDOF 8
ENDMDL
MODEL 5
REMARK VINA RESULT:      -8.8      2.523      3.751
REMARK  8 active torsions:
REMARK  status: ('A' for Active; 'I' for Inactive)
REMARK    1  A    between atoms: C_3  and  C_4 
REMARK    2  A    between atoms: C_4  and  C_5 
REMARK    3  A    between atoms: C_5  and  N_6 
REMARK       I    between atoms: N_6  and  C_7 
REMARK    4  A    between atoms: C_7  and  C_8 
REMARK    5  A    between atoms: C_8  and  S_9 
REMARK    6  A    between atoms: S_9  and  C_10 
REMARK    7  A    between atoms: C_13  and  C_14 
REMARK    8  A    between atoms: C_15  and  O_16 
ROOT
HETATM    1  S   UNL     1      10.257  28.894  56.565  1.00  0.00    -0.081 SA
ENDROOT
BRANCH   1   2
HETATM    2  C   UNL     1       9.066  29.272  55.251  1.00  0.00     0.185 C 
BRANCH   2   3
HETATM    3  C   UNL     1       7.687  28.693  55.547  1.00  0.00     0.227 C 
HETATM    4  N   UNL     1       7.668  27.306  55.547  1.00  0.00    -0.360 N 
HETATM    5  H   UNL     1       8.454  26.812  55.144  1.00  0.00     0.162 HD
HETATM    6  O   UNL     1       6.684  29.361  55.785  1.00  0.00    -0.273 OA
BRANCH   4   7
HETATM    7  C   UNL     1       6.423  26.581  55.740  1.00  0.00     0.127 C 
BRANCH   7   8
HETATM    8  C   UNL     1       6.037  25.775  54.500  1.00  0.00     0.058 C 
BRANCH   8   9
HETATM    9  C   UNL     1       6.848  24.506  54.364  1.00  0.00    -0.051 A 
HETATM   10  C   UNL     1       7.512  24.138  53.175  1.00  0.00    -0.056 A 
HETATM   11  C   UNL     1       7.492  24.958  51.914  1.00  0.00     0.049 C 
HETATM   12  C   UNL     1       8.223  22.924  53.139  1.00  0.00     0.007 A 
HETATM   13  C   UNL     1       8.283  22.088  54.254  1.00  0.00     0.001 A 
HETATM   14  C   UNL     1       7.628  22.449  55.423  1.00  0.00     0.001 A 
HETATM   15  C   UNL     1       6.914  23.646  55.477  1.00  0.00     0.007 A 
ENDBRANCH   8   9
ENDBRANCH   7   8
ENDBRANCH   4   7
ENDBRANCH   2   3
ENDBRANCH   1   2
BRANCH   1  16
HETATM   16  C   UNL     1       9.973  30.251  57.596  1.00  0.00     0.191 A 
HETATM   17  N   UNL     1       9.002  30.304  58.554  1.00  0.00    -0.312 N 
HETATM   18  C   UNL     1       8.029  29.296  58.889  1.00  0.00     0.160 C 
HETATM   19  C   UNL     1       9.165  31.520  59.180  1.00  0.00     0.166 A 
HETATM   20  N   UNL     1      10.162  32.164  58.597  1.00  0.00    -0.128 NA
HETATM   21  N   UNL     1      10.676  31.358  57.606  1.00  0.00    -0.122 NA
BRANCH  19  22
HETATM   22  C   UNL     1       8.381  31.993  60.315  1.00  0.00     0.045 A 
HETATM   23  C   UNL     1       7.076  32.477  60.153  1.00  0.00     0.082 A 
HETATM   24  C   UNL     1       6.331  32.900  61.257  1.00  0.00     0.038 A 
HETATM   25  C   UNL     1       6.899  32.876  62.530  1.00  0.00     0.003 A 
HETATM   26  C   UNL     1       8.205  32.418  62.702  1.00  0.00     0.001 A 
HETATM   27  C   UNL     1       8.943  31.978  61.600  1.00  0.00     0.018 A 
BRANCH  23  28
HETATM   28  O   UNL     1       6.484  32.452  58.915  1.00  0.00    -0.355 OA
HETATM   29  C   UNL     1       5.297  33.246  58.915  1.00  0.00     0.210 C 
ENDBRANCH  23  28
ENDBRANCH  19  22
ENDBRANCH   1  16
TORSDOF 8
ENDMDL
MODEL 6
REMARK VINA RESULT:      -8.7      3.202      4.720
REMARK  8 active torsions:
REMARK  status: ('A' for Active; 'I' for Inactive)
REMARK    1  A    between atoms: C_3  and  C_4 
REMARK    2  A    between atoms: C_4  and  C_5 
REMARK    3  A    between atoms: C_5  and  N_6 
REMARK       I    between atoms: N_6  and  C_7 
REMARK    4  A    between atoms: C_7  and  C_8 
REMARK    5  A    between atoms: C_8  and  S_9 
REMARK    6  A    between atoms: S_9  and  C_10 
REMARK    7  A    between atoms: C_13  and  C_14 
REMARK    8  A    between atoms: C_15  and  O_16 
ROOT
HETATM    1  S   UNL     1       8.991  30.182  58.278  1.00  0.00    -0.081 SA
ENDROOT
BRANCH   1   2
HETATM    2  C   UNL     1       7.763  29.546  57.105  1.00  0.00     0.185 C 
BRANCH   2   3
HETATM    3  C   UNL     1       7.579  28.037  57.234  1.00  0.00     0.227 C 
HETATM    4  N   UNL     1       6.996  27.463  56.114  1.00  0.00    -0.360 N 
HETATM    5  H   UNL     1       6.545  28.069  55.440  1.00  0.00     0.162 HD
HETATM    6  O   UNL     1       7.922  27.371  58.207  1.00  0.00    -0.273 OA
BRANCH   4   7
HETATM    7  C   UNL     1       6.679  26.044  56.088  1.00  0.00     0.127 C 
BRANCH   7   8
HETATM    8  C   UNL     1       6.419  25.547  54.666  1.00  0.00     0.058 C 
BRANCH   8   9
HETATM    9  C   UNL     1       7.091  24.222  54.389  1.00  0.00    -0.051 A 
HETATM   10  C   UNL     1       7.648  23.885  53.137  1.00  0.00    -0.056 A 
HETATM   11  C   UNL     1       7.638  24.799  51.942  1.00  0.00     0.049 C 
HETATM   12  C   UNL     1       8.232  22.616  52.969  1.00  0.00     0.007 A 
HETATM   13  C   UNL     1       8.272  21.695  54.015  1.00  0.00     0.001 A 
HETATM   14  C   UNL     1       7.722  22.025  55.246  1.00  0.00     0.001 A 
HETATM   15  C   UNL     1       7.134  23.276  55.431  1.00  0.00     0.007 A 
ENDBRANCH   8   9
ENDBRANCH   7   8
ENDBRANCH   4   7
ENDBRANCH   2   3
ENDBRANCH   1   2
BRANCH   1  16
HETATM   16  C   UNL     1       7.957  31.153  59.263  1.00  0.00     0.191 A 
HETATM   17  N   UNL     1       8.009  31.200  60.626  1.00  0.00    -0.312 N 
HETATM   18  C   UNL     1       8.881  30.468  61.508  1.00  0.00     0.160 C 
HETATM   19  C   UNL     1       7.071  32.138  61.001  1.00  0.00     0.166 A 
HETATM   20  N   UNL     1       6.474  32.595  59.913  1.00  0.00    -0.128 NA
HETATM   21  N   UNL     1       7.042  31.981  58.819  1.00  0.00    -0.122 NA
BRANCH  19  22
HETATM   22  C   UNL     1       6.810  32.566  62.370  1.00  0.00     0.045 A 
HETATM   23  C   UNL     1       5.513  32.575  62.901  1.00  0.00     0.082 A 
HETATM   24  C   UNL     1       5.288  32.963  64.225  1.00  0.00     0.038 A 
HETATM   25  C   UNL     1       6.355  33.379  65.019  1.00  0.00     0.003 A 
HETATM   26  C   UNL     1       7.648  33.396  64.496  1.00  0.00     0.001 A 
HETATM   27  C   UNL     1       7.875  32.991  63.178  1.00  0.00     0.018 A 
BRANCH  23  28
HETATM   28  O   UNL     1       4.462  32.113  62.149  1.00  0.00    -0.355 OA
HETATM   29  C   UNL     1       3.399  33.067  62.141  1.00  0.00     0.210 C 
ENDBRANCH  23  28
ENDBRANCH  19  22
ENDBRANCH   1  16
TORSDOF 8
ENDMDL
MODEL 7
REMARK VINA RESULT:      -8.5      1.556      2.547
REMARK  8 active torsions:
REMARK  status: ('A' for Active; 'I' for Inactive)
REMARK    1  A    between atoms: C_3  and  C_4 
REMARK    2  A    between atoms: C_4  and  C_5 
REMARK    3  A    between atoms: C_5  and  N_6 
REMARK       I    between atoms: N_6  and  C_7 
REMARK    4  A    between atoms: C_7  and  C_8 
REMARK    5  A    between atoms: C_8  and  S_9 
REMARK    6  A    between atoms: S_9  and  C_10 
REMARK    7  A    between atoms: C_13  and  C_14 
REMARK    8  A    between atoms: C_15  and  O_16 
ROOT
HETATM    1  S   UNL     1       7.986  28.265  54.479  1.00  0.00    -0.081 SA
ENDROOT
BRANCH   1   2
HETATM    2  C   UNL     1       6.362  28.071  53.693  1.00  0.00     0.185 C 
BRANCH   2   3
HETATM    3  C   UNL     1       5.958  26.605  53.575  1.00  0.00     0.227 C 
HETATM    4  N   UNL     1       6.995  25.786  53.156  1.00  0.00    -0.360 N 
HETATM    5  H   UNL     1       7.819  26.217  52.756  1.00  0.00     0.162 HD
HETATM    6  O   UNL     1       4.841  26.164  53.838  1.00  0.00    -0.273 OA
BRANCH   4   7
HETATM    7  C   UNL     1       6.773  24.369  52.919  1.00  0.00     0.127 C 
BRANCH   7   8
HETATM    8  C   UNL     1       8.078  23.575  52.960  1.00  0.00     0.058 C 
BRANCH   8   9
HETATM    9  C   UNL     1       8.175  22.691  54.183  1.00  0.00    -0.051 A 
HETATM   10  C   UNL     1       8.172  21.282  54.120  1.00  0.00    -0.056 A 
HETATM   11  C   UNL     1       8.074  20.500  52.839  1.00  0.00     0.049 C 
HETATM   12  C   UNL     1       8.242  20.546  55.317  1.00  0.00     0.007 A 
HETATM   13  C   UNL     1       8.318  21.183  56.555  1.00  0.00     0.001 A 
HETATM   14  C   UNL     1       8.318  22.570  56.617  1.00  0.00     0.001 A 
HETATM   15  C   UNL     1       8.245  23.318  55.442  1.00  0.00     0.007 A 
ENDBRANCH   8   9
ENDBRANCH   7   8
ENDBRANCH   4   7
ENDBRANCH   2   3
ENDBRANCH   1   2
BRANCH   1  16
HETATM   16  C   UNL     1       7.479  28.879  56.012  1.00  0.00     0.191 A 
HETATM   17  N   UNL     1       8.297  29.522  56.896  1.00  0.00    -0.312 N 
HETATM   18  C   UNL     1       9.704  29.799  56.763  1.00  0.00     0.160 C 
HETATM   19  C   UNL     1       7.487  29.900  57.944  1.00  0.00     0.166 A 
HETATM   20  N   UNL     1       6.260  29.472  57.703  1.00  0.00    -0.128 NA
HETATM   21  N   UNL     1       6.255  28.838  56.481  1.00  0.00    -0.122 NA
BRANCH  19  22
HETATM   22  C   UNL     1       7.918  30.670  59.105  1.00  0.00     0.045 A 
HETATM   23  C   UNL     1       7.473  31.981  59.322  1.00  0.00     0.082 A 
HETATM   24  C   UNL     1       7.876  32.692  60.455  1.00  0.00     0.038 A 
HETATM   25  C   UNL     1       8.758  32.109  61.364  1.00  0.00     0.003 A 
HETATM   26  C   UNL     1       9.226  30.814  61.149  1.00  0.00     0.001 A 
HETATM   27  C   UNL     1       8.808  30.096  60.025  1.00  0.00     0.018 A 
BRANCH  23  28
HETATM   28  O   UNL     1       6.560  32.545  58.466  1.00  0.00    -0.355 OA
HETATM   29  C   UNL     1       5.353  32.858  59.162  1.00  0.00     0.210 C 
ENDBRANCH  23  28
ENDBRANCH  19  22
ENDBRANCH   1  16
TORSDOF 8
ENDMDL
MODEL 8
REMARK VINA RESULT:      -8.5      1.188      2.062
REMARK  8 active torsions:
REMARK  status: ('A' for Active; 'I' for Inactive)
REMARK    1  A    between atoms: C_3  and  C_4 
REMARK    2  A    between atoms: C_4  and  C_5 
REMARK    3  A    between atoms: C_5  and  N_6 
REMARK       I    between atoms: N_6  and  C_7 
REMARK    4  A    between atoms: C_7  and  C_8 
REMARK    5  A    between atoms: C_8  and  S_9 
REMARK    6  A    between atoms: S_9  and  C_10 
REMARK    7  A    between atoms: C_13  and  C_14 
REMARK    8  A    between atoms: C_15  and  O_16 
ROOT
HETATM    1  S   UNL     1       5.258  26.953  55.623  1.00  0.00    -0.081 SA
ENDROOT
BRANCH   1   2
HETATM    2  C   UNL     1       5.307  27.321  53.847  1.00  0.00     0.185 C 
BRANCH   2   3
HETATM    3  C   UNL     1       6.224  26.365  53.092  1.00  0.00     0.227 C 
HETATM    4  N   UNL     1       7.007  25.585  53.930  1.00  0.00    -0.360 N 
HETATM    5  H   UNL     1       7.087  25.853  54.903  1.00  0.00     0.162 HD
HETATM    6  O   UNL     1       6.269  26.260  51.868  1.00  0.00    -0.273 OA
BRANCH   4   7
HETATM    7  C   UNL     1       7.993  24.668  53.383  1.00  0.00     0.127 C 
BRANCH   7   8
HETATM    8  C   UNL     1       7.427  23.257  53.219  1.00  0.00     0.058 C 
BRANCH   8   9
HETATM    9  C   UNL     1       7.889  22.321  54.313  1.00  0.00    -0.051 A 
HETATM   10  C   UNL     1       8.280  20.988  54.073  1.00  0.00    -0.056 A 
HETATM   11  C   UNL     1       8.283  20.346  52.713  1.00  0.00     0.049 C 
HETATM   12  C   UNL     1       8.674  20.186  55.161  1.00  0.00     0.007 A 
HETATM   13  C   UNL     1       8.686  20.688  56.462  1.00  0.00     0.001 A 
HETATM   14  C   UNL     1       8.299  22.000  56.698  1.00  0.00     0.001 A 
HETATM   15  C   UNL     1       7.901  22.809  55.633  1.00  0.00     0.007 A 
ENDBRANCH   8   9
ENDBRANCH   7   8
ENDBRANCH   4   7
ENDBRANCH   2   3
ENDBRANCH   1   2
BRANCH   1  16
HETATM   16  C   UNL     1       5.736  28.496  56.238  1.00  0.00     0.191 A 
HETATM   17  N   UNL     1       6.692  28.684  57.194  1.00  0.00    -0.312 N 
HETATM   18  C   UNL     1       7.464  27.685  57.887  1.00  0.00     0.160 C 
HETATM   19  C   UNL     1       6.807  30.049  57.339  1.00  0.00     0.166 A 
HETATM   20  N   UNL     1       5.938  30.633  56.532  1.00  0.00    -0.128 NA
HETATM   21  N   UNL     1       5.272  29.653  55.831  1.00  0.00    -0.122 NA
BRANCH  19  22
HETATM   22  C   UNL     1       7.754  30.724  58.218  1.00  0.00     0.045 A 
HETATM   23  C   UNL     1       9.134  30.693  57.972  1.00  0.00     0.082 A 
HETATM   24  C   UNL     1      10.023  31.369  58.811  1.00  0.00     0.038 A 
HETATM   25  C   UNL     1       9.542  32.054  59.926  1.00  0.00     0.003 A 
HETATM   26  C   UNL     1       8.174  32.074  60.196  1.00  0.00     0.001 A 
HETATM   27  C   UNL     1       7.284  31.413  59.346  1.00  0.00     0.018 A 
BRANCH  23  28
HETATM   28  O   UNL     1       9.615  30.072  56.846  1.00  0.00    -0.355 OA
HETATM   29  C   UNL     1      10.990  29.728  57.017  1.00  0.00     0.210 C 
ENDBRANCH  23  28
ENDBRANCH  19  22
ENDBRANCH   1  16
TORSDOF 8
ENDMDL
MODEL 9
REMARK VINA RESULT:      -8.5      2.748      6.234
REMARK  8 active torsions:
REMARK  status: ('A' for Active; 'I' for Inactive)
REMARK    1  A    between atoms: C_3  and  C_4 
REMARK    2  A    between atoms: C_4  and  C_5 
REMARK    3  A    between atoms: C_5  and  N_6 
REMARK       I    between atoms: N_6  and  C_7 
REMARK    4  A    between atoms: C_7  and  C_8 
REMARK    5  A    between atoms: C_8  and  S_9 
REMARK    6  A    between atoms: S_9  and  C_10 
REMARK    7  A    between atoms: C_13  and  C_14 
REMARK    8  A    between atoms: C_15  and  O_16 
ROOT
HETATM    1  S   UNL     1       6.779  29.873  56.762  1.00  0.00    -0.081 SA
ENDROOT
BRANCH   1   2
HETATM    2  C   UNL     1       6.847  28.408  57.830  1.00  0.00     0.185 C 
BRANCH   2   3
HETATM    3  C   UNL     1       7.964  27.454  57.419  1.00  0.00     0.227 C 
HETATM    4  N   UNL     1       7.526  26.151  57.233  1.00  0.00    -0.360 N 
HETATM    5  H   UNL     1       6.614  25.893  57.589  1.00  0.00     0.162 HD
HETATM    6  O   UNL     1       9.135  27.782  57.243  1.00  0.00    -0.273 OA
BRANCH   4   7
HETATM    7  C   UNL     1       8.467  25.091  56.909  1.00  0.00     0.127 C 
BRANCH   7   8
HETATM    8  C   UNL     1       7.785  23.724  56.856  1.00  0.00     0.058 C 
BRANCH   8   9
HETATM    9  C   UNL     1       7.828  23.113  55.474  1.00  0.00    -0.051 A 
HETATM   10  C   UNL     1       7.911  21.723  55.247  1.00  0.00    -0.056 A 
HETATM   11  C   UNL     1       7.966  20.695  56.344  1.00  0.00     0.049 C 
HETATM   12  C   UNL     1       7.970  21.251  53.923  1.00  0.00     0.007 A 
HETATM   13  C   UNL     1       7.944  22.129  52.840  1.00  0.00     0.001 A 
HETATM   14  C   UNL     1       7.864  23.497  53.064  1.00  0.00     0.001 A 
HETATM   15  C   UNL     1       7.810  23.985  54.370  1.00  0.00     0.007 A 
ENDBRANCH   8   9
ENDBRANCH   7   8
ENDBRANCH   4   7
ENDBRANCH   2   3
ENDBRANCH   1   2
BRANCH   1  16
HETATM   16  C   UNL     1       5.741  29.264  55.522  1.00  0.00     0.191 A 
HETATM   17  N   UNL     1       6.170  28.578  54.423  1.00  0.00    -0.312 N 
HETATM   18  C   UNL     1       7.522  28.244  54.056  1.00  0.00     0.160 C 
HETATM   19  C   UNL     1       5.028  28.223  53.738  1.00  0.00     0.166 A 
HETATM   20  N   UNL     1       3.982  28.705  54.387  1.00  0.00    -0.128 NA
HETATM   21  N   UNL     1       4.433  29.351  55.516  1.00  0.00    -0.122 NA
BRANCH  19  22
HETATM   22  C   UNL     1       4.993  27.424  52.519  1.00  0.00     0.045 A 
HETATM   23  C   UNL     1       4.981  28.022  51.251  1.00  0.00     0.082 A 
HETATM   24  C   UNL     1       4.975  27.238  50.094  1.00  0.00     0.038 A 
HETATM   25  C   UNL     1       4.945  25.848  50.196  1.00  0.00     0.003 A 
HETATM   26  C   UNL     1       4.933  25.241  51.452  1.00  0.00     0.001 A 
HETATM   27  C   UNL     1       4.958  26.025  52.608  1.00  0.00     0.018 A 
BRANCH  23  28
HETATM   28  O   UNL     1       5.070  29.387  51.136  1.00  0.00    -0.355 OA
HETATM   29  C   UNL     1       5.694  29.742  49.901  1.00  0.00     0.210 C 
ENDBRANCH  23  28
ENDBRANCH  19  22
ENDBRANCH   1  16
TORSDOF 8
ENDMDL
MODEL 10
REMARK VINA RESULT:      -8.3      1.792      7.914
REMARK  8 active torsions:
REMARK  status: ('A' for Active; 'I' for Inactive)
REMARK    1  A    between atoms: C_3  and  C_4 
REMARK    2  A    between atoms: C_4  and  C_5 
REMARK    3  A    between atoms: C_5  and  N_6 
REMARK       I    between atoms: N_6  and  C_7 
REMARK    4  A    between atoms: C_7  and  C_8 
REMARK    5  A    between atoms: C_8  and  S_9 
REMARK    6  A    between atoms: S_9  and  C_10 
REMARK    7  A    between atoms: C_13  and  C_14 
REMARK    8  A    between atoms: C_15  and  O_16 
ROOT
HETATM    1  S   UNL     1       5.080  28.420  52.678  1.00  0.00    -0.081 SA
ENDROOT
BRANCH   1   2
HETATM    2  C   UNL     1       4.066  28.735  54.148  1.00  0.00     0.185 C 
BRANCH   2   3
HETATM    3  C   UNL     1       4.887  29.320  55.293  1.00  0.00     0.227 C 
HETATM    4  N   UNL     1       5.350  28.358  56.178  1.00  0.00    -0.360 N 
HETATM    5  H   UNL     1       4.941  27.433  56.142  1.00  0.00     0.162 HD
HETATM    6  O   UNL     1       5.146  30.513  55.429  1.00  0.00    -0.273 OA
BRANCH   4   7
HETATM    7  C   UNL     1       6.090  28.740  57.369  1.00  0.00     0.127 C 
BRANCH   7   8
HETATM    8  C   UNL     1       7.601  28.685  57.141  1.00  0.00     0.058 C 
BRANCH   8   9
HETATM    9  C   UNL     1       8.328  29.817  57.830  1.00  0.00    -0.051 A 
HETATM   10  C   UNL     1       9.669  30.154  57.554  1.00  0.00    -0.056 A 
HETATM   11  C   UNL     1      10.527  29.432  56.551  1.00  0.00     0.049 C 
HETATM   12  C   UNL     1      10.267  31.211  58.266  1.00  0.00     0.007 A 
HETATM   13  C   UNL     1       9.557  31.927  59.229  1.00  0.00     0.001 A 
HETATM   14  C   UNL     1       8.238  31.594  59.501  1.00  0.00     0.001 A 
HETATM   15  C   UNL     1       7.629  30.547  58.810  1.00  0.00     0.007 A 
ENDBRANCH   8   9
ENDBRANCH   7   8
ENDBRANCH   4   7
ENDBRANCH   2   3
ENDBRANCH   1   2
BRANCH   1  16
HETATM   16  C   UNL     1       5.322  26.720  52.867  1.00  0.00     0.191 A 
HETATM   17  N   UNL     1       6.464  26.151  53.351  1.00  0.00    -0.312 N 
HETATM   18  C   UNL     1       7.675  26.809  53.771  1.00  0.00     0.160 C 
HETATM   19  C   UNL     1       6.213  24.798  53.401  1.00  0.00     0.166 A 
HETATM   20  N   UNL     1       4.994  24.579  52.938  1.00  0.00    -0.128 NA
HETATM   21  N   UNL     1       4.431  25.792  52.613  1.00  0.00    -0.122 NA
BRANCH  19  22
HETATM   22  C   UNL     1       7.135  23.789  53.909  1.00  0.00     0.045 A 
HETATM   23  C   UNL     1       7.298  23.572  55.284  1.00  0.00     0.082 A 
HETATM   24  C   UNL     1       8.167  22.581  55.751  1.00  0.00     0.038 A 
HETATM   25  C   UNL     1       8.907  21.823  54.845  1.00  0.00     0.003 A 
HETATM   26  C   UNL     1       8.771  22.045  53.475  1.00  0.00     0.001 A 
HETATM   27  C   UNL     1       7.889  23.023  53.008  1.00  0.00     0.018 A 
BRANCH  23  28
HETATM   28  O   UNL     1       6.533  24.271  56.184  1.00  0.00    -0.355 OA
HETATM   29  C   UNL     1       7.365  25.035  57.057  1.00  0.00     0.210 C 
ENDBRANCH  23  28
ENDBRANCH  19  22
ENDBRANCH   1  16
TORSDOF 8
ENDMDL
