MODEL 1
REMARK VINA RESULT:      -8.8      0.000      0.000
REMARK  8 active torsions:
REMARK  status: ('A' for Active; 'I' for Inactive)
REMARK    1  A    between atoms: CG_8  and  CB_9 
REMARK    2  A    between atoms: CB_9  and  CA_10 
REMARK    3  A    between atoms: CA_10  and  N_11 
REMARK    4  A    between atoms: CA_10  and  C_14 
REMARK    5  A    between atoms: N_11  and  C_19 
REMARK    6  A    between atoms: C_14  and  O_15 
REMARK    7  A    between atoms: C_19  and  C_20 
REMARK    8  A    between atoms: C_22  and  C_23 
ROOT
ATOM      1  CA  TRP A   1       6.678  27.465  56.315  1.00  0.00     0.214 C 
ENDROOT
BRANCH   1   2
ATOM      2  CB  TRP A   1       7.313  26.541  55.258  1.00  0.00     0.076 C 
BRANCH   2   3
ATOM      3  CG  TRP A   1       7.573  25.128  55.691  1.00  0.00    -0.028 A 
ATOM      4  CD2 TRP A   1       7.694  23.937  54.897  1.00  0.00    -0.002 A 
ATOM      5  CE3 TRP A   1       7.645  23.646  53.515  1.00  0.00     0.014 A 
ATOM      6  CE2 TRP A   1       7.891  22.872  55.780  1.00  0.00     0.042 A 
ATOM      7  CZ3 TRP A   1       7.753  22.319  53.079  1.00  0.00     0.001 A 
ATOM      8  CH2 TRP A   1       7.930  21.284  53.991  1.00  0.00     0.002 A 
ATOM      9  CZ2 TRP A   1       8.013  21.543  55.360  1.00  0.00     0.030 A 
ATOM     10  NE1 TRP A   1       7.961  23.394  57.048  1.00  0.00    -0.365 N 
ATOM     11  HE1 TRP A   1       8.146  22.852  57.884  1.00  0.00     0.165 HD
ATOM     12  CD1 TRP A   1       7.750  24.745  57.009  1.00  0.00     0.096 A 
ENDBRANCH   2   3
ENDBRANCH   1   2
BRANCH   1  13
ATOM     13  N   TRP A   1       7.293  28.850  56.253  1.00  0.00    -0.064 N 
ATOM     14  H1  TRP A   1       7.028  29.334  55.383  1.00  0.00     0.278 HD
ATOM     15  H2  TRP A   1       6.863  29.386  57.027  1.00  0.00     0.278 HD
BRANCH  13  16
HETATM   16  C   UNK A   0       8.771  28.887  56.394  1.00  0.00     0.280 C 
BRANCH  16  17
HETATM   17  C   UNK A   0       9.230  29.891  57.382  1.00  0.00     0.027 A 
HETATM   18  S   UNK A   0       8.407  30.114  58.873  1.00  0.00    -0.076 SA
HETATM   19  C   UNK A   0       9.436  31.440  59.229  1.00  0.00     0.079 A 
HETATM   20  N   UNK A   0      10.379  31.674  58.343  1.00  0.00    -0.257 NA
HETATM   21  C   UNK A   0      10.267  30.796  57.290  1.00  0.00     0.133 A 
BRANCH  19  22
HETATM   22  C   UNK A   0       9.237  32.313  60.468  1.00  0.00     0.045 C 
HETATM   23  C   UNK A   0       7.769  32.420  60.978  1.00  0.00     0.011 C 
HETATM   24  C   UNK A   0       8.330  32.321  62.410  1.00  0.00     0.002 C 
HETATM   25  C   UNK A   0       9.510  31.544  61.799  1.00  0.00     0.011 C 
ENDBRANCH  19  22
ENDBRANCH  16  17
ENDBRANCH  13  16
ENDBRANCH   1  13
BRANCH   1  26
ATOM     26  C   TRP A   1       5.165  27.620  56.051  1.00  0.00     0.197 C 
BRANCH  26  27
ATOM     27  O   TRP A   1       4.471  26.708  56.910  1.00  0.00    -0.399 OA
ATOM     28  H   TRP A   1       5.075  26.488  57.649  1.00  0.00     0.209 HD
ENDBRANCH  26  27
ENDBRANCH   1  26
TORSDOF 8
ENDMDL
MODEL 2
REMARK VINA RESULT:      -8.7      2.518      3.633
REMARK  8 active torsions:
REMARK  status: ('A' for Active; 'I' for Inactive)
REMARK    1  A    between atoms: CG_8  and  CB_9 
REMARK    2  A    between atoms: CB_9  and  CA_10 
REMARK    3  A    between atoms: CA_10  and  N_11 
REMARK    4  A    between atoms: CA_10  and  C_14 
REMARK    5  A    between atoms: N_11  and  C_19 
REMARK    6  A    between atoms: C_14  and  O_15 
REMARK    7  A    between atoms: C_19  and  C_20 
REMARK    8  A    between atoms: C_22  and  C_23 
ROOT
ATOM      1  CA  TRP A   1       5.653  25.186  53.607  1.00  0.00     0.214 C 
ENDROOT
BRANCH   1   2
ATOM      2  CB  TRP A   1       7.189  25.142  53.724  1.00  0.00     0.076 C 
BRANCH   2   3
ATOM      3  CG  TRP A   1       7.751  24.036  54.568  1.00  0.00    -0.028 A 
ATOM      4  CD2 TRP A   1       8.036  22.673  54.216  1.00  0.00    -0.002 A 
ATOM      5  CE3 TRP A   1       7.932  21.901  53.037  1.00  0.00     0.014 A 
ATOM      6  CE2 TRP A   1       8.507  22.040  55.369  1.00  0.00     0.042 A 
ATOM      7  CZ3 TRP A   1       8.259  20.539  53.066  1.00  0.00     0.001 A 
ATOM      8  CH2 TRP A   1       8.707  19.941  54.239  1.00  0.00     0.002 A 
ATOM      9  CZ2 TRP A   1       8.850  20.684  55.411  1.00  0.00     0.030 A 
ATOM     10  NE1 TRP A   1       8.578  22.986  56.361  1.00  0.00    -0.365 N 
ATOM     11  HE1 TRP A   1       8.932  22.816  57.295  1.00  0.00     0.165 HD
ATOM     12  CD1 TRP A   1       8.106  24.184  55.897  1.00  0.00     0.096 A 
ENDBRANCH   2   3
ENDBRANCH   1   2
BRANCH   1  13
ATOM     13  N   TRP A   1       5.039  25.802  54.849  1.00  0.00    -0.064 N 
ATOM     14  H1  TRP A   1       4.030  25.604  54.900  1.00  0.00     0.278 HD
ATOM     15  H2  TRP A   1       5.473  25.313  55.652  1.00  0.00     0.278 HD
BRANCH  13  16
HETATM   16  C   UNK A   0       5.251  27.265  54.995  1.00  0.00     0.280 C 
BRANCH  16  17
HETATM   17  C   UNK A   0       6.304  27.599  55.982  1.00  0.00     0.027 A 
HETATM   18  S   UNK A   0       7.511  28.771  55.634  1.00  0.00    -0.076 SA
HETATM   19  C   UNK A   0       8.288  28.393  57.116  1.00  0.00     0.079 A 
HETATM   20  N   UNK A   0       7.669  27.508  57.866  1.00  0.00    -0.257 NA
HETATM   21  C   UNK A   0       6.540  27.052  57.226  1.00  0.00     0.133 A 
BRANCH  19  22
HETATM   22  C   UNK A   0       9.628  29.012  57.512  1.00  0.00     0.045 C 
HETATM   23  C   UNK A   0      10.371  29.776  56.375  1.00  0.00     0.011 C 
HETATM   24  C   UNK A   0      10.744  30.840  57.424  1.00  0.00     0.002 C 
HETATM   25  C   UNK A   0       9.472  30.416  58.179  1.00  0.00     0.011 C 
ENDBRANCH  19  22
ENDBRANCH  16  17
ENDBRANCH  13  16
ENDBRANCH   1  13
BRANCH   1  26
ATOM     26  C   TRP A   1       5.233  26.059  52.404  1.00  0.00     0.197 C 
BRANCH  26  27
ATOM     27  O   TRP A   1       4.522  25.225  51.481  1.00  0.00    -0.399 OA
ATOM     28  H   TRP A   1       3.624  25.602  51.381  1.00  0.00     0.209 HD
ENDBRANCH  26  27
ENDBRANCH   1  26
TORSDOF 8
ENDMDL
MODEL 3
REMARK VINA RESULT:      -8.7      1.556      2.299
REMARK  8 active torsions:
REMARK  status: ('A' for Active; 'I' for Inactive)
REMARK    1  A    between atoms: CG_8  and  CB_9 
REMARK    2  A    between atoms: CB_9  and  CA_10 
REMARK    3  A    between atoms: CA_10  and  N_11 
REMARK    4  A    between atoms: CA_10  and  C_14 
REMARK    5  A    between atoms: N_11  and  C_19 
REMARK    6  A    between atoms: C_14  and  O_15 
REMARK    7  A    between atoms: C_19  and  C_20 
REMARK    8  A    between atoms: C_22  and  C_23 
ROOT
ATOM      1  CA  TRP A   1       7.703  25.855  56.217  1.00  0.00     0.214 C 
ENDROOT
BRANCH   1   2
ATOM      2  CB  TRP A   1       6.634  24.966  55.554  1.00  0.00     0.076 C 
BRANCH   2   3
ATOM      3  CG  TRP A   1       7.131  24.002  54.518  1.00  0.00    -0.028 A 
ATOM      4  CD2 TRP A   1       7.564  22.641  54.670  1.00  0.00    -0.002 A 
ATOM      5  CE3 TRP A   1       7.665  21.738  55.752  1.00  0.00     0.014 A 
ATOM      6  CE2 TRP A   1       7.971  22.196  53.410  1.00  0.00     0.042 A 
ATOM      7  CZ3 TRP A   1       8.199  20.460  55.543  1.00  0.00     0.001 A 
ATOM      8  CH2 TRP A   1       8.611  20.059  54.277  1.00  0.00     0.002 A 
ATOM      9  CZ2 TRP A   1       8.495  20.918  53.183  1.00  0.00     0.030 A 
ATOM     10  NE1 TRP A   1       7.730  23.209  52.515  1.00  0.00    -0.365 N 
ATOM     11  HE1 TRP A   1       7.887  23.144  51.516  1.00  0.00     0.165 HD
ATOM     12  CD1 TRP A   1       7.246  24.306  53.173  1.00  0.00     0.096 A 
ENDBRANCH   2   3
ENDBRANCH   1   2
BRANCH   1  13
ATOM     13  N   TRP A   1       7.080  27.125  56.763  1.00  0.00    -0.064 N 
ATOM     14  H1  TRP A   1       6.055  27.110  56.658  1.00  0.00     0.278 HD
ATOM     15  H2  TRP A   1       7.268  27.119  57.782  1.00  0.00     0.278 HD
BRANCH  13  16
HETATM   16  C   UNK A   0       7.605  28.384  56.176  1.00  0.00     0.280 C 
BRANCH  16  17
HETATM   17  C   UNK A   0       8.457  29.148  57.118  1.00  0.00     0.027 A 
HETATM   18  S   UNK A   0       7.799  29.869  58.530  1.00  0.00    -0.076 SA
HETATM   19  C   UNK A   0       9.321  30.591  58.857  1.00  0.00     0.079 A 
HETATM   20  N   UNK A   0      10.285  30.273  58.021  1.00  0.00    -0.257 NA
HETATM   21  C   UNK A   0       9.800  29.452  57.029  1.00  0.00     0.133 A 
BRANCH  19  22
HETATM   22  C   UNK A   0       9.525  31.569  60.013  1.00  0.00     0.045 C 
HETATM   23  C   UNK A   0       8.252  32.351  60.457  1.00  0.00     0.011 C 
HETATM   24  C   UNK A   0       8.713  32.145  61.912  1.00  0.00     0.002 C 
HETATM   25  C   UNK A   0       9.434  30.880  61.412  1.00  0.00     0.011 C 
ENDBRANCH  19  22
ENDBRANCH  16  17
ENDBRANCH  13  16
ENDBRANCH   1  13
BRANCH   1  26
ATOM     26  C   TRP A   1       8.354  25.114  57.406  1.00  0.00     0.197 C 
BRANCH  26  27
ATOM     27  O   TRP A   1       7.885  25.722  58.615  1.00  0.00    -0.399 OA
ATOM     28  H   TRP A   1       7.458  25.019  59.147  1.00  0.00     0.209 HD
ENDBRANCH  26  27
ENDBRANCH   1  26
TORSDOF 8
ENDMDL
MODEL 4
REMARK VINA RESULT:      -8.7      1.741      2.266
REMARK  8 active torsions:
REMARK  status: ('A' for Active; 'I' for Inactive)
REMARK    1  A    between atoms: CG_8  and  CB_9 
REMARK    2  A    between atoms: CB_9  and  CA_10 
REMARK    3  A    between atoms: CA_10  and  N_11 
REMARK    4  A    between atoms: CA_10  and  C_14 
REMARK    5  A    between atoms: N_11  and  C_19 
REMARK    6  A    between atoms: C_14  and  O_15 
REMARK    7  A    between atoms: C_19  and  C_20 
REMARK    8  A    between atoms: C_22  and  C_23 
ROOT
ATOM      1  CA  TRP A   1       5.704  25.797  54.832  1.00  0.00     0.214 C 
ENDROOT
BRANCH   1   2
ATOM      2  CB  TRP A   1       7.214  25.494  54.794  1.00  0.00     0.076 C 
BRANCH   2   3
ATOM      3  CG  TRP A   1       7.683  24.372  55.673  1.00  0.00    -0.028 A 
ATOM      4  CD2 TRP A   1       7.863  22.982  55.362  1.00  0.00    -0.002 A 
ATOM      5  CE3 TRP A   1       7.709  22.188  54.203  1.00  0.00     0.014 A 
ATOM      6  CE2 TRP A   1       8.275  22.347  56.536  1.00  0.00     0.042 A 
ATOM      7  CZ3 TRP A   1       7.929  20.806  54.273  1.00  0.00     0.001 A 
ATOM      8  CH2 TRP A   1       8.319  20.207  55.466  1.00  0.00     0.002 A 
ATOM      9  CZ2 TRP A   1       8.510  20.970  56.619  1.00  0.00     0.030 A 
ATOM     10  NE1 TRP A   1       8.411  23.313  57.503  1.00  0.00    -0.365 N 
ATOM     11  HE1 TRP A   1       8.743  23.142  58.444  1.00  0.00     0.165 HD
ATOM     12  CD1 TRP A   1       8.037  24.529  57.001  1.00  0.00     0.096 A 
ENDBRANCH   2   3
ENDBRANCH   1   2
BRANCH   1  13
ATOM     13  N   TRP A   1       5.410  26.930  55.796  1.00  0.00    -0.064 N 
ATOM     14  H1  TRP A   1       4.401  27.138  55.826  1.00  0.00     0.278 HD
ATOM     15  H2  TRP A   1       5.662  26.575  56.737  1.00  0.00     0.278 HD
BRANCH  13  16
HETATM   16  C   UNK A   0       6.154  28.188  55.532  1.00  0.00     0.280 C 
BRANCH  16  17
HETATM   17  C   UNK A   0       6.811  28.733  56.743  1.00  0.00     0.027 A 
HETATM   18  S   UNK A   0       6.402  30.285  57.355  1.00  0.00    -0.076 SA
HETATM   19  C   UNK A   0       7.651  30.140  58.523  1.00  0.00     0.079 A 
HETATM   20  N   UNK A   0       8.294  28.993  58.519  1.00  0.00    -0.257 NA
HETATM   21  C   UNK A   0       7.821  28.189  57.508  1.00  0.00     0.133 A 
BRANCH  19  22
HETATM   22  C   UNK A   0       8.015  31.284  59.469  1.00  0.00     0.045 C 
HETATM   23  C   UNK A   0       8.498  30.849  60.885  1.00  0.00     0.011 C 
HETATM   24  C   UNK A   0       9.556  31.965  60.794  1.00  0.00     0.002 C 
HETATM   25  C   UNK A   0       9.477  31.794  59.267  1.00  0.00     0.011 C 
ENDBRANCH  19  22
ENDBRANCH  16  17
ENDBRANCH  13  16
ENDBRANCH   1  13
BRANCH   1  26
ATOM     26  C   TRP A   1       5.210  26.238  53.438  1.00  0.00     0.197 C 
BRANCH  26  27
ATOM     27  O   TRP A   1       3.964  25.579  53.181  1.00  0.00    -0.399 OA
ATOM     28  H   TRP A   1       3.658  25.196  54.029  1.00  0.00     0.209 HD
ENDBRANCH  26  27
ENDBRANCH   1  26
TORSDOF 8
ENDMDL
MODEL 5
REMARK VINA RESULT:      -8.2      2.100      2.514
REMARK  8 active torsions:
REMARK  status: ('A' for Active; 'I' for Inactive)
REMARK    1  A    between atoms: CG_8  and  CB_9 
REMARK    2  A    between atoms: CB_9  and  CA_10 
REMARK    3  A    between atoms: CA_10  and  N_11 
REMARK    4  A    between atoms: CA_10  and  C_14 
REMARK    5  A    between atoms: N_11  and  C_19 
REMARK    6  A    between atoms: C_14  and  O_15 
REMARK    7  A    between atoms: C_19  and  C_20 
REMARK    8  A    between atoms: C_22  and  C_23 
ROOT
ATOM      1  CA  TRP A   1       6.051  27.886  55.461  1.00  0.00     0.214 C 
ENDROOT
BRANCH   1   2
ATOM      2  CB  TRP A   1       5.723  26.409  55.754  1.00  0.00     0.076 C 
BRANCH   2   3
ATOM      3  CG  TRP A   1       6.006  25.440  54.644  1.00  0.00    -0.028 A 
ATOM      4  CD2 TRP A   1       6.983  24.390  54.575  1.00  0.00    -0.002 A 
ATOM      5  CE3 TRP A   1       7.964  23.877  55.453  1.00  0.00     0.014 A 
ATOM      6  CE2 TRP A   1       6.870  23.805  53.311  1.00  0.00     0.042 A 
ATOM      7  CZ3 TRP A   1       8.809  22.845  55.025  1.00  0.00     0.001 A 
ATOM      8  CH2 TRP A   1       8.679  22.301  53.752  1.00  0.00     0.002 A 
ATOM      9  CZ2 TRP A   1       7.698  22.765  52.874  1.00  0.00     0.030 A 
ATOM     10  NE1 TRP A   1       5.827  24.418  52.663  1.00  0.00    -0.365 N 
ATOM     11  HE1 TRP A   1       5.490  24.161  51.743  1.00  0.00     0.165 HD
ATOM     12  CD1 TRP A   1       5.314  25.416  53.445  1.00  0.00     0.096 A 
ENDBRANCH   2   3
ENDBRANCH   1   2
BRANCH   1  13
ATOM     13  N   TRP A   1       5.776  28.746  56.679  1.00  0.00    -0.064 N 
ATOM     14  H1  TRP A   1       4.768  28.928  56.784  1.00  0.00     0.278 HD
ATOM     15  H2  TRP A   1       6.056  28.177  57.498  1.00  0.00     0.278 HD
BRANCH  13  16
HETATM   16  C   UNK A   0       6.505  30.040  56.711  1.00  0.00     0.280 C 
BRANCH  16  17
HETATM   17  C   UNK A   0       7.158  30.301  58.015  1.00  0.00     0.027 A 
HETATM   18  S   UNK A   0       6.789  31.708  58.930  1.00  0.00    -0.076 SA
HETATM   19  C   UNK A   0       8.012  31.281  60.056  1.00  0.00     0.079 A 
HETATM   20  N   UNK A   0       8.617  30.137  59.822  1.00  0.00    -0.257 NA
HETATM   21  C   UNK A   0       8.136  29.575  58.662  1.00  0.00     0.133 A 
BRANCH  19  22
HETATM   22  C   UNK A   0       8.397  32.191  61.222  1.00  0.00     0.045 C 
HETATM   23  C   UNK A   0       7.212  32.941  61.900  1.00  0.00     0.011 C 
HETATM   24  C   UNK A   0       7.891  32.653  63.253  1.00  0.00     0.002 C 
HETATM   25  C   UNK A   0       8.518  31.422  62.575  1.00  0.00     0.011 C 
ENDBRANCH  19  22
ENDBRANCH  16  17
ENDBRANCH  13  16
ENDBRANCH   1  13
BRANCH   1  26
ATOM     26  C   TRP A   1       7.548  28.043  55.115  1.00  0.00     0.197 C 
BRANCH  26  27
ATOM     27  O   TRP A   1       7.641  28.535  53.772  1.00  0.00    -0.399 OA
ATOM     28  H   TRP A   1       7.159  27.905  53.198  1.00  0.00     0.209 HD
ENDBRANCH  26  27
ENDBRANCH   1  26
TORSDOF 8
ENDMDL
MODEL 6
REMARK VINA RESULT:      -8.2      1.986      2.905
REMARK  8 active torsions:
REMARK  status: ('A' for Active; 'I' for Inactive)
REMARK    1  A    between atoms: CG_8  and  CB_9 
REMARK    2  A    between atoms: CB_9  and  CA_10 
REMARK    3  A    between atoms: CA_10  and  N_11 
REMARK    4  A    between atoms: CA_10  and  C_14 
REMARK    5  A    between atoms: N_11  and  C_19 
REMARK    6  A    between atoms: C_14  and  O_15 
REMARK    7  A    between atoms: C_19  and  C_20 
REMARK    8  A    between atoms: C_22  and  C_23 
ROOT
ATOM      1  CA  TRP A   1       6.028  25.605  54.556  1.00  0.00     0.214 C 
ENDROOT
BRANCH   1   2
ATOM      2  CB  TRP A   1       7.472  25.198  54.208  1.00  0.00     0.076 C 
BRANCH   2   3
ATOM      3  CG  TRP A   1       7.701  23.736  53.960  1.00  0.00    -0.028 A 
ATOM      4  CD2 TRP A   1       7.947  22.677  54.899  1.00  0.00    -0.002 A 
ATOM      5  CE3 TRP A   1       8.040  22.589  56.306  1.00  0.00     0.014 A 
ATOM      6  CE2 TRP A   1       8.137  21.507  54.159  1.00  0.00     0.042 A 
ATOM      7  CZ3 TRP A   1       8.354  21.363  56.907  1.00  0.00     0.001 A 
ATOM      8  CH2 TRP A   1       8.556  20.224  56.135  1.00  0.00     0.002 A 
ATOM      9  CZ2 TRP A   1       8.440  20.273  54.745  1.00  0.00     0.030 A 
ATOM     10  NE1 TRP A   1       7.945  21.818  52.836  1.00  0.00    -0.365 N 
ATOM     11  HE1 TRP A   1       7.975  21.148  52.077  1.00  0.00     0.165 HD
ATOM     12  CD1 TRP A   1       7.704  23.158  52.702  1.00  0.00     0.096 A 
ENDBRANCH   2   3
ENDBRANCH   1   2
BRANCH   1  13
ATOM     13  N   TRP A   1       5.963  27.070  54.942  1.00  0.00    -0.064 N 
ATOM     14  H1  TRP A   1       5.313  27.585  54.331  1.00  0.00     0.278 HD
ATOM     15  H2  TRP A   1       5.552  27.095  55.892  1.00  0.00     0.278 HD
BRANCH  13  16
HETATM   16  C   UNK A   0       7.271  27.773  54.956  1.00  0.00     0.280 C 
BRANCH  16  17
HETATM   17  C   UNK A   0       7.403  28.720  56.088  1.00  0.00     0.027 A 
HETATM   18  S   UNK A   0       8.835  28.780  57.036  1.00  0.00    -0.076 SA
HETATM   19  C   UNK A   0       8.080  29.912  58.083  1.00  0.00     0.079 A 
HETATM   20  N   UNK A   0       6.870  30.285  57.728  1.00  0.00    -0.257 NA
HETATM   21  C   UNK A   0       6.479  29.610  56.595  1.00  0.00     0.133 A 
BRANCH  19  22
HETATM   22  C   UNK A   0       8.754  30.413  59.359  1.00  0.00     0.045 C 
HETATM   23  C   UNK A   0       9.659  31.669  59.186  1.00  0.00     0.011 C 
HETATM   24  C   UNK A   0       9.086  32.184  60.520  1.00  0.00     0.002 C 
HETATM   25  C   UNK A   0       7.832  31.350  60.202  1.00  0.00     0.011 C 
ENDBRANCH  19  22
ENDBRANCH  16  17
ENDBRANCH  13  16
ENDBRANCH   1  13
BRANCH   1  26
ATOM     26  C   TRP A   1       5.106  25.410  53.333  1.00  0.00     0.197 C 
BRANCH  26  27
ATOM     27  O   TRP A   1       4.033  26.353  53.433  1.00  0.00    -0.399 OA
ATOM     28  H   TRP A   1       4.170  27.025  52.734  1.00  0.00     0.209 HD
ENDBRANCH  26  27
ENDBRANCH   1  26
TORSDOF 8
ENDMDL
MODEL 7
REMARK VINA RESULT:      -7.9      5.238      8.081
REMARK  8 active torsions:
REMARK  status: ('A' for Active; 'I' for Inactive)
REMARK    1  A    between atoms: CG_8  and  CB_9 
REMARK    2  A    between atoms: CB_9  and  CA_10 
REMARK    3  A    between atoms: CA_10  and  N_11 
REMARK    4  A    between atoms: CA_10  and  C_14 
REMARK    5  A    between atoms: N_11  and  C_19 
REMARK    6  A    between atoms: C_14  and  O_15 
REMARK    7  A    between atoms: C_19  and  C_20 
REMARK    8  A    between atoms: C_22  and  C_23 
ROOT
ATOM      1  CA  TRP A   1       5.830  25.758  54.520  1.00  0.00     0.214 C 
ENDROOT
BRANCH   1   2
ATOM      2  CB  TRP A   1       7.348  25.549  54.689  1.00  0.00     0.076 C 
BRANCH   2   3
ATOM      3  CG  TRP A   1       7.760  24.453  55.626  1.00  0.00    -0.028 A 
ATOM      4  CD2 TRP A   1       7.919  23.048  55.374  1.00  0.00    -0.002 A 
ATOM      5  CE3 TRP A   1       7.786  22.213  54.242  1.00  0.00     0.014 A 
ATOM      6  CE2 TRP A   1       8.276  22.450  56.586  1.00  0.00     0.042 A 
ATOM      7  CZ3 TRP A   1       7.971  20.830  54.372  1.00  0.00     0.001 A 
ATOM      8  CH2 TRP A   1       8.307  20.270  55.600  1.00  0.00     0.002 A 
ATOM      9  CZ2 TRP A   1       8.476  21.072  56.729  1.00  0.00     0.030 A 
ATOM     10  NE1 TRP A   1       8.401  23.449  57.519  1.00  0.00    -0.365 N 
ATOM     11  HE1 TRP A   1       8.697  23.308  58.477  1.00  0.00     0.165 HD
ATOM     12  CD1 TRP A   1       8.073  24.653  56.959  1.00  0.00     0.096 A 
ENDBRANCH   2   3
ENDBRANCH   1   2
BRANCH   1  13
ATOM     13  N   TRP A   1       5.534  27.168  54.048  1.00  0.00    -0.064 N 
ATOM     14  H1  TRP A   1       4.519  27.340  54.011  1.00  0.00     0.278 HD
ATOM     15  H2  TRP A   1       5.909  27.797  54.781  1.00  0.00     0.278 HD
BRANCH  13  16
HETATM   16  C   UNK A   0       6.131  27.531  52.738  1.00  0.00     0.280 C 
BRANCH  16  17
HETATM   17  C   UNK A   0       5.114  27.807  51.697  1.00  0.00     0.027 A 
HETATM   18  S   UNK A   0       4.981  26.819  50.298  1.00  0.00    -0.076 SA
HETATM   19  C   UNK A   0       3.793  27.887  49.671  1.00  0.00     0.079 A 
HETATM   20  N   UNK A   0       3.454  28.879  50.465  1.00  0.00    -0.257 NA
HETATM   21  C   UNK A   0       4.202  28.839  51.619  1.00  0.00     0.133 A 
BRANCH  19  22
HETATM   22  C   UNK A   0       3.206  27.718  48.270  1.00  0.00     0.045 C 
HETATM   23  C   UNK A   0       2.698  26.285  47.929  1.00  0.00     0.011 C 
HETATM   24  C   UNK A   0       1.499  26.950  47.227  1.00  0.00     0.002 C 
HETATM   25  C   UNK A   0       1.703  28.132  48.191  1.00  0.00     0.011 C 
ENDBRANCH  19  22
ENDBRANCH  16  17
ENDBRANCH  13  16
ENDBRANCH   1  13
BRANCH   1  26
ATOM     26  C   TRP A   1       5.272  24.789  53.455  1.00  0.00     0.197 C 
BRANCH  26  27
ATOM     27  O   TRP A   1       3.860  25.009  53.354  1.00  0.00    -0.399 OA
ATOM     28  H   TRP A   1       3.514  25.096  54.266  1.00  0.00     0.209 HD
ENDBRANCH  26  27
ENDBRANCH   1  26
TORSDOF 8
ENDMDL
MODEL 8
REMARK VINA RESULT:      -7.8      2.356      8.588
REMARK  8 active torsions:
REMARK  status: ('A' for Active; 'I' for Inactive)
REMARK    1  A    between atoms: CG_8  and  CB_9 
REMARK    2  A    between atoms: CB_9  and  CA_10 
REMARK    3  A    between atoms: CA_10  and  N_11 
REMARK    4  A    between atoms: CA_10  and  C_14 
REMARK    5  A    between atoms: N_11  and  C_19 
REMARK    6  A    between atoms: C_14  and  O_15 
REMARK    7  A    between atoms: C_19  and  C_20 
REMARK    8  A    between atoms: C_22  and  C_23 
ROOT
ATOM      1  CA  TRP A   1       6.790  28.794  55.589  1.00  0.00     0.214 C 
ENDROOT
BRANCH   1   2
ATOM      2  CB  TRP A   1       7.761  28.198  56.626  1.00  0.00     0.076 C 
BRANCH   2   3
ATOM      3  CG  TRP A   1       8.742  29.156  57.236  1.00  0.00    -0.028 A 
ATOM      4  CD2 TRP A   1       8.535  30.155  58.246  1.00  0.00    -0.002 A 
ATOM      5  CE3 TRP A   1       7.432  30.584  59.018  1.00  0.00     0.014 A 
ATOM      6  CE2 TRP A   1       9.755  30.810  58.433  1.00  0.00     0.042 A 
ATOM      7  CZ3 TRP A   1       7.579  31.661  59.903  1.00  0.00     0.001 A 
ATOM      8  CH2 TRP A   1       8.806  32.300  60.047  1.00  0.00     0.002 A 
ATOM      9  CZ2 TRP A   1       9.921  31.879  59.322  1.00  0.00     0.030 A 
ATOM     10  NE1 TRP A   1      10.683  30.194  57.630  1.00  0.00    -0.365 N 
ATOM     11  HE1 TRP A   1      11.666  30.434  57.599  1.00  0.00     0.165 HD
ATOM     12  CD1 TRP A   1      10.081  29.213  56.891  1.00  0.00     0.096 A 
ENDBRANCH   2   3
ENDBRANCH   1   2
BRANCH   1  13
ATOM     13  N   TRP A   1       7.181  28.371  54.186  1.00  0.00    -0.064 N 
ATOM     14  H1  TRP A   1       7.329  29.191  53.580  1.00  0.00     0.278 HD
ATOM     15  H2  TRP A   1       8.102  27.906  54.276  1.00  0.00     0.278 HD
BRANCH  13  16
HETATM   16  C   UNK A   0       6.228  27.447  53.521  1.00  0.00     0.280 C 
BRANCH  16  17
HETATM   17  C   UNK A   0       6.766  26.075  53.370  1.00  0.00     0.027 A 
HETATM   18  S   UNK A   0       6.220  24.789  54.370  1.00  0.00    -0.076 SA
HETATM   19  C   UNK A   0       7.394  23.756  53.662  1.00  0.00     0.079 A 
HETATM   20  N   UNK A   0       8.106  24.294  52.696  1.00  0.00    -0.257 NA
HETATM   21  C   UNK A   0       7.754  25.613  52.526  1.00  0.00     0.133 A 
BRANCH  19  22
HETATM   22  C   UNK A   0       7.620  22.327  54.153  1.00  0.00     0.045 C 
HETATM   23  C   UNK A   0       7.756  21.251  53.034  1.00  0.00     0.011 C 
HETATM   24  C   UNK A   0       8.881  20.616  53.873  1.00  0.00     0.002 C 
HETATM   25  C   UNK A   0       9.122  22.021  54.452  1.00  0.00     0.011 C 
ENDBRANCH  19  22
ENDBRANCH  16  17
ENDBRANCH  13  16
ENDBRANCH   1  13
BRANCH   1  26
ATOM     26  C   TRP A   1       5.356  28.283  55.842  1.00  0.00     0.197 C 
BRANCH  26  27
ATOM     27  O   TRP A   1       5.073  28.434  57.239  1.00  0.00    -0.399 OA
ATOM     28  H   TRP A   1       4.304  27.863  57.442  1.00  0.00     0.209 HD
ENDBRANCH  26  27
ENDBRANCH   1  26
TORSDOF 8
ENDMDL
MODEL 9
REMARK VINA RESULT:      -7.7      2.454      8.922
REMARK  8 active torsions:
REMARK  status: ('A' for Active; 'I' for Inactive)
REMARK    1  A    between atoms: CG_8  and  CB_9 
REMARK    2  A    between atoms: CB_9  and  CA_10 
REMARK    3  A    between atoms: CA_10  and  N_11 
REMARK    4  A    between atoms: CA_10  and  C_14 
REMARK    5  A    between atoms: N_11  and  C_19 
REMARK    6  A    between atoms: C_14  and  O_15 
REMARK    7  A    between atoms: C_19  and  C_20 
REMARK    8  A    between atoms: C_22  and  C_23 
ROOT
ATOM      1  CA  TRP A   1       7.776  28.838  56.453  1.00  0.00     0.214 C 
ENDROOT
BRANCH   1   2
ATOM      2  CB  TRP A   1       6.528  29.152  57.301  1.00  0.00     0.076 C 
BRANCH   2   3
ATOM      3  CG  TRP A   1       6.582  30.416  58.107  1.00  0.00    -0.028 A 
ATOM      4  CD2 TRP A   1       7.500  30.800  59.144  1.00  0.00    -0.002 A 
ATOM      5  CE3 TRP A   1       8.630  30.207  59.749  1.00  0.00     0.014 A 
ATOM      6  CE2 TRP A   1       7.096  32.055  59.606  1.00  0.00     0.042 A 
ATOM      7  CZ3 TRP A   1       9.278  30.863  60.805  1.00  0.00     0.001 A 
ATOM      8  CH2 TRP A   1       8.834  32.103  61.251  1.00  0.00     0.002 A 
ATOM      9  CZ2 TRP A   1       7.739  32.728  60.652  1.00  0.00     0.030 A 
ATOM     10  NE1 TRP A   1       6.027  32.454  58.842  1.00  0.00    -0.365 N 
ATOM     11  HE1 TRP A   1       5.561  33.349  58.928  1.00  0.00     0.165 HD
ATOM     12  CD1 TRP A   1       5.697  31.469  57.953  1.00  0.00     0.096 A 
ENDBRANCH   2   3
ENDBRANCH   1   2
BRANCH   1  13
ATOM     13  N   TRP A   1       8.526  27.650  57.024  1.00  0.00    -0.064 N 
ATOM     14  H1  TRP A   1       9.182  27.260  56.332  1.00  0.00     0.278 HD
ATOM     15  H2  TRP A   1       9.105  28.025  57.797  1.00  0.00     0.278 HD
BRANCH  13  16
HETATM   16  C   UNK A   0       7.666  26.556  57.543  1.00  0.00     0.280 C 
BRANCH  16  17
HETATM   17  C   UNK A   0       7.921  25.258  56.876  1.00  0.00     0.027 A 
HETATM   18  S   UNK A   0       7.094  24.818  55.437  1.00  0.00    -0.076 SA
HETATM   19  C   UNK A   0       7.828  23.268  55.503  1.00  0.00     0.079 A 
HETATM   20  N   UNK A   0       8.687  23.094  56.483  1.00  0.00    -0.257 NA
HETATM   21  C   UNK A   0       8.744  24.222  57.268  1.00  0.00     0.133 A 
BRANCH  19  22
HETATM   22  C   UNK A   0       7.471  22.157  54.516  1.00  0.00     0.045 C 
HETATM   23  C   UNK A   0       8.456  21.985  53.321  1.00  0.00     0.011 C 
HETATM   24  C   UNK A   0       8.297  20.463  53.495  1.00  0.00     0.002 C 
HETATM   25  C   UNK A   0       7.981  20.754  54.973  1.00  0.00     0.011 C 
ENDBRANCH  19  22
ENDBRANCH  16  17
ENDBRANCH  13  16
ENDBRANCH   1  13
BRANCH   1  26
ATOM     26  C   TRP A   1       7.365  28.474  55.010  1.00  0.00     0.197 C 
BRANCH  26  27
ATOM     27  O   TRP A   1       8.446  28.829  54.140  1.00  0.00    -0.399 OA
ATOM     28  H   TRP A   1       8.071  28.944  53.243  1.00  0.00     0.209 HD
ENDBRANCH  26  27
ENDBRANCH   1  26
TORSDOF 8
ENDMDL
MODEL 10
REMARK VINA RESULT:      -7.7      4.493      7.912
REMARK  8 active torsions:
REMARK  status: ('A' for Active; 'I' for Inactive)
REMARK    1  A    between atoms: CG_8  and  CB_9 
REMARK    2  A    between atoms: CB_9  and  CA_10 
REMARK    3  A    between atoms: CA_10  and  N_11 
REMARK    4  A    between atoms: CA_10  and  C_14 
REMARK    5  A    between atoms: N_11  and  C_19 
REMARK    6  A    between atoms: C_14  and  O_15 
REMARK    7  A    between atoms: C_19  and  C_20 
REMARK    8  A    between atoms: C_22  and  C_23 
ROOT
ATOM      1  CA  TRP A   1       7.471  27.435  54.964  1.00  0.00     0.214 C 
ENDROOT
BRANCH   1   2
ATOM      2  CB  TRP A   1       6.592  26.185  55.156  1.00  0.00     0.076 C 
BRANCH   2   3
ATOM      3  CG  TRP A   1       7.313  24.927  55.543  1.00  0.00    -0.028 A 
ATOM      4  CD2 TRP A   1       7.631  23.775  54.746  1.00  0.00    -0.002 A 
ATOM      5  CE3 TRP A   1       7.432  23.406  53.397  1.00  0.00     0.014 A 
ATOM      6  CE2 TRP A   1       8.271  22.859  55.585  1.00  0.00     0.042 A 
ATOM      7  CZ3 TRP A   1       7.837  22.139  52.955  1.00  0.00     0.001 A 
ATOM      8  CH2 TRP A   1       8.454  21.247  53.826  1.00  0.00     0.002 A 
ATOM      9  CZ2 TRP A   1       8.692  21.595  55.156  1.00  0.00     0.030 A 
ATOM     10  NE1 TRP A   1       8.404  23.449  56.817  1.00  0.00    -0.365 N 
ATOM     11  HE1 TRP A   1       8.875  23.028  57.608  1.00  0.00     0.165 HD
ATOM     12  CD1 TRP A   1       7.814  24.683  56.809  1.00  0.00     0.096 A 
ENDBRANCH   2   3
ENDBRANCH   1   2
BRANCH   1  13
ATOM     13  N   TRP A   1       7.061  28.191  53.715  1.00  0.00    -0.064 N 
ATOM     14  H1  TRP A   1       7.366  29.173  53.759  1.00  0.00     0.278 HD
ATOM     15  H2  TRP A   1       7.587  27.757  52.935  1.00  0.00     0.278 HD
BRANCH  13  16
HETATM   16  C   UNK A   0       5.609  28.151  53.406  1.00  0.00     0.280 C 
BRANCH  16  17
HETATM   17  C   UNK A   0       5.320  27.590  52.065  1.00  0.00     0.027 A 
HETATM   18  S   UNK A   0       4.791  28.594  50.775  1.00  0.00    -0.076 SA
HETATM   19  C   UNK A   0       4.573  27.200  49.797  1.00  0.00     0.079 A 
HETATM   20  N   UNK A   0       4.930  26.063  50.351  1.00  0.00    -0.257 NA
HETATM   21  C   UNK A   0       5.356  26.278  51.642  1.00  0.00     0.133 A 
BRANCH  19  22
HETATM   22  C   UNK A   0       3.964  27.278  48.397  1.00  0.00     0.045 C 
HETATM   23  C   UNK A   0       3.769  25.909  47.679  1.00  0.00     0.011 C 
HETATM   24  C   UNK A   0       2.417  26.444  47.171  1.00  0.00     0.002 C 
HETATM   25  C   UNK A   0       2.404  27.345  48.419  1.00  0.00     0.011 C 
ENDBRANCH  19  22
ENDBRANCH  16  17
ENDBRANCH  13  16
ENDBRANCH   1  13
BRANCH   1  26
ATOM     26  C   TRP A   1       7.304  28.398  56.160  1.00  0.00     0.197 C 
BRANCH  26  27
ATOM     27  O   TRP A   1       7.762  29.693  55.752  1.00  0.00    -0.399 OA
ATOM     28  H   TRP A   1       7.057  30.089  55.200  1.00  0.00     0.209 HD
ENDBRANCH  26  27
ENDBRANCH   1  26
TORSDOF 8
ENDMDL
