MODEL 1
REMARK VINA RESULT:     -10.6      0.000      0.000
REMARK  4 active torsions:
REMARK  status: ('A' for Active; 'I' for Inactive)
REMARK    1  A    between atoms: C_2  and  C_3 
REMARK    2  A    between atoms: C_6  and  C_7 
REMARK    3  A    between atoms: C_11  and  C_12 
REMARK       I    between atoms: C_12  and  N_13 
REMARK    4  A    between atoms: N_13  and  N_14 
ROOT
HETATM    1  C   UNL     1       8.895  29.371  56.835  1.00  0.00     0.289 C 
HETATM    2  N   UNL     1       7.799  28.541  56.671  1.00  0.00    -0.241 N 
HETATM    3  O   UNL     1       9.887  29.354  56.111  1.00  0.00    -0.264 OA
HETATM    4  H   UNL     1       7.014  28.582  57.320  1.00  0.00     0.192 HD
ENDROOT
BRANCH   1   5
HETATM    5  C   UNL     1       8.806  30.281  57.949  1.00  0.00     0.121 A 
HETATM    6  N   UNL     1       9.713  31.290  58.107  1.00  0.00    -0.272 N 
HETATM    7  N   UNL     1       9.513  32.046  59.195  1.00  0.00    -0.174 NA
HETATM    8  H   UNL     1      10.497  31.499  57.497  1.00  0.00     0.189 HD
HETATM    9  C   UNL     1       8.414  31.533  59.770  1.00  0.00     0.089 A 
HETATM   10  C   UNL     1       7.942  30.417  59.019  1.00  0.00     0.071 A 
BRANCH   9  11
HETATM   11  C   UNL     1       7.855  32.107  61.000  1.00  0.00    -0.006 A 
HETATM   12  C   UNL     1       8.534  32.012  62.223  1.00  0.00     0.014 A 
HETATM   13  C   UNL     1       7.985  32.559  63.389  1.00  0.00     0.008 A 
HETATM   14  C   UNL     1       6.745  33.208  63.357  1.00  0.00    -0.059 A 
HETATM   15  C   UNL     1       6.067  33.311  62.138  1.00  0.00     0.008 A 
HETATM   16  C   UNL     1       6.615  32.761  60.975  1.00  0.00     0.014 A 
BRANCH  14  17
HETATM   17  C   UNL     1       6.159  33.807  64.610  1.00  0.00     0.034 C 
HETATM   18  C   UNL     1       7.163  33.825  65.752  1.00  0.00     0.010 C 
ENDBRANCH  14  17
ENDBRANCH   9  11
ENDBRANCH   1   5
BRANCH   2  19
HETATM   19  N   UNL     1       7.769  27.628  55.653  1.00  0.00    -0.165 NA
HETATM   20  C   UNL     1       7.686  26.382  55.991  1.00  0.00     0.157 A 
HETATM   21  C   UNL     1       7.620  25.779  57.399  1.00  0.00     0.277 A 
HETATM   22  C   UNL     1       7.643  25.252  55.072  1.00  0.00     0.027 A 
HETATM   23  O   UNL     1       7.628  26.425  58.426  1.00  0.00    -0.266 OA
HETATM   24  N   UNL     1       7.554  24.416  57.215  1.00  0.00    -0.321 N 
HETATM   25  C   UNL     1       7.566  24.103  55.857  1.00  0.00     0.048 A 
HETATM   26  H   UNL     1       7.502  23.752  57.974  1.00  0.00     0.169 HD
HETATM   27  C   UNL     1       7.510  22.850  55.285  1.00  0.00     0.030 A 
HETATM   28  C   UNL     1       7.534  22.781  53.886  1.00  0.00     0.002 A 
HETATM   29  C   UNL     1       7.610  23.949  53.098  1.00  0.00     0.001 A 
HETATM   30  C   UNL     1       7.667  25.212  53.693  1.00  0.00     0.016 A 
ENDBRANCH   2  19
TORSDOF 4
ENDMDL
MODEL 2
REMARK VINA RESULT:     -10.5      1.209      1.292
REMARK  4 active torsions:
REMARK  status: ('A' for Active; 'I' for Inactive)
REMARK    1  A    between atoms: C_2  and  C_3 
REMARK    2  A    between atoms: C_6  and  C_7 
REMARK    3  A    between atoms: C_11  and  C_12 
REMARK       I    between atoms: C_12  and  N_13 
REMARK    4  A    between atoms: N_13  and  N_14 
ROOT
HETATM    1  C   UNL     1       7.772  28.876  56.386  1.00  0.00     0.289 C 
HETATM    2  N   UNL     1       6.949  27.761  56.399  1.00  0.00    -0.241 N 
HETATM    3  O   UNL     1       8.660  29.067  55.559  1.00  0.00    -0.264 OA
HETATM    4  H   UNL     1       6.245  27.642  57.126  1.00  0.00     0.192 HD
ENDROOT
BRANCH   1   5
HETATM    5  C   UNL     1       7.522  29.826  57.440  1.00  0.00     0.121 A 
HETATM    6  N   UNL     1       6.723  30.914  57.232  1.00  0.00    -0.272 N 
HETATM    7  N   UNL     1       6.595  31.717  58.296  1.00  0.00    -0.174 NA
HETATM    8  H   UNL     1       6.245  31.156  56.369  1.00  0.00     0.189 HD
HETATM    9  C   UNL     1       7.319  31.124  59.260  1.00  0.00     0.089 A 
HETATM   10  C   UNL     1       7.923  29.935  58.758  1.00  0.00     0.071 A 
BRANCH   9  11
HETATM   11  C   UNL     1       7.418  31.700  60.606  1.00  0.00    -0.006 A 
HETATM   12  C   UNL     1       8.338  31.209  61.543  1.00  0.00     0.014 A 
HETATM   13  C   UNL     1       8.417  31.765  62.826  1.00  0.00     0.008 A 
HETATM   14  C   UNL     1       7.575  32.818  63.199  1.00  0.00    -0.059 A 
HETATM   15  C   UNL     1       6.660  33.316  62.265  1.00  0.00     0.008 A 
HETATM   16  C   UNL     1       6.581  32.758  60.985  1.00  0.00     0.014 A 
BRANCH  14  17
HETATM   17  C   UNL     1       7.667  33.424  64.576  1.00  0.00     0.034 C 
HETATM   18  C   UNL     1       6.295  33.754  65.142  1.00  0.00     0.010 C 
ENDBRANCH  14  17
ENDBRANCH   9  11
ENDBRANCH   1   5
BRANCH   2  19
HETATM   19  N   UNL     1       7.094  26.784  55.452  1.00  0.00    -0.165 NA
HETATM   20  C   UNL     1       7.496  25.626  55.869  1.00  0.00     0.157 A 
HETATM   21  C   UNL     1       7.842  25.195  57.298  1.00  0.00     0.277 A 
HETATM   22  C   UNL     1       7.717  24.453  55.034  1.00  0.00     0.027 A 
HETATM   23  O   UNL     1       7.771  25.915  58.271  1.00  0.00    -0.266 OA
HETATM   24  N   UNL     1       8.226  23.876  57.204  1.00  0.00    -0.321 N 
HETATM   25  C   UNL     1       8.154  23.437  55.883  1.00  0.00     0.048 A 
HETATM   26  H   UNL     1       8.515  23.321  57.996  1.00  0.00     0.169 HD
HETATM   27  C   UNL     1       8.455  22.182  55.399  1.00  0.00     0.030 A 
HETATM   28  C   UNL     1       8.304  21.971  54.022  1.00  0.00     0.002 A 
HETATM   29  C   UNL     1       7.859  23.004  53.170  1.00  0.00     0.001 A 
HETATM   30  C   UNL     1       7.559  24.271  53.675  1.00  0.00     0.016 A 
ENDBRANCH   2  19
TORSDOF 4
ENDMDL
MODEL 3
REMARK VINA RESULT:     -10.2      2.023      9.952
REMARK  4 active torsions:
REMARK  status: ('A' for Active; 'I' for Inactive)
REMARK    1  A    between atoms: C_2  and  C_3 
REMARK    2  A    between atoms: C_6  and  C_7 
REMARK    3  A    between atoms: C_11  and  C_12 
REMARK       I    between atoms: C_12  and  N_13 
REMARK    4  A    between atoms: N_13  and  N_14 
ROOT
HETATM    1  C   UNL     1       6.002  29.897  57.490  1.00  0.00     0.289 C 
HETATM    2  N   UNL     1       6.953  30.629  58.181  1.00  0.00    -0.241 N 
HETATM    3  O   UNL     1       4.790  30.011  57.655  1.00  0.00    -0.264 OA
HETATM    4  H   UNL     1       7.947  30.473  58.020  1.00  0.00     0.192 HD
ENDROOT
BRANCH   1   5
HETATM    5  C   UNL     1       6.535  28.953  56.539  1.00  0.00     0.121 A 
HETATM    6  N   UNL     1       7.350  29.364  55.523  1.00  0.00    -0.272 N 
HETATM    7  N   UNL     1       7.757  28.380  54.710  1.00  0.00    -0.174 NA
HETATM    8  H   UNL     1       7.654  30.315  55.339  1.00  0.00     0.189 HD
HETATM    9  C   UNL     1       7.208  27.266  55.221  1.00  0.00     0.089 A 
HETATM   10  C   UNL     1       6.427  27.586  56.370  1.00  0.00     0.071 A 
BRANCH   9  11
HETATM   11  C   UNL     1       7.435  25.951  54.610  1.00  0.00    -0.006 A 
HETATM   12  C   UNL     1       7.431  24.780  55.379  1.00  0.00     0.014 A 
HETATM   13  C   UNL     1       7.656  23.532  54.783  1.00  0.00     0.008 A 
HETATM   14  C   UNL     1       7.892  23.433  53.407  1.00  0.00    -0.059 A 
HETATM   15  C   UNL     1       7.889  24.599  52.634  1.00  0.00     0.008 A 
HETATM   16  C   UNL     1       7.668  25.844  53.232  1.00  0.00     0.014 A 
BRANCH  14  17
HETATM   17  C   UNL     1       8.122  22.090  52.762  1.00  0.00     0.034 C 
HETATM   18  C   UNL     1       7.866  20.946  53.731  1.00  0.00     0.010 C 
ENDBRANCH  14  17
ENDBRANCH   9  11
ENDBRANCH   1   5
BRANCH   2  19
HETATM   19  N   UNL     1       6.571  31.551  59.116  1.00  0.00    -0.165 NA
HETATM   20  C   UNL     1       7.240  31.568  60.224  1.00  0.00     0.157 A 
HETATM   21  C   UNL     1       8.417  30.679  60.639  1.00  0.00     0.277 A 
HETATM   22  C   UNL     1       7.000  32.463  61.348  1.00  0.00     0.027 A 
HETATM   23  O   UNL     1       8.903  29.811  59.945  1.00  0.00    -0.266 OA
HETATM   24  N   UNL     1       8.760  31.089  61.909  1.00  0.00    -0.321 N 
HETATM   25  C   UNL     1       7.936  32.131  62.327  1.00  0.00     0.048 A 
HETATM   26  H   UNL     1       9.510  30.678  62.444  1.00  0.00     0.169 HD
HETATM   27  C   UNL     1       7.976  32.801  63.532  1.00  0.00     0.030 A 
HETATM   28  C   UNL     1       7.041  33.825  63.730  1.00  0.00     0.002 A 
HETATM   29  C   UNL     1       6.098  34.155  62.733  1.00  0.00     0.001 A 
HETATM   30  C   UNL     1       6.069  33.467  61.518  1.00  0.00     0.016 A 
ENDBRANCH   2  19
TORSDOF 4
ENDMDL
MODEL 4
REMARK VINA RESULT:      -9.7      1.610      2.121
REMARK  4 active torsions:
REMARK  status: ('A' for Active; 'I' for Inactive)
REMARK    1  A    between atoms: C_2  and  C_3 
REMARK    2  A    between atoms: C_6  and  C_7 
REMARK    3  A    between atoms: C_11  and  C_12 
REMARK       I    between atoms: C_12  and  N_13 
REMARK    4  A    between atoms: N_13  and  N_14 
ROOT
HETATM    1  C   UNL     1       8.175  29.337  57.296  1.00  0.00     0.289 C 
HETATM    2  N   UNL     1       7.539  28.111  57.396  1.00  0.00    -0.241 N 
HETATM    3  O   UNL     1       9.020  29.607  56.446  1.00  0.00    -0.264 OA
HETATM    4  H   UNL     1       6.863  27.935  58.139  1.00  0.00     0.192 HD
ENDROOT
BRANCH   1   5
HETATM    5  C   UNL     1       7.782  30.308  58.286  1.00  0.00     0.121 A 
HETATM    6  N   UNL     1       6.949  31.341  57.965  1.00  0.00    -0.272 N 
HETATM    7  N   UNL     1       6.683  32.172  58.981  1.00  0.00    -0.174 NA
HETATM    8  H   UNL     1       6.538  31.527  57.054  1.00  0.00     0.189 HD
HETATM    9  C   UNL     1       7.348  31.655  60.027  1.00  0.00     0.089 A 
HETATM   10  C   UNL     1       8.056  30.484  59.628  1.00  0.00     0.071 A 
BRANCH   9  11
HETATM   11  C   UNL     1       7.294  32.281  61.354  1.00  0.00    -0.006 A 
HETATM   12  C   UNL     1       6.386  33.310  61.638  1.00  0.00     0.014 A 
HETATM   13  C   UNL     1       6.351  33.903  62.907  1.00  0.00     0.008 A 
HETATM   14  C   UNL     1       7.226  33.480  63.914  1.00  0.00    -0.059 A 
HETATM   15  C   UNL     1       8.129  32.449  63.637  1.00  0.00     0.008 A 
HETATM   16  C   UNL     1       8.165  31.861  62.369  1.00  0.00     0.014 A 
BRANCH  14  17
HETATM   17  C   UNL     1       7.181  34.109  65.283  1.00  0.00     0.034 C 
HETATM   18  C   UNL     1       5.796  34.019  65.903  1.00  0.00     0.010 C 
ENDBRANCH  14  17
ENDBRANCH   9  11
ENDBRANCH   1   5
BRANCH   2  19
HETATM   19  N   UNL     1       7.833  27.105  56.517  1.00  0.00    -0.165 NA
HETATM   20  C   UNL     1       6.890  26.748  55.705  1.00  0.00     0.157 A 
HETATM   21  C   UNL     1       5.466  27.304  55.596  1.00  0.00     0.277 A 
HETATM   22  C   UNL     1       6.988  25.702  54.696  1.00  0.00     0.027 A 
HETATM   23  O   UNL     1       5.021  28.199  56.282  1.00  0.00    -0.266 OA
HETATM   24  N   UNL     1       4.863  26.579  54.591  1.00  0.00    -0.321 N 
HETATM   25  C   UNL     1       5.748  25.643  54.062  1.00  0.00     0.048 A 
HETATM   26  H   UNL     1       3.909  26.725  54.294  1.00  0.00     0.169 HD
HETATM   27  C   UNL     1       5.508  24.744  53.044  1.00  0.00     0.030 A 
HETATM   28  C   UNL     1       6.560  23.894  52.677  1.00  0.00     0.002 A 
HETATM   29  C   UNL     1       7.813  23.961  53.323  1.00  0.00     0.001 A 
HETATM   30  C   UNL     1       8.040  24.877  54.353  1.00  0.00     0.016 A 
ENDBRANCH   2  19
TORSDOF 4
ENDMDL
MODEL 5
REMARK VINA RESULT:      -9.7      2.094      3.202
REMARK  4 active torsions:
REMARK  status: ('A' for Active; 'I' for Inactive)
REMARK    1  A    between atoms: C_2  and  C_3 
REMARK    2  A    between atoms: C_6  and  C_7 
REMARK    3  A    between atoms: C_11  and  C_12 
REMARK       I    between atoms: C_12  and  N_13 
REMARK    4  A    between atoms: N_13  and  N_14 
ROOT
HETATM    1  C   UNL     1       6.375  27.093  55.199  1.00  0.00     0.289 C 
HETATM    2  N   UNL     1       7.548  26.372  55.052  1.00  0.00    -0.241 N 
HETATM    3  O   UNL     1       5.307  26.785  54.676  1.00  0.00    -0.264 OA
HETATM    4  H   UNL     1       8.413  26.689  55.489  1.00  0.00     0.192 HD
ENDROOT
BRANCH   1   5
HETATM    5  C   UNL     1       6.487  28.272  56.022  1.00  0.00     0.121 A 
HETATM    6  N   UNL     1       6.143  29.502  55.538  1.00  0.00    -0.272 N 
HETATM    7  N   UNL     1       6.313  30.505  56.409  1.00  0.00    -0.174 NA
HETATM    8  H   UNL     1       5.792  29.709  54.608  1.00  0.00     0.189 HD
HETATM    9  C   UNL     1       6.765  29.913  57.527  1.00  0.00     0.089 A 
HETATM   10  C   UNL     1       6.893  28.508  57.321  1.00  0.00     0.071 A 
BRANCH   9  11
HETATM   11  C   UNL     1       7.061  30.688  58.737  1.00  0.00    -0.006 A 
HETATM   12  C   UNL     1       6.244  31.754  59.139  1.00  0.00     0.014 A 
HETATM   13  C   UNL     1       6.543  32.489  60.293  1.00  0.00     0.008 A 
HETATM   14  C   UNL     1       7.667  32.174  61.066  1.00  0.00    -0.059 A 
HETATM   15  C   UNL     1       8.481  31.107  60.673  1.00  0.00     0.008 A 
HETATM   16  C   UNL     1       8.183  30.377  59.519  1.00  0.00     0.014 A 
BRANCH  14  17
HETATM   17  C   UNL     1       7.983  32.957  62.314  1.00  0.00     0.034 C 
HETATM   18  C   UNL     1       7.039  32.610  63.454  1.00  0.00     0.010 C 
ENDBRANCH  14  17
ENDBRANCH   9  11
ENDBRANCH   1   5
BRANCH   2  19
HETATM   19  N   UNL     1       7.572  25.237  54.288  1.00  0.00    -0.165 NA
HETATM   20  C   UNL     1       7.877  24.135  54.894  1.00  0.00     0.157 A 
HETATM   21  C   UNL     1       8.226  23.924  56.371  1.00  0.00     0.277 A 
HETATM   22  C   UNL     1       7.962  22.820  54.273  1.00  0.00     0.027 A 
HETATM   23  O   UNL     1       8.252  24.804  57.205  1.00  0.00    -0.266 OA
HETATM   24  N   UNL     1       8.482  22.577  56.502  1.00  0.00    -0.321 N 
HETATM   25  C   UNL     1       8.329  21.927  55.279  1.00  0.00     0.048 A 
HETATM   26  H   UNL     1       8.743  22.141  57.374  1.00  0.00     0.169 HD
HETATM   27  C   UNL     1       8.496  20.584  55.016  1.00  0.00     0.030 A 
HETATM   28  C   UNL     1       8.283  20.156  53.699  1.00  0.00     0.002 A 
HETATM   29  C   UNL     1       7.911  21.065  52.687  1.00  0.00     0.001 A 
HETATM   30  C   UNL     1       7.746  22.423  52.969  1.00  0.00     0.016 A 
ENDBRANCH   2  19
TORSDOF 4
ENDMDL
MODEL 6
REMARK VINA RESULT:      -9.6      2.208      9.839
REMARK  4 active torsions:
REMARK  status: ('A' for Active; 'I' for Inactive)
REMARK    1  A    between atoms: C_2  and  C_3 
REMARK    2  A    between atoms: C_6  and  C_7 
REMARK    3  A    between atoms: C_11  and  C_12 
REMARK       I    between atoms: C_12  and  N_13 
REMARK    4  A    between atoms: N_13  and  N_14 
ROOT
HETATM    1  C   UNL     1       8.951  30.677  59.498  1.00  0.00     0.289 C 
HETATM    2  N   UNL     1       7.984  30.442  60.462  1.00  0.00    -0.241 N 
HETATM    3  O   UNL     1       9.860  31.494  59.620  1.00  0.00    -0.264 OA
HETATM    4  H   UNL     1       7.236  29.769  60.295  1.00  0.00     0.192 HD
ENDROOT
BRANCH   1   5
HETATM    5  C   UNL     1       8.818  29.887  58.300  1.00  0.00     0.121 A 
HETATM    6  N   UNL     1       9.641  30.092  57.229  1.00  0.00    -0.272 N 
HETATM    7  N   UNL     1       9.391  29.296  56.181  1.00  0.00    -0.174 NA
HETATM    8  H   UNL     1      10.389  30.776  57.163  1.00  0.00     0.189 HD
HETATM    9  C   UNL     1       8.376  28.512  56.582  1.00  0.00     0.089 A 
HETATM   10  C   UNL     1       7.984  28.858  57.908  1.00  0.00     0.071 A 
BRANCH   9  11
HETATM   11  C   UNL     1       7.816  27.478  55.705  1.00  0.00    -0.006 A 
HETATM   12  C   UNL     1       7.510  26.199  56.190  1.00  0.00     0.014 A 
HETATM   13  C   UNL     1       6.980  25.220  55.339  1.00  0.00     0.008 A 
HETATM   14  C   UNL     1       6.751  25.499  53.987  1.00  0.00    -0.059 A 
HETATM   15  C   UNL     1       7.048  26.776  53.501  1.00  0.00     0.008 A 
HETATM   16  C   UNL     1       7.579  27.752  54.351  1.00  0.00     0.014 A 
BRANCH  14  17
HETATM   17  C   UNL     1       6.171  24.450  53.074  1.00  0.00     0.034 C 
HETATM   18  C   UNL     1       4.986  24.980  52.282  1.00  0.00     0.010 C 
ENDBRANCH  14  17
ENDBRANCH   9  11
ENDBRANCH   1   5
BRANCH   2  19
HETATM   19  N   UNL     1       7.999  31.135  61.641  1.00  0.00    -0.165 NA
HETATM   20  C   UNL     1       7.087  32.042  61.794  1.00  0.00     0.157 A 
HETATM   21  C   UNL     1       5.980  32.453  60.818  1.00  0.00     0.277 A 
HETATM   22  C   UNL     1       6.924  32.893  62.964  1.00  0.00     0.027 A 
HETATM   23  O   UNL     1       5.800  31.952  59.728  1.00  0.00    -0.266 OA
HETATM   24  N   UNL     1       5.289  33.465  61.448  1.00  0.00    -0.321 N 
HETATM   25  C   UNL     1       5.836  33.725  62.702  1.00  0.00     0.048 A 
HETATM   26  H   UNL     1       4.497  33.938  61.039  1.00  0.00     0.169 HD
HETATM   27  C   UNL     1       5.415  34.661  63.623  1.00  0.00     0.030 A 
HETATM   28  C   UNL     1       6.124  34.741  64.829  1.00  0.00     0.002 A 
HETATM   29  C   UNL     1       7.224  33.894  65.086  1.00  0.00     0.001 A 
HETATM   30  C   UNL     1       7.639  32.951  64.143  1.00  0.00     0.016 A 
ENDBRANCH   2  19
TORSDOF 4
ENDMDL
MODEL 7
REMARK VINA RESULT:      -9.4      8.007     11.189
REMARK  4 active torsions:
REMARK  status: ('A' for Active; 'I' for Inactive)
REMARK    1  A    between atoms: C_2  and  C_3 
REMARK    2  A    between atoms: C_6  and  C_7 
REMARK    3  A    between atoms: C_11  and  C_12 
REMARK       I    between atoms: C_12  and  N_13 
REMARK    4  A    between atoms: N_13  and  N_14 
ROOT
HETATM    1  C   UNL     1       4.324  28.047  51.579  1.00  0.00     0.289 C 
HETATM    2  N   UNL     1       3.819  27.624  50.361  1.00  0.00    -0.241 N 
HETATM    3  O   UNL     1       4.026  29.112  52.116  1.00  0.00    -0.264 OA
HETATM    4  H   UNL     1       4.122  26.741  49.951  1.00  0.00     0.192 HD
ENDROOT
BRANCH   1   5
HETATM    5  C   UNL     1       5.258  27.140  52.198  1.00  0.00     0.121 A 
HETATM    6  N   UNL     1       6.396  27.602  52.795  1.00  0.00    -0.272 N 
HETATM    7  N   UNL     1       7.175  26.644  53.313  1.00  0.00    -0.174 NA
HETATM    8  H   UNL     1       6.690  28.572  52.867  1.00  0.00     0.189 HD
HETATM    9  C   UNL     1       6.515  25.500  53.073  1.00  0.00     0.089 A 
HETATM   10  C   UNL     1       5.306  25.770  52.368  1.00  0.00     0.071 A 
BRANCH   9  11
HETATM   11  C   UNL     1       7.046  24.203  53.510  1.00  0.00    -0.006 A 
HETATM   12  C   UNL     1       7.580  23.288  52.593  1.00  0.00     0.014 A 
HETATM   13  C   UNL     1       8.077  22.052  53.024  1.00  0.00     0.008 A 
HETATM   14  C   UNL     1       8.047  21.706  54.380  1.00  0.00    -0.059 A 
HETATM   15  C   UNL     1       7.522  22.619  55.300  1.00  0.00     0.008 A 
HETATM   16  C   UNL     1       7.022  23.851  54.867  1.00  0.00     0.014 A 
BRANCH  14  17
HETATM   17  C   UNL     1       8.592  20.380  54.846  1.00  0.00     0.034 C 
HETATM   18  C   UNL     1       8.782  20.345  56.354  1.00  0.00     0.010 C 
ENDBRANCH  14  17
ENDBRANCH   9  11
ENDBRANCH   1   5
BRANCH   2  19
HETATM   19  N   UNL     1       2.929  28.402  49.673  1.00  0.00    -0.165 NA
HETATM   20  C   UNL     1       2.338  27.852  48.660  1.00  0.00     0.157 A 
HETATM   21  C   UNL     1       2.505  26.429  48.117  1.00  0.00     0.277 A 
HETATM   22  C   UNL     1       1.363  28.498  47.793  1.00  0.00     0.027 A 
HETATM   23  O   UNL     1       3.240  25.591  48.595  1.00  0.00    -0.266 OA
HETATM   24  N   UNL     1       1.667  26.349  47.027  1.00  0.00    -0.321 N 
HETATM   25  C   UNL     1       0.997  27.555  46.834  1.00  0.00     0.048 A 
HETATM   26  H   UNL     1       1.566  25.520  46.460  1.00  0.00     0.169 HD
HETATM   27  C   UNL     1       0.077  27.856  45.851  1.00  0.00     0.030 A 
HETATM   28  C   UNL     1      -0.472  29.145  45.857  1.00  0.00     0.002 A 
HETATM   29  C   UNL     1      -0.097  30.093  46.833  1.00  0.00     0.001 A 
HETATM   30  C   UNL     1       0.837  29.774  47.821  1.00  0.00     0.016 A 
ENDBRANCH   2  19
TORSDOF 4
ENDMDL
MODEL 8
REMARK VINA RESULT:      -9.1      2.665     10.148
REMARK  4 active torsions:
REMARK  status: ('A' for Active; 'I' for Inactive)
REMARK    1  A    between atoms: C_2  and  C_3 
REMARK    2  A    between atoms: C_6  and  C_7 
REMARK    3  A    between atoms: C_11  and  C_12 
REMARK       I    between atoms: C_12  and  N_13 
REMARK    4  A    between atoms: N_13  and  N_14 
ROOT
HETATM    1  C   UNL     1       7.283  30.237  58.543  1.00  0.00     0.289 C 
HETATM    2  N   UNL     1       6.273  31.178  58.657  1.00  0.00    -0.241 N 
HETATM    3  O   UNL     1       8.226  30.141  59.325  1.00  0.00    -0.264 OA
HETATM    4  H   UNL     1       5.528  31.228  57.963  1.00  0.00     0.192 HD
ENDROOT
BRANCH   1   5
HETATM    5  C   UNL     1       7.165  29.354  57.411  1.00  0.00     0.121 A 
HETATM    6  N   UNL     1       6.540  29.759  56.265  1.00  0.00    -0.272 N 
HETATM    7  N   UNL     1       6.492  28.828  55.304  1.00  0.00    -0.174 NA
HETATM    8  H   UNL     1       6.121  30.668  56.095  1.00  0.00     0.189 HD
HETATM    9  C   UNL     1       7.133  27.768  55.823  1.00  0.00     0.089 A 
HETATM   10  C   UNL     1       7.566  28.058  57.150  1.00  0.00     0.071 A 
BRANCH   9  11
HETATM   11  C   UNL     1       7.309  26.529  55.057  1.00  0.00    -0.006 A 
HETATM   12  C   UNL     1       7.550  26.553  53.676  1.00  0.00     0.014 A 
HETATM   13  C   UNL     1       7.709  25.362  52.957  1.00  0.00     0.008 A 
HETATM   14  C   UNL     1       7.627  24.123  53.604  1.00  0.00    -0.059 A 
HETATM   15  C   UNL     1       7.394  24.094  54.982  1.00  0.00     0.008 A 
HETATM   16  C   UNL     1       7.232  25.284  55.698  1.00  0.00     0.014 A 
BRANCH  14  17
HETATM   17  C   UNL     1       7.810  22.841  52.833  1.00  0.00     0.034 C 
HETATM   18  C   UNL     1       8.373  21.731  53.705  1.00  0.00     0.010 C 
ENDBRANCH  14  17
ENDBRANCH   9  11
ENDBRANCH   1   5
BRANCH   2  19
HETATM   19  N   UNL     1       6.279  32.078  59.687  1.00  0.00    -0.165 NA
HETATM   20  C   UNL     1       5.128  32.400  60.185  1.00  0.00     0.157 A 
HETATM   21  C   UNL     1       3.738  31.907  59.768  1.00  0.00     0.277 A 
HETATM   22  C   UNL     1       4.907  33.337  61.278  1.00  0.00     0.027 A 
HETATM   23  O   UNL     1       3.529  31.105  58.882  1.00  0.00    -0.266 OA
HETATM   24  N   UNL     1       2.851  32.558  60.596  1.00  0.00    -0.321 N 
HETATM   25  C   UNL     1       3.529  33.394  61.480  1.00  0.00     0.048 A 
HETATM   26  H   UNL     1       1.850  32.431  60.552  1.00  0.00     0.169 HD
HETATM   27  C   UNL     1       2.983  34.201  62.457  1.00  0.00     0.030 A 
HETATM   28  C   UNL     1       3.870  34.958  63.234  1.00  0.00     0.002 A 
HETATM   29  C   UNL     1       5.263  34.893  63.023  1.00  0.00     0.001 A 
HETATM   30  C   UNL     1       5.801  34.072  62.030  1.00  0.00     0.016 A 
ENDBRANCH   2  19
TORSDOF 4
ENDMDL
MODEL 9
REMARK VINA RESULT:      -9.1      1.661      2.136
REMARK  4 active torsions:
REMARK  status: ('A' for Active; 'I' for Inactive)
REMARK    1  A    between atoms: C_2  and  C_3 
REMARK    2  A    between atoms: C_6  and  C_7 
REMARK    3  A    between atoms: C_11  and  C_12 
REMARK       I    between atoms: C_12  and  N_13 
REMARK    4  A    between atoms: N_13  and  N_14 
ROOT
HETATM    1  C   UNL     1       6.804  29.135  56.511  1.00  0.00     0.289 C 
HETATM    2  N   UNL     1       7.586  27.994  56.582  1.00  0.00    -0.241 N 
HETATM    3  O   UNL     1       6.074  29.412  55.562  1.00  0.00    -0.264 OA
HETATM    4  H   UNL     1       8.193  27.829  57.383  1.00  0.00     0.192 HD
ENDROOT
BRANCH   1   5
HETATM    5  C   UNL     1       6.907  30.013  57.649  1.00  0.00     0.121 A 
HETATM    6  N   UNL     1       8.006  29.987  58.460  1.00  0.00    -0.272 N 
HETATM    7  N   UNL     1       7.955  30.847  59.486  1.00  0.00    -0.174 NA
HETATM    8  H   UNL     1       8.819  29.388  58.356  1.00  0.00     0.189 HD
HETATM    9  C   UNL     1       6.785  31.488  59.336  1.00  0.00     0.089 A 
HETATM   10  C   UNL     1       6.093  30.988  58.195  1.00  0.00     0.071 A 
BRANCH   9  11
HETATM   11  C   UNL     1       6.362  32.538  60.271  1.00  0.00    -0.006 A 
HETATM   12  C   UNL     1       5.201  33.290  60.046  1.00  0.00     0.014 A 
HETATM   13  C   UNL     1       4.814  34.294  60.943  1.00  0.00     0.008 A 
HETATM   14  C   UNL     1       5.583  34.567  62.081  1.00  0.00    -0.059 A 
HETATM   15  C   UNL     1       6.738  33.814  62.313  1.00  0.00     0.008 A 
HETATM   16  C   UNL     1       7.125  32.815  61.415  1.00  0.00     0.014 A 
BRANCH  14  17
HETATM   17  C   UNL     1       5.161  35.638  63.053  1.00  0.00     0.034 C 
HETATM   18  C   UNL     1       4.370  36.743  62.370  1.00  0.00     0.010 C 
ENDBRANCH  14  17
ENDBRANCH   9  11
ENDBRANCH   1   5
BRANCH   2  19
HETATM   19  N   UNL     1       7.581  27.087  55.558  1.00  0.00    -0.165 NA
HETATM   20  C   UNL     1       7.661  25.838  55.888  1.00  0.00     0.157 A 
HETATM   21  C   UNL     1       7.767  25.228  57.289  1.00  0.00     0.277 A 
HETATM   22  C   UNL     1       7.674  24.714  54.962  1.00  0.00     0.027 A 
HETATM   23  O   UNL     1       7.781  25.867  58.320  1.00  0.00    -0.266 OA
HETATM   24  N   UNL     1       7.838  23.866  57.095  1.00  0.00    -0.321 N 
HETATM   25  C   UNL     1       7.783  23.560  55.737  1.00  0.00     0.048 A 
HETATM   26  H   UNL     1       7.917  23.198  57.848  1.00  0.00     0.169 HD
HETATM   27  C   UNL     1       7.822  22.310  55.156  1.00  0.00     0.030 A 
HETATM   28  C   UNL     1       7.748  22.249  53.759  1.00  0.00     0.002 A 
HETATM   29  C   UNL     1       7.636  23.421  52.981  1.00  0.00     0.001 A 
HETATM   30  C   UNL     1       7.599  24.680  53.584  1.00  0.00     0.016 A 
ENDBRANCH   2  19
TORSDOF 4
ENDMDL
MODEL 10
REMARK VINA RESULT:      -9.0      3.095     10.065
REMARK  4 active torsions:
REMARK  status: ('A' for Active; 'I' for Inactive)
REMARK    1  A    between atoms: C_2  and  C_3 
REMARK    2  A    between atoms: C_6  and  C_7 
REMARK    3  A    between atoms: C_11  and  C_12 
REMARK       I    between atoms: C_12  and  N_13 
REMARK    4  A    between atoms: N_13  and  N_14 
ROOT
HETATM    1  C   UNL     1       7.748  27.471  57.105  1.00  0.00     0.289 C 
HETATM    2  N   UNL     1       8.219  28.770  57.205  1.00  0.00    -0.241 N 
HETATM    3  O   UNL     1       7.685  26.686  58.047  1.00  0.00    -0.264 OA
HETATM    4  H   UNL     1       8.272  29.369  56.382  1.00  0.00     0.192 HD
ENDROOT
BRANCH   1   5
HETATM    5  C   UNL     1       7.328  27.078  55.783  1.00  0.00     0.121 A 
HETATM    6  N   UNL     1       7.571  25.818  55.314  1.00  0.00    -0.272 N 
HETATM    7  N   UNL     1       7.138  25.602  54.065  1.00  0.00    -0.174 NA
HETATM    8  H   UNL     1       8.040  25.068  55.812  1.00  0.00     0.189 HD
HETATM    9  C   UNL     1       6.562  26.758  53.698  1.00  0.00     0.089 A 
HETATM   10  C   UNL     1       6.666  27.714  54.750  1.00  0.00     0.071 A 
BRANCH   9  11
HETATM   11  C   UNL     1       5.943  26.919  52.377  1.00  0.00    -0.006 A 
HETATM   12  C   UNL     1       5.705  28.189  51.834  1.00  0.00     0.014 A 
HETATM   13  C   UNL     1       5.107  28.327  50.574  1.00  0.00     0.008 A 
HETATM   14  C   UNL     1       4.733  27.198  49.836  1.00  0.00    -0.059 A 
HETATM   15  C   UNL     1       4.975  25.929  50.371  1.00  0.00     0.008 A 
HETATM   16  C   UNL     1       5.569  25.793  51.630  1.00  0.00     0.014 A 
BRANCH  14  17
HETATM   17  C   UNL     1       4.100  27.346  48.476  1.00  0.00     0.034 C 
HETATM   18  C   UNL     1       3.816  25.997  47.834  1.00  0.00     0.010 C 
ENDBRANCH  14  17
ENDBRANCH   9  11
ENDBRANCH   1   5
BRANCH   2  19
HETATM   19  N   UNL     1       8.654  29.257  58.407  1.00  0.00    -0.165 NA
HETATM   20  C   UNL     1       7.932  30.181  58.955  1.00  0.00     0.157 A 
HETATM   21  C   UNL     1       6.639  30.816  58.432  1.00  0.00     0.277 A 
HETATM   22  C   UNL     1       8.212  30.836  60.225  1.00  0.00     0.027 A 
HETATM   23  O   UNL     1       6.095  30.513  57.391  1.00  0.00    -0.266 OA
HETATM   24  N   UNL     1       6.277  31.751  59.376  1.00  0.00    -0.321 N 
HETATM   25  C   UNL     1       7.193  31.766  60.427  1.00  0.00     0.048 A 
HETATM   26  H   UNL     1       5.457  32.334  59.299  1.00  0.00     0.169 HD
HETATM   27  C   UNL     1       7.164  32.562  61.553  1.00  0.00     0.030 A 
HETATM   28  C   UNL     1       8.199  32.397  62.482  1.00  0.00     0.002 A 
HETATM   29  C   UNL     1       9.226  31.452  62.272  1.00  0.00     0.001 A 
HETATM   30  C   UNL     1       9.242  30.654  61.126  1.00  0.00     0.016 A 
ENDBRANCH   2  19
TORSDOF 4
ENDMDL
