MODEL 1
REMARK VINA RESULT:      -9.6      0.000      0.000
REMARK  8 active torsions:
REMARK  status: ('A' for Active; 'I' for Inactive)
REMARK    1  A    between atoms: C_4  and  N_5 
REMARK    2  A    between atoms: C_8  and  C_9 
REMARK    3  A    between atoms: C_9  and  N_10 
REMARK       I    between atoms: N_10  and  C_11 
REMARK       I    between atoms: C_11  and  N_12 
REMARK    4  A    between atoms: N_12  and  C_13 
REMARK    5  A    between atoms: C_13  and  C_14 
REMARK    6  A    between atoms: C_14  and  N_15 
REMARK       I    between atoms: N_15  and  C_16 
REMARK    7  A    between atoms: C_16  and  C_17 
REMARK    8  A    between atoms: C_18  and  O_19 
ROOT
HETATM    1  N   UNL     1       8.671  29.338  55.625  1.00  0.00    -0.339 N 
HETATM    2  C   UNL     1       7.718  28.390  55.379  1.00  0.00     0.316 C 
HETATM    3  N   UNL     1       6.836  28.782  54.413  1.00  0.00    -0.342 N 
HETATM    4  O   UNL     1       7.689  27.297  55.930  1.00  0.00    -0.248 OA
HETATM    5  H   UNL     1       8.455  30.293  55.391  1.00  0.00     0.164 HD
HETATM    6  H   UNL     1       6.769  29.759  54.176  1.00  0.00     0.164 HD
ENDROOT
BRANCH   1   7
HETATM    7  C   UNL     1       9.677  29.093  56.629  1.00  0.00     0.166 C 
BRANCH   7   8
HETATM    8  C   UNL     1       9.585  30.141  57.674  1.00  0.00    -0.004 A 
HETATM    9  C   UNL     1      10.379  31.296  57.802  1.00  0.00     0.149 A 
HETATM   10  N   UNL     1      10.037  32.050  58.845  1.00  0.00    -0.180 NA
HETATM   11  N   UNL     1       8.988  31.399  59.416  1.00  0.00    -0.245 N 
HETATM   12  C   UNL     1       8.699  30.239  58.730  1.00  0.00     0.129 A 
BRANCH  11  13
HETATM   13  C   UNL     1       8.340  31.925  60.569  1.00  0.00     0.058 A 
HETATM   14  C   UNL     1       8.998  31.883  61.809  1.00  0.00     0.031 A 
HETATM   15  C   UNL     1       8.383  32.396  62.953  1.00  0.00     0.002 A 
HETATM   16  C   UNL     1       7.108  32.952  62.869  1.00  0.00     0.000 A 
HETATM   17  C   UNL     1       6.448  32.997  61.643  1.00  0.00     0.002 A 
HETATM   18  C   UNL     1       7.059  32.487  60.493  1.00  0.00     0.031 A 
ENDBRANCH  11  13
ENDBRANCH   7   8
ENDBRANCH   1   7
BRANCH   3  19
HETATM   19  C   UNL     1       5.732  27.931  54.003  1.00  0.00     0.144 C 
BRANCH  19  20
HETATM   20  C   UNL     1       6.135  26.929  52.913  1.00  0.00     0.142 C 
BRANCH  20  21
HETATM   21  N   UNL     1       6.324  25.578  53.414  1.00  0.00    -0.355 N 
HETATM   22  C   UNL     1       7.390  24.796  53.036  1.00  0.00     0.254 C 
HETATM   23  O   UNL     1       8.175  25.136  52.156  1.00  0.00    -0.268 OA
HETATM   24  H   UNL     1       5.780  25.271  54.216  1.00  0.00     0.162 HD
BRANCH  22  25
HETATM   25  C   UNL     1       7.565  23.485  53.740  1.00  0.00     0.065 A 
HETATM   26  C   UNL     1       7.456  23.302  55.127  1.00  0.00     0.081 A 
HETATM   27  C   UNL     1       7.645  22.038  55.695  1.00  0.00     0.037 A 
HETATM   28  C   UNL     1       7.945  20.943  54.882  1.00  0.00     0.003 A 
HETATM   29  C   UNL     1       8.059  21.109  53.504  1.00  0.00     0.001 A 
HETATM   30  C   UNL     1       7.872  22.371  52.938  1.00  0.00     0.020 A 
BRANCH  26  31
HETATM   31  O   UNL     1       7.168  24.355  55.958  1.00  0.00    -0.360 OA
HETATM   32  H   UNL     1       7.988  24.637  56.401  1.00  0.00     0.217 HD
ENDBRANCH  26  31
ENDBRANCH  22  25
ENDBRANCH  20  21
ENDBRANCH  19  20
ENDBRANCH   3  19
TORSDOF 8
ENDMDL
MODEL 2
REMARK VINA RESULT:      -9.5      2.004     10.038
REMARK  8 active torsions:
REMARK  status: ('A' for Active; 'I' for Inactive)
REMARK    1  A    between atoms: C_4  and  N_5 
REMARK    2  A    between atoms: C_8  and  C_9 
REMARK    3  A    between atoms: C_9  and  N_10 
REMARK       I    between atoms: N_10  and  C_11 
REMARK       I    between atoms: C_11  and  N_12 
REMARK    4  A    between atoms: N_12  and  C_13 
REMARK    5  A    between atoms: C_13  and  C_14 
REMARK    6  A    between atoms: C_14  and  N_15 
REMARK       I    between atoms: N_15  and  C_16 
REMARK    7  A    between atoms: C_16  and  C_17 
REMARK    8  A    between atoms: C_18  and  O_19 
ROOT
HETATM    1  N   UNL     1       6.898  27.978  56.097  1.00  0.00    -0.339 N 
HETATM    2  C   UNL     1       7.947  28.116  56.963  1.00  0.00     0.316 C 
HETATM    3  N   UNL     1       8.829  29.076  56.558  1.00  0.00    -0.342 N 
HETATM    4  O   UNL     1       8.053  27.484  58.006  1.00  0.00    -0.248 OA
HETATM    5  H   UNL     1       7.034  28.276  55.145  1.00  0.00     0.164 HD
HETATM    6  H   UNL     1       8.815  29.384  55.598  1.00  0.00     0.164 HD
ENDROOT
BRANCH   1   7
HETATM    7  C   UNL     1       5.876  26.996  56.366  1.00  0.00     0.166 C 
BRANCH   7   8
HETATM    8  C   UNL     1       6.115  25.803  55.519  1.00  0.00    -0.004 A 
HETATM    9  C   UNL     1       5.634  25.565  54.217  1.00  0.00     0.149 A 
HETATM   10  N   UNL     1       6.038  24.399  53.718  1.00  0.00    -0.180 NA
HETATM   11  N   UNL     1       6.814  23.853  54.693  1.00  0.00    -0.245 N 
HETATM   12  C   UNL     1       6.873  24.681  55.794  1.00  0.00     0.129 A 
BRANCH  11  13
HETATM   13  C   UNL     1       7.441  22.589  54.507  1.00  0.00     0.058 A 
HETATM   14  C   UNL     1       7.680  21.767  55.620  1.00  0.00     0.031 A 
HETATM   15  C   UNL     1       8.291  20.522  55.460  1.00  0.00     0.002 A 
HETATM   16  C   UNL     1       8.669  20.088  54.192  1.00  0.00     0.000 A 
HETATM   17  C   UNL     1       8.436  20.898  53.081  1.00  0.00     0.002 A 
HETATM   18  C   UNL     1       7.823  22.145  53.233  1.00  0.00     0.031 A 
ENDBRANCH  11  13
ENDBRANCH   7   8
ENDBRANCH   1   7
BRANCH   3  19
HETATM   19  C   UNL     1      10.026  29.380  57.324  1.00  0.00     0.144 C 
BRANCH  19  20
HETATM   20  C   UNL     1      10.210  30.885  57.553  1.00  0.00     0.142 C 
BRANCH  20  21
HETATM   21  N   UNL     1       9.783  31.325  58.871  1.00  0.00    -0.355 N 
HETATM   22  C   UNL     1       8.462  31.549  59.180  1.00  0.00     0.254 C 
HETATM   23  O   UNL     1       7.575  31.520  58.332  1.00  0.00    -0.268 OA
HETATM   24  H   UNL     1      10.441  31.269  59.644  1.00  0.00     0.162 HD
BRANCH  22  25
HETATM   25  C   UNL     1       8.129  31.842  60.610  1.00  0.00     0.065 A 
HETATM   26  C   UNL     1       8.490  31.030  61.697  1.00  0.00     0.081 A 
HETATM   27  C   UNL     1       8.126  31.384  63.001  1.00  0.00     0.037 A 
HETATM   28  C   UNL     1       7.399  32.553  63.232  1.00  0.00     0.003 A 
HETATM   29  C   UNL     1       7.032  33.367  62.164  1.00  0.00     0.001 A 
HETATM   30  C   UNL     1       7.393  33.013  60.863  1.00  0.00     0.020 A 
BRANCH  26  31
HETATM   31  O   UNL     1       9.200  29.872  61.508  1.00  0.00    -0.360 OA
HETATM   32  H   UNL     1       8.659  29.256  60.984  1.00  0.00     0.217 HD
ENDBRANCH  26  31
ENDBRANCH  22  25
ENDBRANCH  20  21
ENDBRANCH  19  20
ENDBRANCH   3  19
TORSDOF 8
ENDMDL
MODEL 3
REMARK VINA RESULT:      -9.4      2.297     10.527
REMARK  8 active torsions:
REMARK  status: ('A' for Active; 'I' for Inactive)
REMARK    1  A    between atoms: C_4  and  N_5 
REMARK    2  A    between atoms: C_8  and  C_9 
REMARK    3  A    between atoms: C_9  and  N_10 
REMARK       I    between atoms: N_10  and  C_11 
REMARK       I    between atoms: C_11  and  N_12 
REMARK    4  A    between atoms: N_12  and  C_13 
REMARK    5  A    between atoms: C_13  and  C_14 
REMARK    6  A    between atoms: C_14  and  N_15 
REMARK       I    between atoms: N_15  and  C_16 
REMARK    7  A    between atoms: C_16  and  C_17 
REMARK    8  A    between atoms: C_18  and  O_19 
ROOT
HETATM    1  N   UNL     1       7.900  28.434  54.847  1.00  0.00    -0.339 N 
HETATM    2  C   UNL     1       7.189  29.027  55.854  1.00  0.00     0.316 C 
HETATM    3  N   UNL     1       7.970  29.324  56.933  1.00  0.00    -0.342 N 
HETATM    4  O   UNL     1       5.999  29.304  55.773  1.00  0.00    -0.248 OA
HETATM    5  H   UNL     1       8.753  27.960  55.093  1.00  0.00     0.164 HD
HETATM    6  H   UNL     1       8.864  28.868  57.034  1.00  0.00     0.164 HD
ENDROOT
BRANCH   1   7
HETATM    7  C   UNL     1       7.225  28.041  53.635  1.00  0.00     0.166 C 
BRANCH   7   8
HETATM    8  C   UNL     1       6.891  26.599  53.710  1.00  0.00    -0.004 A 
HETATM    9  C   UNL     1       5.637  25.997  53.492  1.00  0.00     0.149 A 
HETATM   10  N   UNL     1       5.667  24.672  53.622  1.00  0.00    -0.180 NA
HETATM   11  N   UNL     1       6.963  24.379  53.915  1.00  0.00    -0.245 N 
HETATM   12  C   UNL     1       7.722  25.528  53.978  1.00  0.00     0.129 A 
BRANCH  11  13
HETATM   13  C   UNL     1       7.382  23.034  54.113  1.00  0.00     0.058 A 
HETATM   14  C   UNL     1       7.727  22.248  53.001  1.00  0.00     0.031 A 
HETATM   15  C   UNL     1       8.144  20.927  53.172  1.00  0.00     0.002 A 
HETATM   16  C   UNL     1       8.218  20.379  54.451  1.00  0.00     0.000 A 
HETATM   17  C   UNL     1       7.876  21.151  55.560  1.00  0.00     0.002 A 
HETATM   18  C   UNL     1       7.460  22.476  55.396  1.00  0.00     0.031 A 
ENDBRANCH  11  13
ENDBRANCH   7   8
ENDBRANCH   1   7
BRANCH   3  19
HETATM   19  C   UNL     1       7.417  29.948  58.123  1.00  0.00     0.144 C 
BRANCH  19  20
HETATM   20  C   UNL     1       8.477  30.195  59.204  1.00  0.00     0.142 C 
BRANCH  20  21
HETATM   21  N   UNL     1       7.920  30.656  60.464  1.00  0.00    -0.355 N 
HETATM   22  C   UNL     1       8.117  31.934  60.932  1.00  0.00     0.254 C 
HETATM   23  O   UNL     1       8.882  32.723  60.385  1.00  0.00    -0.268 OA
HETATM   24  H   UNL     1       7.198  30.099  60.915  1.00  0.00     0.162 HD
BRANCH  22  25
HETATM   25  C   UNL     1       7.362  32.342  62.160  1.00  0.00     0.065 A 
HETATM   26  C   UNL     1       5.964  32.324  62.280  1.00  0.00     0.081 A 
HETATM   27  C   UNL     1       5.347  32.733  63.467  1.00  0.00     0.037 A 
HETATM   28  C   UNL     1       6.121  33.162  64.546  1.00  0.00     0.003 A 
HETATM   29  C   UNL     1       7.509  33.187  64.442  1.00  0.00     0.001 A 
HETATM   30  C   UNL     1       8.124  32.781  63.256  1.00  0.00     0.020 A 
BRANCH  26  31
HETATM   31  O   UNL     1       5.170  31.913  61.239  1.00  0.00    -0.360 OA
HETATM   32  H   UNL     1       4.238  31.984  61.510  1.00  0.00     0.217 HD
ENDBRANCH  26  31
ENDBRANCH  22  25
ENDBRANCH  20  21
ENDBRANCH  19  20
ENDBRANCH   3  19
TORSDOF 8
ENDMDL
MODEL 4
REMARK VINA RESULT:      -9.3      2.271      3.114
REMARK  8 active torsions:
REMARK  status: ('A' for Active; 'I' for Inactive)
REMARK    1  A    between atoms: C_4  and  N_5 
REMARK    2  A    between atoms: C_8  and  C_9 
REMARK    3  A    between atoms: C_9  and  N_10 
REMARK       I    between atoms: N_10  and  C_11 
REMARK       I    between atoms: C_11  and  N_12 
REMARK    4  A    between atoms: N_12  and  C_13 
REMARK    5  A    between atoms: C_13  and  C_14 
REMARK    6  A    between atoms: C_14  and  N_15 
REMARK       I    between atoms: N_15  and  C_16 
REMARK    7  A    between atoms: C_16  and  C_17 
REMARK    8  A    between atoms: C_18  and  O_19 
ROOT
HETATM    1  N   UNL     1       8.614  29.606  58.354  1.00  0.00    -0.339 N 
HETATM    2  C   UNL     1       7.483  29.076  57.799  1.00  0.00     0.316 C 
HETATM    3  N   UNL     1       7.614  27.744  57.531  1.00  0.00    -0.342 N 
HETATM    4  O   UNL     1       6.455  29.714  57.611  1.00  0.00    -0.248 OA
HETATM    5  H   UNL     1       9.486  29.132  58.185  1.00  0.00     0.164 HD
HETATM    6  H   UNL     1       8.537  27.339  57.485  1.00  0.00     0.164 HD
ENDROOT
BRANCH   1   7
HETATM    7  C   UNL     1       8.653  31.008  58.689  1.00  0.00     0.166 C 
BRANCH   7   8
HETATM    8  C   UNL     1       8.413  31.167  60.144  1.00  0.00    -0.004 A 
HETATM    9  C   UNL     1       9.053  30.488  61.197  1.00  0.00     0.149 A 
HETATM   10  N   UNL     1       8.622  30.866  62.399  1.00  0.00    -0.180 NA
HETATM   11  N   UNL     1       7.690  31.825  62.148  1.00  0.00    -0.245 N 
HETATM   12  C   UNL     1       7.542  32.022  60.792  1.00  0.00     0.129 A 
BRANCH  11  13
HETATM   13  C   UNL     1       7.011  32.481  63.213  1.00  0.00     0.058 A 
HETATM   14  C   UNL     1       7.756  33.105  64.226  1.00  0.00     0.031 A 
HETATM   15  C   UNL     1       7.110  33.757  65.279  1.00  0.00     0.002 A 
HETATM   16  C   UNL     1       5.719  33.789  65.330  1.00  0.00     0.000 A 
HETATM   17  C   UNL     1       4.971  33.171  64.329  1.00  0.00     0.002 A 
HETATM   18  C   UNL     1       5.611  32.519  63.271  1.00  0.00     0.031 A 
ENDBRANCH  11  13
ENDBRANCH   7   8
ENDBRANCH   1   7
BRANCH   3  19
HETATM   19  C   UNL     1       6.536  26.981  56.925  1.00  0.00     0.144 C 
BRANCH  19  20
HETATM   20  C   UNL     1       6.487  25.532  57.428  1.00  0.00     0.142 C 
BRANCH  20  21
HETATM   21  N   UNL     1       6.751  24.551  56.388  1.00  0.00    -0.355 N 
HETATM   22  C   UNL     1       7.859  23.738  56.408  1.00  0.00     0.254 C 
HETATM   23  O   UNL     1       8.762  23.877  57.228  1.00  0.00    -0.268 OA
HETATM   24  H   UNL     1       6.004  24.309  55.741  1.00  0.00     0.162 HD
BRANCH  22  25
HETATM   25  C   UNL     1       7.940  22.659  55.372  1.00  0.00     0.065 A 
HETATM   26  C   UNL     1       8.184  21.304  55.646  1.00  0.00     0.081 A 
HETATM   27  C   UNL     1       8.249  20.369  54.609  1.00  0.00     0.037 A 
HETATM   28  C   UNL     1       8.072  20.777  53.286  1.00  0.00     0.003 A 
HETATM   29  C   UNL     1       7.831  22.118  52.997  1.00  0.00     0.001 A 
HETATM   30  C   UNL     1       7.768  23.052  54.033  1.00  0.00     0.020 A 
BRANCH  26  31
HETATM   31  O   UNL     1       8.368  20.867  56.934  1.00  0.00    -0.360 OA
HETATM   32  H   UNL     1       8.857  21.549  57.428  1.00  0.00     0.217 HD
ENDBRANCH  26  31
ENDBRANCH  22  25
ENDBRANCH  20  21
ENDBRANCH  19  20
ENDBRANCH   3  19
TORSDOF 8
ENDMDL
MODEL 5
REMARK VINA RESULT:      -9.2      2.729      9.854
REMARK  8 active torsions:
REMARK  status: ('A' for Active; 'I' for Inactive)
REMARK    1  A    between atoms: C_4  and  N_5 
REMARK    2  A    between atoms: C_8  and  C_9 
REMARK    3  A    between atoms: C_9  and  N_10 
REMARK       I    between atoms: N_10  and  C_11 
REMARK       I    between atoms: C_11  and  N_12 
REMARK    4  A    between atoms: N_12  and  C_13 
REMARK    5  A    between atoms: C_13  and  C_14 
REMARK    6  A    between atoms: C_14  and  N_15 
REMARK       I    between atoms: N_15  and  C_16 
REMARK    7  A    between atoms: C_16  and  C_17 
REMARK    8  A    between atoms: C_18  and  O_19 
ROOT
HETATM    1  N   UNL     1       6.292  28.014  57.519  1.00  0.00    -0.339 N 
HETATM    2  C   UNL     1       5.680  29.157  57.086  1.00  0.00     0.316 C 
HETATM    3  N   UNL     1       4.555  29.444  57.803  1.00  0.00    -0.342 N 
HETATM    4  O   UNL     1       6.121  29.865  56.190  1.00  0.00    -0.248 OA
HETATM    5  H   UNL     1       5.730  27.339  58.011  1.00  0.00     0.164 HD
HETATM    6  H   UNL     1       4.122  28.718  58.353  1.00  0.00     0.164 HD
ENDROOT
BRANCH   1   7
HETATM    7  C   UNL     1       7.491  27.554  56.862  1.00  0.00     0.166 C 
BRANCH   7   8
HETATM    8  C   UNL     1       7.173  26.350  56.057  1.00  0.00    -0.004 A 
HETATM    9  C   UNL     1       6.134  26.195  55.120  1.00  0.00     0.149 A 
HETATM   10  N   UNL     1       6.121  24.991  54.552  1.00  0.00    -0.180 NA
HETATM   11  N   UNL     1       7.177  24.334  55.103  1.00  0.00    -0.245 N 
HETATM   12  C   UNL     1       7.826  25.133  56.021  1.00  0.00     0.129 A 
BRANCH  11  13
HETATM   13  C   UNL     1       7.490  23.000  54.720  1.00  0.00     0.058 A 
HETATM   14  C   UNL     1       7.678  22.699  53.362  1.00  0.00     0.031 A 
HETATM   15  C   UNL     1       7.988  21.397  52.963  1.00  0.00     0.002 A 
HETATM   16  C   UNL     1       8.111  20.387  53.915  1.00  0.00     0.000 A 
HETATM   17  C   UNL     1       7.924  20.677  55.265  1.00  0.00     0.002 A 
HETATM   18  C   UNL     1       7.615  21.979  55.672  1.00  0.00     0.031 A 
ENDBRANCH  11  13
ENDBRANCH   7   8
ENDBRANCH   1   7
BRANCH   3  19
HETATM   19  C   UNL     1       3.740  30.610  57.504  1.00  0.00     0.144 C 
BRANCH  19  20
HETATM   20  C   UNL     1       3.722  31.625  58.654  1.00  0.00     0.142 C 
BRANCH  20  21
HETATM   21  N   UNL     1       4.869  31.513  59.540  1.00  0.00    -0.355 N 
HETATM   22  C   UNL     1       6.044  32.190  59.312  1.00  0.00     0.254 C 
HETATM   23  O   UNL     1       6.247  32.824  58.281  1.00  0.00    -0.268 OA
HETATM   24  H   UNL     1       4.740  31.095  60.458  1.00  0.00     0.162 HD
BRANCH  22  25
HETATM   25  C   UNL     1       7.095  32.123  60.377  1.00  0.00     0.065 A 
HETATM   26  C   UNL     1       8.478  32.162  60.139  1.00  0.00     0.081 A 
HETATM   27  C   UNL     1       9.385  32.085  61.201  1.00  0.00     0.037 A 
HETATM   28  C   UNL     1       8.919  31.968  62.512  1.00  0.00     0.003 A 
HETATM   29  C   UNL     1       7.551  31.926  62.764  1.00  0.00     0.001 A 
HETATM   30  C   UNL     1       6.646  32.001  61.704  1.00  0.00     0.020 A 
BRANCH  26  31
HETATM   31  O   UNL     1       8.971  32.271  58.864  1.00  0.00    -0.360 OA
HETATM   32  H   UNL     1       9.060  31.378  58.486  1.00  0.00     0.217 HD
ENDBRANCH  26  31
ENDBRANCH  22  25
ENDBRANCH  20  21
ENDBRANCH  19  20
ENDBRANCH   3  19
TORSDOF 8
ENDMDL
MODEL 6
REMARK VINA RESULT:      -8.8      1.779      2.719
REMARK  8 active torsions:
REMARK  status: ('A' for Active; 'I' for Inactive)
REMARK    1  A    between atoms: C_4  and  N_5 
REMARK    2  A    between atoms: C_8  and  C_9 
REMARK    3  A    between atoms: C_9  and  N_10 
REMARK       I    between atoms: N_10  and  C_11 
REMARK       I    between atoms: C_11  and  N_12 
REMARK    4  A    between atoms: N_12  and  C_13 
REMARK    5  A    between atoms: C_13  and  C_14 
REMARK    6  A    between atoms: C_14  and  N_15 
REMARK       I    between atoms: N_15  and  C_16 
REMARK    7  A    between atoms: C_16  and  C_17 
REMARK    8  A    between atoms: C_18  and  O_19 
ROOT
HETATM    1  N   UNL     1       7.911  30.403  57.820  1.00  0.00    -0.339 N 
HETATM    2  C   UNL     1       7.328  29.167  57.846  1.00  0.00     0.316 C 
HETATM    3  N   UNL     1       6.162  29.131  57.136  1.00  0.00    -0.342 N 
HETATM    4  O   UNL     1       7.822  28.195  58.401  1.00  0.00    -0.248 OA
HETATM    5  H   UNL     1       7.320  31.197  57.636  1.00  0.00     0.164 HD
HETATM    6  H   UNL     1       5.697  29.996  56.910  1.00  0.00     0.164 HD
ENDROOT
BRANCH   1   7
HETATM    7  C   UNL     1       9.146  30.623  58.531  1.00  0.00     0.166 C 
BRANCH   7   8
HETATM    8  C   UNL     1       8.839  31.035  59.922  1.00  0.00    -0.004 A 
HETATM    9  C   UNL     1       9.318  30.457  61.113  1.00  0.00     0.149 A 
HETATM   10  N   UNL     1       8.866  31.068  62.206  1.00  0.00    -0.180 NA
HETATM   11  N   UNL     1       8.085  32.080  61.742  1.00  0.00    -0.245 N 
HETATM   12  C   UNL     1       8.048  32.078  60.364  1.00  0.00     0.129 A 
BRANCH  11  13
HETATM   13  C   UNL     1       7.431  32.971  62.640  1.00  0.00     0.058 A 
HETATM   14  C   UNL     1       7.776  32.954  64.001  1.00  0.00     0.031 A 
HETATM   15  C   UNL     1       7.150  33.821  64.899  1.00  0.00     0.002 A 
HETATM   16  C   UNL     1       6.176  34.708  64.447  1.00  0.00     0.000 A 
HETATM   17  C   UNL     1       5.827  34.731  63.098  1.00  0.00     0.002 A 
HETATM   18  C   UNL     1       6.451  33.867  62.193  1.00  0.00     0.031 A 
ENDBRANCH  11  13
ENDBRANCH   7   8
ENDBRANCH   1   7
BRANCH   3  19
HETATM   19  C   UNL     1       5.369  27.917  57.041  1.00  0.00     0.144 C 
BRANCH  19  20
HETATM   20  C   UNL     1       4.929  27.615  55.603  1.00  0.00     0.142 C 
BRANCH  20  21
HETATM   21  N   UNL     1       5.458  26.363  55.088  1.00  0.00    -0.355 N 
HETATM   22  C   UNL     1       6.794  26.186  54.815  1.00  0.00     0.254 C 
HETATM   23  O   UNL     1       7.602  27.109  54.862  1.00  0.00    -0.268 OA
HETATM   24  H   UNL     1       4.874  25.531  55.124  1.00  0.00     0.162 HD
BRANCH  22  25
HETATM   25  C   UNL     1       7.244  24.807  54.444  1.00  0.00     0.065 A 
HETATM   26  C   UNL     1       7.752  24.443  53.186  1.00  0.00     0.081 A 
HETATM   27  C   UNL     1       8.140  23.124  52.930  1.00  0.00     0.037 A 
HETATM   28  C   UNL     1       8.025  22.154  53.928  1.00  0.00     0.003 A 
HETATM   29  C   UNL     1       7.522  22.499  55.180  1.00  0.00     0.001 A 
HETATM   30  C   UNL     1       7.133  23.815  55.434  1.00  0.00     0.020 A 
BRANCH  26  31
HETATM   31  O   UNL     1       7.874  25.368  52.180  1.00  0.00    -0.360 OA
HETATM   32  H   UNL     1       8.764  25.760  52.224  1.00  0.00     0.217 HD
ENDBRANCH  26  31
ENDBRANCH  22  25
ENDBRANCH  20  21
ENDBRANCH  19  20
ENDBRANCH   3  19
TORSDOF 8
ENDMDL
MODEL 7
REMARK VINA RESULT:      -8.5      3.055     10.363
REMARK  8 active torsions:
REMARK  status: ('A' for Active; 'I' for Inactive)
REMARK    1  A    between atoms: C_4  and  N_5 
REMARK    2  A    between atoms: C_8  and  C_9 
REMARK    3  A    between atoms: C_9  and  N_10 
REMARK       I    between atoms: N_10  and  C_11 
REMARK       I    between atoms: C_11  and  N_12 
REMARK    4  A    between atoms: N_12  and  C_13 
REMARK    5  A    between atoms: C_13  and  C_14 
REMARK    6  A    between atoms: C_14  and  N_15 
REMARK       I    between atoms: N_15  and  C_16 
REMARK    7  A    between atoms: C_16  and  C_17 
REMARK    8  A    between atoms: C_18  and  O_19 
ROOT
HETATM    1  N   UNL     1       4.219  28.014  55.192  1.00  0.00    -0.339 N 
HETATM    2  C   UNL     1       4.267  29.290  55.680  1.00  0.00     0.316 C 
HETATM    3  N   UNL     1       4.159  29.327  57.040  1.00  0.00    -0.342 N 
HETATM    4  O   UNL     1       4.438  30.279  54.979  1.00  0.00    -0.248 OA
HETATM    5  H   UNL     1       3.769  27.312  55.757  1.00  0.00     0.164 HD
HETATM    6  H   UNL     1       3.790  28.526  57.527  1.00  0.00     0.164 HD
ENDROOT
BRANCH   1   7
HETATM    7  C   UNL     1       4.306  27.791  53.769  1.00  0.00     0.166 C 
BRANCH   7   8
HETATM    8  C   UNL     1       4.998  26.504  53.521  1.00  0.00    -0.004 A 
HETATM    9  C   UNL     1       4.959  25.722  52.351  1.00  0.00     0.149 A 
HETATM   10  N   UNL     1       5.703  24.621  52.436  1.00  0.00    -0.180 NA
HETATM   11  N   UNL     1       6.261  24.673  53.675  1.00  0.00    -0.245 N 
HETATM   12  C   UNL     1       5.846  25.800  54.353  1.00  0.00     0.129 A 
BRANCH  11  13
HETATM   13  C   UNL     1       7.145  23.650  54.123  1.00  0.00     0.058 A 
HETATM   14  C   UNL     1       7.897  22.929  53.183  1.00  0.00     0.031 A 
HETATM   15  C   UNL     1       8.772  21.923  53.600  1.00  0.00     0.002 A 
HETATM   16  C   UNL     1       8.901  21.629  54.956  1.00  0.00     0.000 A 
HETATM   17  C   UNL     1       8.156  22.340  55.896  1.00  0.00     0.002 A 
HETATM   18  C   UNL     1       7.280  23.350  55.486  1.00  0.00     0.031 A 
ENDBRANCH  11  13
ENDBRANCH   7   8
ENDBRANCH   1   7
BRANCH   3  19
HETATM   19  C   UNL     1       4.174  30.585  57.769  1.00  0.00     0.144 C 
BRANCH  19  20
HETATM   20  C   UNL     1       5.597  31.087  58.045  1.00  0.00     0.142 C 
BRANCH  20  21
HETATM   21  N   UNL     1       5.815  31.467  59.430  1.00  0.00    -0.355 N 
HETATM   22  C   UNL     1       6.970  32.085  59.850  1.00  0.00     0.254 C 
HETATM   23  O   UNL     1       7.940  32.236  59.113  1.00  0.00    -0.268 OA
HETATM   24  H   UNL     1       5.024  31.471  60.070  1.00  0.00     0.162 HD
BRANCH  22  25
HETATM   25  C   UNL     1       7.014  32.574  61.265  1.00  0.00     0.065 A 
HETATM   26  C   UNL     1       6.143  33.533  61.807  1.00  0.00     0.081 A 
HETATM   27  C   UNL     1       6.267  33.934  63.142  1.00  0.00     0.037 A 
HETATM   28  C   UNL     1       7.262  33.380  63.949  1.00  0.00     0.003 A 
HETATM   29  C   UNL     1       8.134  32.429  63.426  1.00  0.00     0.001 A 
HETATM   30  C   UNL     1       8.012  32.031  62.093  1.00  0.00     0.020 A 
BRANCH  26  31
HETATM   31  O   UNL     1       5.156  34.103  61.042  1.00  0.00    -0.360 OA
HETATM   32  H   UNL     1       5.570  34.696  60.391  1.00  0.00     0.217 HD
ENDBRANCH  26  31
ENDBRANCH  22  25
ENDBRANCH  20  21
ENDBRANCH  19  20
ENDBRANCH   3  19
TORSDOF 8
ENDMDL
MODEL 8
REMARK VINA RESULT:      -8.5      1.810      2.300
REMARK  8 active torsions:
REMARK  status: ('A' for Active; 'I' for Inactive)
REMARK    1  A    between atoms: C_4  and  N_5 
REMARK    2  A    between atoms: C_8  and  C_9 
REMARK    3  A    between atoms: C_9  and  N_10 
REMARK       I    between atoms: N_10  and  C_11 
REMARK       I    between atoms: C_11  and  N_12 
REMARK    4  A    between atoms: N_12  and  C_13 
REMARK    5  A    between atoms: C_13  and  C_14 
REMARK    6  A    between atoms: C_14  and  N_15 
REMARK       I    between atoms: N_15  and  C_16 
REMARK    7  A    between atoms: C_16  and  C_17 
REMARK    8  A    between atoms: C_18  and  O_19 
ROOT
HETATM    1  N   UNL     1       6.873  29.467  57.374  1.00  0.00    -0.339 N 
HETATM    2  C   UNL     1       7.114  28.916  56.146  1.00  0.00     0.316 C 
HETATM    3  N   UNL     1       6.006  28.315  55.622  1.00  0.00    -0.342 N 
HETATM    4  O   UNL     1       8.189  28.998  55.565  1.00  0.00    -0.248 OA
HETATM    5  H   UNL     1       6.105  29.097  57.911  1.00  0.00     0.164 HD
HETATM    6  H   UNL     1       5.240  28.077  56.233  1.00  0.00     0.164 HD
ENDROOT
BRANCH   1   7
HETATM    7  C   UNL     1       7.941  30.132  58.079  1.00  0.00     0.166 C 
BRANCH   7   8
HETATM    8  C   UNL     1       7.360  31.119  59.021  1.00  0.00    -0.004 A 
HETATM    9  C   UNL     1       6.260  31.969  58.802  1.00  0.00     0.149 A 
HETATM   10  N   UNL     1       5.975  32.733  59.854  1.00  0.00    -0.180 NA
HETATM   11  N   UNL     1       6.887  32.379  60.799  1.00  0.00    -0.245 N 
HETATM   12  C   UNL     1       7.739  31.407  60.318  1.00  0.00     0.129 A 
BRANCH  11  13
HETATM   13  C   UNL     1       6.882  32.988  62.086  1.00  0.00     0.058 A 
HETATM   14  C   UNL     1       7.641  32.419  63.121  1.00  0.00     0.031 A 
HETATM   15  C   UNL     1       7.653  33.002  64.390  1.00  0.00     0.002 A 
HETATM   16  C   UNL     1       6.907  34.153  64.636  1.00  0.00     0.000 A 
HETATM   17  C   UNL     1       6.149  34.722  63.615  1.00  0.00     0.002 A 
HETATM   18  C   UNL     1       6.134  34.146  62.341  1.00  0.00     0.031 A 
ENDBRANCH  11  13
ENDBRANCH   7   8
ENDBRANCH   1   7
BRANCH   3  19
HETATM   19  C   UNL     1       6.041  27.654  54.329  1.00  0.00     0.144 C 
BRANCH  19  20
HETATM   20  C   UNL     1       5.253  26.338  54.320  1.00  0.00     0.142 C 
BRANCH  20  21
HETATM   21  N   UNL     1       6.098  25.159  54.231  1.00  0.00    -0.355 N 
HETATM   22  C   UNL     1       6.820  24.689  55.302  1.00  0.00     0.254 C 
HETATM   23  O   UNL     1       6.903  25.306  56.360  1.00  0.00    -0.268 OA
HETATM   24  H   UNL     1       5.998  24.544  53.428  1.00  0.00     0.162 HD
BRANCH  22  25
HETATM   25  C   UNL     1       7.525  23.378  55.135  1.00  0.00     0.065 A 
HETATM   26  C   UNL     1       8.152  22.670  56.172  1.00  0.00     0.081 A 
HETATM   27  C   UNL     1       8.794  21.454  55.916  1.00  0.00     0.037 A 
HETATM   28  C   UNL     1       8.816  20.933  54.622  1.00  0.00     0.003 A 
HETATM   29  C   UNL     1       8.201  21.625  53.582  1.00  0.00     0.001 A 
HETATM   30  C   UNL     1       7.562  22.839  53.837  1.00  0.00     0.020 A 
BRANCH  26  31
HETATM   31  O   UNL     1       8.155  23.153  57.456  1.00  0.00    -0.360 OA
HETATM   32  H   UNL     1       7.233  23.279  57.744  1.00  0.00     0.217 HD
ENDBRANCH  26  31
ENDBRANCH  22  25
ENDBRANCH  20  21
ENDBRANCH  19  20
ENDBRANCH   3  19
TORSDOF 8
ENDMDL
MODEL 9
REMARK VINA RESULT:      -8.5      6.121      9.999
REMARK  8 active torsions:
REMARK  status: ('A' for Active; 'I' for Inactive)
REMARK    1  A    between atoms: C_4  and  N_5 
REMARK    2  A    between atoms: C_8  and  C_9 
REMARK    3  A    between atoms: C_9  and  N_10 
REMARK       I    between atoms: N_10  and  C_11 
REMARK       I    between atoms: C_11  and  N_12 
REMARK    4  A    between atoms: N_12  and  C_13 
REMARK    5  A    between atoms: C_13  and  C_14 
REMARK    6  A    between atoms: C_14  and  N_15 
REMARK       I    between atoms: N_15  and  C_16 
REMARK    7  A    between atoms: C_16  and  C_17 
REMARK    8  A    between atoms: C_18  and  O_19 
ROOT
HETATM    1  N   UNL     1       4.474  26.169  51.909  1.00  0.00    -0.339 N 
HETATM    2  C   UNL     1       4.845  26.618  50.672  1.00  0.00     0.316 C 
HETATM    3  N   UNL     1       4.161  25.994  49.669  1.00  0.00    -0.342 N 
HETATM    4  O   UNL     1       5.662  27.512  50.492  1.00  0.00    -0.248 OA
HETATM    5  H   UNL     1       4.063  25.252  51.971  1.00  0.00     0.164 HD
HETATM    6  H   UNL     1       3.691  25.124  49.862  1.00  0.00     0.164 HD
ENDROOT
BRANCH   1   7
HETATM    7  C   UNL     1       5.109  26.714  53.085  1.00  0.00     0.166 C 
BRANCH   7   8
HETATM    8  C   UNL     1       5.802  25.623  53.812  1.00  0.00    -0.004 A 
HETATM    9  C   UNL     1       6.056  25.541  55.194  1.00  0.00     0.149 A 
HETATM   10  N   UNL     1       6.690  24.422  55.540  1.00  0.00    -0.180 NA
HETATM   11  N   UNL     1       6.849  23.736  54.376  1.00  0.00    -0.245 N 
HETATM   12  C   UNL     1       6.324  24.444  53.315  1.00  0.00     0.129 A 
BRANCH  11  13
HETATM   13  C   UNL     1       7.486  22.464  54.358  1.00  0.00     0.058 A 
HETATM   14  C   UNL     1       7.911  21.924  53.133  1.00  0.00     0.031 A 
HETATM   15  C   UNL     1       8.541  20.678  53.092  1.00  0.00     0.002 A 
HETATM   16  C   UNL     1       8.749  19.962  54.269  1.00  0.00     0.000 A 
HETATM   17  C   UNL     1       8.328  20.490  55.488  1.00  0.00     0.002 A 
HETATM   18  C   UNL     1       7.699  21.738  55.538  1.00  0.00     0.031 A 
ENDBRANCH  11  13
ENDBRANCH   7   8
ENDBRANCH   1   7
BRANCH   3  19
HETATM   19  C   UNL     1       4.406  26.310  48.272  1.00  0.00     0.144 C 
BRANCH  19  20
HETATM   20  C   UNL     1       3.510  27.444  47.760  1.00  0.00     0.142 C 
BRANCH  20  21
HETATM   21  N   UNL     1       4.193  28.724  47.671  1.00  0.00    -0.355 N 
HETATM   22  C   UNL     1       4.033  29.711  48.614  1.00  0.00     0.254 C 
HETATM   23  O   UNL     1       3.206  29.628  49.518  1.00  0.00    -0.268 OA
HETATM   24  H   UNL     1       4.965  28.824  47.016  1.00  0.00     0.162 HD
BRANCH  22  25
HETATM   25  C   UNL     1       4.910  30.920  48.502  1.00  0.00     0.065 A 
HETATM   26  C   UNL     1       5.833  31.331  49.476  1.00  0.00     0.081 A 
HETATM   27  C   UNL     1       6.604  32.482  49.285  1.00  0.00     0.037 A 
HETATM   28  C   UNL     1       6.461  33.234  48.118  1.00  0.00     0.003 A 
HETATM   29  C   UNL     1       5.548  32.841  47.143  1.00  0.00     0.001 A 
HETATM   30  C   UNL     1       4.777  31.693  47.335  1.00  0.00     0.020 A 
BRANCH  26  31
HETATM   31  O   UNL     1       5.997  30.620  50.638  1.00  0.00    -0.360 OA
HETATM   32  H   UNL     1       6.854  30.859  51.032  1.00  0.00     0.217 HD
ENDBRANCH  26  31
ENDBRANCH  22  25
ENDBRANCH  20  21
ENDBRANCH  19  20
ENDBRANCH   3  19
TORSDOF 8
ENDMDL
MODEL 10
REMARK VINA RESULT:      -8.5      2.807      9.818
REMARK  8 active torsions:
REMARK  status: ('A' for Active; 'I' for Inactive)
REMARK    1  A    between atoms: C_4  and  N_5 
REMARK    2  A    between atoms: C_8  and  C_9 
REMARK    3  A    between atoms: C_9  and  N_10 
REMARK       I    between atoms: N_10  and  C_11 
REMARK       I    between atoms: C_11  and  N_12 
REMARK    4  A    between atoms: N_12  and  C_13 
REMARK    5  A    between atoms: C_13  and  C_14 
REMARK    6  A    between atoms: C_14  and  N_15 
REMARK       I    between atoms: N_15  and  C_16 
REMARK    7  A    between atoms: C_16  and  C_17 
REMARK    8  A    between atoms: C_18  and  O_19 
ROOT
HETATM    1  N   UNL     1       6.119  28.270  54.108  1.00  0.00    -0.339 N 
HETATM    2  C   UNL     1       5.186  29.122  54.631  1.00  0.00     0.316 C 
HETATM    3  N   UNL     1       5.756  30.150  55.324  1.00  0.00    -0.342 N 
HETATM    4  O   UNL     1       3.981  28.999  54.455  1.00  0.00    -0.248 OA
HETATM    5  H   UNL     1       7.025  28.242  54.544  1.00  0.00     0.164 HD
HETATM    6  H   UNL     1       6.713  30.067  55.630  1.00  0.00     0.164 HD
ENDROOT
BRANCH   1   7
HETATM    7  C   UNL     1       5.688  27.117  53.355  1.00  0.00     0.166 C 
BRANCH   7   8
HETATM    8  C   UNL     1       6.166  25.888  54.034  1.00  0.00    -0.004 A 
HETATM    9  C   UNL     1       6.147  25.608  55.413  1.00  0.00     0.149 A 
HETATM   10  N   UNL     1       6.637  24.405  55.706  1.00  0.00    -0.180 NA
HETATM   11  N   UNL     1       6.975  23.864  54.505  1.00  0.00    -0.245 N 
HETATM   12  C   UNL     1       6.704  24.744  53.478  1.00  0.00     0.129 A 
BRANCH  11  13
HETATM   13  C   UNL     1       7.530  22.556  54.422  1.00  0.00     0.058 A 
HETATM   14  C   UNL     1       7.701  21.804  55.595  1.00  0.00     0.031 A 
HETATM   15  C   UNL     1       8.241  20.517  55.536  1.00  0.00     0.002 A 
HETATM   16  C   UNL     1       8.615  19.973  54.310  1.00  0.00     0.000 A 
HETATM   17  C   UNL     1       8.449  20.714  53.140  1.00  0.00     0.002 A 
HETATM   18  C   UNL     1       7.908  22.002  53.191  1.00  0.00     0.031 A 
ENDBRANCH  11  13
ENDBRANCH   7   8
ENDBRANCH   1   7
BRANCH   3  19
HETATM   19  C   UNL     1       4.948  31.168  55.975  1.00  0.00     0.144 C 
BRANCH  19  20
HETATM   20  C   UNL     1       4.549  30.775  57.403  1.00  0.00     0.142 C 
BRANCH  20  21
HETATM   21  N   UNL     1       5.666  30.763  58.332  1.00  0.00    -0.355 N 
HETATM   22  C   UNL     1       6.194  31.916  58.864  1.00  0.00     0.254 C 
HETATM   23  O   UNL     1       5.845  33.032  58.489  1.00  0.00    -0.268 OA
HETATM   24  H   UNL     1       5.936  29.883  58.765  1.00  0.00     0.162 HD
BRANCH  22  25
HETATM   25  C   UNL     1       7.235  31.769  59.931  1.00  0.00     0.065 A 
HETATM   26  C   UNL     1       7.260  32.501  61.128  1.00  0.00     0.081 A 
HETATM   27  C   UNL     1       8.281  32.299  62.064  1.00  0.00     0.037 A 
HETATM   28  C   UNL     1       9.286  31.364  61.812  1.00  0.00     0.003 A 
HETATM   29  C   UNL     1       9.276  30.632  60.627  1.00  0.00     0.001 A 
HETATM   30  C   UNL     1       8.259  30.835  59.693  1.00  0.00     0.020 A 
BRANCH  26  31
HETATM   31  O   UNL     1       6.292  33.431  61.408  1.00  0.00    -0.360 OA
HETATM   32  H   UNL     1       6.517  33.874  62.245  1.00  0.00     0.217 HD
ENDBRANCH  26  31
ENDBRANCH  22  25
ENDBRANCH  20  21
ENDBRANCH  19  20
ENDBRANCH   3  19
TORSDOF 8
ENDMDL
