MODEL 1
REMARK VINA RESULT:     -12.6      0.000      0.000
REMARK  11 active torsions:
REMARK  status: ('A' for Active; 'I' for Inactive)
REMARK    1  A    between atoms: C_6  and  O_9 
REMARK    2  A    between atoms: O_9  and  C_10 
REMARK    3  A    between atoms: C_10  and  C_12 
REMARK    4  A    between atoms: C_12  and  C_13 
REMARK    5  A    between atoms: C_16  and  N_17 
REMARK       I    between atoms: N_17  and  C_18 
REMARK    6  A    between atoms: C_18  and  C_20 
REMARK    7  A    between atoms: C_24  and  C_26 
REMARK    8  A    between atoms: C_28  and  C_34 
REMARK    9  A    between atoms: C_31  and  C_32 
REMARK   10  A    between atoms: C_32  and  N_33 
REMARK       I    between atoms: C_34  and  N_36 
REMARK   11  A    between atoms: N_36  and  C_37 
ROOT
HETATM    1  C   UNL     1       9.077  30.817  58.925  1.00  0.00     0.033 A 
HETATM    2  C   UNL     1      10.218  31.024  58.146  1.00  0.00     0.017 A 
HETATM    3  C   UNL     1      10.513  30.136  57.116  1.00  0.00     0.002 A 
HETATM    4  C   UNL     1       9.656  29.063  56.850  1.00  0.00     0.012 A 
HETATM    5  C   UNL     1       8.513  28.818  57.636  1.00  0.00    -0.024 A 
HETATM    6  C   UNL     1       8.269  29.689  58.712  1.00  0.00     0.029 A 
ENDROOT
BRANCH   1   7
HETATM    7  C   UNL     1       8.626  31.831  59.919  1.00  0.00     0.256 C 
HETATM    8  N   UNL     1       7.767  31.318  60.876  1.00  0.00    -0.323 N 
HETATM    9  H   UNL     1       7.544  30.334  60.805  1.00  0.00     0.169 HD
HETATM   10  O   UNL     1       9.091  32.960  59.863  1.00  0.00    -0.267 OA
BRANCH   8  11
HETATM   11  C   UNL     1       7.273  31.963  62.029  1.00  0.00     0.035 A 
HETATM   12  C   UNL     1       8.073  32.420  63.073  1.00  0.00     0.030 A 
HETATM   13  C   UNL     1       7.495  33.015  64.203  1.00  0.00     0.010 A 
HETATM   14  C   UNL     1       6.105  33.158  64.305  1.00  0.00    -0.049 A 
HETATM   15  C   UNL     1       5.305  32.718  63.246  1.00  0.00     0.010 A 
HETATM   16  C   UNL     1       5.885  32.126  62.121  1.00  0.00     0.030 A 
BRANCH  14  17
HETATM   17  C   UNL     1       5.487  33.797  65.524  1.00  0.00     0.149 C 
BRANCH  17  18
HETATM   18  C   UNL     1       4.250  34.609  65.213  1.00  0.00     0.263 C 
HETATM   19  O   UNL     1       3.096  34.205  65.223  1.00  0.00    -0.265 OA
BRANCH  18  20
HETATM   20  O   UNL     1       4.591  35.914  64.968  1.00  0.00    -0.316 OA
BRANCH  20  21
HETATM   21  C   UNL     1       4.726  36.259  63.578  1.00  0.00     0.135 C 
HETATM   22  C   UNL     1       3.449  36.925  63.067  1.00  0.00     0.060 C 
HETATM   23  C   UNL     1       3.617  37.382  61.629  1.00  0.00     0.237 C 
HETATM   24  N   UNL     1       4.813  38.296  61.491  1.00  0.00    -0.075 N 
HETATM   25  C   UNL     1       4.568  39.695  61.993  1.00  0.00     0.269 C 
HETATM   26  C   UNL     1       6.085  37.676  62.014  1.00  0.00     0.237 C 
HETATM   27  H   UNL     1       4.957  38.407  60.477  1.00  0.00     0.279 HD
HETATM   28  C   UNL     1       5.913  37.211  63.450  1.00  0.00     0.060 C 
ENDBRANCH  20  21
ENDBRANCH  18  20
ENDBRANCH  17  18
ENDBRANCH  14  17
ENDBRANCH   8  11
ENDBRANCH   1   7
BRANCH   5  29
HETATM   29  C   UNL     1       7.585  27.707  57.296  1.00  0.00    -0.017 A 
HETATM   30  C   UNL     1       8.106  26.395  57.180  1.00  0.00     0.030 A 
HETATM   31  C   UNL     1       7.298  25.312  56.807  1.00  0.00     0.033 A 
HETATM   32  C   UNL     1       5.937  25.514  56.592  1.00  0.00     0.017 A 
HETATM   33  C   UNL     1       5.395  26.789  56.717  1.00  0.00     0.011 A 
HETATM   34  C   UNL     1       6.204  27.906  57.015  1.00  0.00    -0.020 A 
BRANCH  31  35
HETATM   35  C   UNL     1       7.852  23.960  56.523  1.00  0.00     0.256 C 
HETATM   36  O   UNL     1       8.426  23.372  57.432  1.00  0.00    -0.267 OA
HETATM   37  N   UNL     1       7.681  23.492  55.235  1.00  0.00    -0.320 N 
HETATM   38  H   UNL     1       7.340  24.139  54.531  1.00  0.00     0.169 HD
BRANCH  37  39
HETATM   39  C   UNL     1       8.046  22.212  54.751  1.00  0.00     0.076 A 
HETATM   40  C   UNL     1       8.411  21.141  55.565  1.00  0.00     0.052 A 
HETATM   41  C   UNL     1       8.736  19.930  54.967  1.00  0.00     0.118 A 
HETATM   42  N   UNL     1       8.722  19.718  53.632  1.00  0.00    -0.270 NA
HETATM   43  C   UNL     1       8.361  20.768  52.862  1.00  0.00     0.160 A 
HETATM   44  C   UNL     1       8.019  22.008  53.371  1.00  0.00     0.160 A 
HETATM   45  F   UNL     1       7.664  23.006  52.547  1.00  0.00    -0.202 F 
ENDBRANCH  37  39
ENDBRANCH  31  35
BRANCH  34  46
HETATM   46  C   UNL     1       5.553  29.280  57.034  1.00  0.00     0.306 C 
BRANCH  46  47
HETATM   47  N   UNL     1       4.568  29.445  58.104  1.00  0.00     0.082 N 
HETATM   48  H   UNL     1       5.033  29.855  58.913  1.00  0.00     0.313 HD
HETATM   49  H   UNL     1       4.238  28.527  58.396  1.00  0.00     0.313 HD
ENDBRANCH  46  47
ENDBRANCH  34  46
ENDBRANCH   5  29
TORSDOF 11
ENDMDL
MODEL 2
REMARK VINA RESULT:     -12.1      1.215      1.575
REMARK  11 active torsions:
REMARK  status: ('A' for Active; 'I' for Inactive)
REMARK    1  A    between atoms: C_6  and  O_9 
REMARK    2  A    between atoms: O_9  and  C_10 
REMARK    3  A    between atoms: C_10  and  C_12 
REMARK    4  A    between atoms: C_12  and  C_13 
REMARK    5  A    between atoms: C_16  and  N_17 
REMARK       I    between atoms: N_17  and  C_18 
REMARK    6  A    between atoms: C_18  and  C_20 
REMARK    7  A    between atoms: C_24  and  C_26 
REMARK    8  A    between atoms: C_28  and  C_34 
REMARK    9  A    between atoms: C_31  and  C_32 
REMARK   10  A    between atoms: C_32  and  N_33 
REMARK       I    between atoms: C_34  and  N_36 
REMARK   11  A    between atoms: N_36  and  C_37 
ROOT
HETATM    1  C   UNL     1       9.019  30.612  58.730  1.00  0.00     0.033 A 
HETATM    2  C   UNL     1      10.305  30.687  58.186  1.00  0.00     0.017 A 
HETATM    3  C   UNL     1      10.651  29.847  57.133  1.00  0.00     0.002 A 
HETATM    4  C   UNL     1       9.709  28.956  56.608  1.00  0.00     0.012 A 
HETATM    5  C   UNL     1       8.414  28.845  57.153  1.00  0.00    -0.024 A 
HETATM    6  C   UNL     1       8.106  29.655  58.259  1.00  0.00     0.029 A 
ENDROOT
BRANCH   1   7
HETATM    7  C   UNL     1       8.548  31.605  59.735  1.00  0.00     0.256 C 
HETATM    8  N   UNL     1       7.804  31.040  60.758  1.00  0.00    -0.323 N 
HETATM    9  H   UNL     1       7.667  30.039  60.719  1.00  0.00     0.169 HD
HETATM   10  O   UNL     1       8.904  32.769  59.627  1.00  0.00    -0.267 OA
BRANCH   8  11
HETATM   11  C   UNL     1       7.334  31.666  61.931  1.00  0.00     0.035 A 
HETATM   12  C   UNL     1       5.989  31.767  62.279  1.00  0.00     0.030 A 
HETATM   13  C   UNL     1       5.607  32.442  63.446  1.00  0.00     0.010 A 
HETATM   14  C   UNL     1       6.566  33.031  64.281  1.00  0.00    -0.049 A 
HETATM   15  C   UNL     1       7.917  32.910  63.940  1.00  0.00     0.010 A 
HETATM   16  C   UNL     1       8.295  32.235  62.776  1.00  0.00     0.030 A 
BRANCH  14  17
HETATM   17  C   UNL     1       6.150  33.758  65.534  1.00  0.00     0.149 C 
BRANCH  17  18
HETATM   18  C   UNL     1       4.820  34.467  65.404  1.00  0.00     0.263 C 
HETATM   19  O   UNL     1       3.715  33.973  65.578  1.00  0.00    -0.265 OA
BRANCH  18  20
HETATM   20  O   UNL     1       5.018  35.791  65.111  1.00  0.00    -0.316 OA
BRANCH  20  21
HETATM   21  C   UNL     1       5.280  36.078  63.726  1.00  0.00     0.135 C 
HETATM   22  C   UNL     1       4.018  35.869  62.889  1.00  0.00     0.060 C 
HETATM   23  C   UNL     1       4.258  36.264  61.443  1.00  0.00     0.237 C 
HETATM   24  N   UNL     1       4.755  37.688  61.350  1.00  0.00    -0.075 N 
HETATM   25  C   UNL     1       3.675  38.720  61.538  1.00  0.00     0.269 C 
HETATM   26  C   UNL     1       5.985  37.934  62.190  1.00  0.00     0.237 C 
HETATM   27  H   UNL     1       5.060  37.809  60.373  1.00  0.00     0.279 HD
HETATM   28  C   UNL     1       5.746  37.530  63.634  1.00  0.00     0.060 C 
ENDBRANCH  20  21
ENDBRANCH  18  20
ENDBRANCH  17  18
ENDBRANCH  14  17
ENDBRANCH   8  11
ENDBRANCH   1   7
BRANCH   5  29
HETATM   29  C   UNL     1       7.411  27.935  56.540  1.00  0.00    -0.017 A 
HETATM   30  C   UNL     1       7.854  26.715  55.971  1.00  0.00     0.030 A 
HETATM   31  C   UNL     1       6.969  25.839  55.326  1.00  0.00     0.033 A 
HETATM   32  C   UNL     1       5.611  26.143  55.285  1.00  0.00     0.017 A 
HETATM   33  C   UNL     1       5.146  27.325  55.852  1.00  0.00     0.011 A 
HETATM   34  C   UNL     1       6.029  28.259  56.436  1.00  0.00    -0.020 A 
BRANCH  31  35
HETATM   35  C   UNL     1       7.435  24.636  54.583  1.00  0.00     0.256 C 
HETATM   36  O   UNL     1       7.829  24.788  53.433  1.00  0.00    -0.267 OA
HETATM   37  N   UNL     1       7.363  23.437  55.265  1.00  0.00    -0.320 N 
HETATM   38  H   UNL     1       6.863  23.417  56.148  1.00  0.00     0.169 HD
BRANCH  37  39
HETATM   39  C   UNL     1       7.821  22.179  54.802  1.00  0.00     0.076 A 
HETATM   40  C   UNL     1       7.751  21.759  53.475  1.00  0.00     0.052 A 
HETATM   41  C   UNL     1       8.246  20.503  53.147  1.00  0.00     0.118 A 
HETATM   42  N   UNL     1       8.799  19.651  54.038  1.00  0.00    -0.270 NA
HETATM   43  C   UNL     1       8.861  20.080  55.319  1.00  0.00     0.160 A 
HETATM   44  C   UNL     1       8.395  21.315  55.735  1.00  0.00     0.160 A 
HETATM   45  F   UNL     1       8.494  21.678  57.023  1.00  0.00    -0.202 F 
ENDBRANCH  37  39
ENDBRANCH  31  35
BRANCH  34  46
HETATM   46  C   UNL     1       5.454  29.571  56.943  1.00  0.00     0.306 C 
BRANCH  46  47
HETATM   47  N   UNL     1       4.485  29.405  58.027  1.00  0.00     0.082 N 
HETATM   48  H   UNL     1       4.990  29.375  58.912  1.00  0.00     0.313 HD
HETATM   49  H   UNL     1       4.026  28.502  57.927  1.00  0.00     0.313 HD
ENDBRANCH  46  47
ENDBRANCH  34  46
ENDBRANCH   5  29
TORSDOF 11
ENDMDL
MODEL 3
REMARK VINA RESULT:     -11.9      2.545      3.661
REMARK  11 active torsions:
REMARK  status: ('A' for Active; 'I' for Inactive)
REMARK    1  A    between atoms: C_6  and  O_9 
REMARK    2  A    between atoms: O_9  and  C_10 
REMARK    3  A    between atoms: C_10  and  C_12 
REMARK    4  A    between atoms: C_12  and  C_13 
REMARK    5  A    between atoms: C_16  and  N_17 
REMARK       I    between atoms: N_17  and  C_18 
REMARK    6  A    between atoms: C_18  and  C_20 
REMARK    7  A    between atoms: C_24  and  C_26 
REMARK    8  A    between atoms: C_28  and  C_34 
REMARK    9  A    between atoms: C_31  and  C_32 
REMARK   10  A    between atoms: C_32  and  N_33 
REMARK       I    between atoms: C_34  and  N_36 
REMARK   11  A    between atoms: N_36  and  C_37 
ROOT
HETATM    1  C   UNL     1       9.212  30.847  58.865  1.00  0.00     0.033 A 
HETATM    2  C   UNL     1      10.406  30.940  58.147  1.00  0.00     0.017 A 
HETATM    3  C   UNL     1      10.713  29.967  57.201  1.00  0.00     0.002 A 
HETATM    4  C   UNL     1       9.816  28.921  56.956  1.00  0.00     0.012 A 
HETATM    5  C   UNL     1       8.616  28.792  57.683  1.00  0.00    -0.024 A 
HETATM    6  C   UNL     1       8.358  29.748  58.680  1.00  0.00     0.029 A 
ENDROOT
BRANCH   1   7
HETATM    7  C   UNL     1       8.759  31.950  59.757  1.00  0.00     0.256 C 
HETATM    8  N   UNL     1       7.930  31.525  60.781  1.00  0.00    -0.323 N 
HETATM    9  H   UNL     1       7.727  30.535  60.818  1.00  0.00     0.169 HD
HETATM   10  O   UNL     1       9.199  33.076  59.573  1.00  0.00    -0.267 OA
BRANCH   8  11
HETATM   11  C   UNL     1       7.446  32.278  61.871  1.00  0.00     0.035 A 
HETATM   12  C   UNL     1       6.228  32.954  61.876  1.00  0.00     0.030 A 
HETATM   13  C   UNL     1       5.843  33.714  62.988  1.00  0.00     0.010 A 
HETATM   14  C   UNL     1       6.673  33.811  64.113  1.00  0.00    -0.049 A 
HETATM   15  C   UNL     1       7.885  33.113  64.114  1.00  0.00     0.010 A 
HETATM   16  C   UNL     1       8.266  32.356  63.003  1.00  0.00     0.030 A 
BRANCH  14  17
HETATM   17  C   UNL     1       6.255  34.631  65.307  1.00  0.00     0.149 C 
BRANCH  17  18
HETATM   18  C   UNL     1       5.432  33.854  66.311  1.00  0.00     0.263 C 
HETATM   19  O   UNL     1       4.259  33.532  66.193  1.00  0.00    -0.265 OA
BRANCH  18  20
HETATM   20  O   UNL     1       6.210  33.494  67.381  1.00  0.00    -0.316 OA
BRANCH  20  21
HETATM   21  C   UNL     1       6.185  34.411  68.489  1.00  0.00     0.135 C 
HETATM   22  C   UNL     1       5.756  33.692  69.768  1.00  0.00     0.060 C 
HETATM   23  C   UNL     1       5.823  34.627  70.962  1.00  0.00     0.237 C 
HETATM   24  N   UNL     1       7.203  35.227  71.099  1.00  0.00    -0.075 N 
HETATM   25  C   UNL     1       8.220  34.281  71.681  1.00  0.00     0.269 C 
HETATM   26  C   UNL     1       7.667  35.920  69.841  1.00  0.00     0.237 C 
HETATM   27  H   UNL     1       7.109  35.972  71.805  1.00  0.00     0.279 HD
HETATM   28  C   UNL     1       7.591  34.986  68.646  1.00  0.00     0.060 C 
ENDBRANCH  20  21
ENDBRANCH  18  20
ENDBRANCH  17  18
ENDBRANCH  14  17
ENDBRANCH   8  11
ENDBRANCH   1   7
BRANCH   5  29
HETATM   29  C   UNL     1       7.652  27.707  57.362  1.00  0.00    -0.017 A 
HETATM   30  C   UNL     1       8.131  26.379  57.248  1.00  0.00     0.030 A 
HETATM   31  C   UNL     1       7.285  25.319  56.892  1.00  0.00     0.033 A 
HETATM   32  C   UNL     1       5.928  25.560  56.695  1.00  0.00     0.017 A 
HETATM   33  C   UNL     1       5.427  26.851  56.820  1.00  0.00     0.011 A 
HETATM   34  C   UNL     1       6.273  27.946  57.099  1.00  0.00    -0.020 A 
BRANCH  31  35
HETATM   35  C   UNL     1       7.795  23.949  56.609  1.00  0.00     0.256 C 
HETATM   36  O   UNL     1       8.289  23.317  57.535  1.00  0.00    -0.267 OA
HETATM   37  N   UNL     1       7.678  23.516  55.302  1.00  0.00    -0.320 N 
HETATM   38  H   UNL     1       7.407  24.192  54.596  1.00  0.00     0.169 HD
BRANCH  37  39
HETATM   39  C   UNL     1       8.013  22.231  54.811  1.00  0.00     0.076 A 
HETATM   40  C   UNL     1       8.361  21.149  55.618  1.00  0.00     0.052 A 
HETATM   41  C   UNL     1       8.658  19.934  55.011  1.00  0.00     0.118 A 
HETATM   42  N   UNL     1       8.631  19.728  53.676  1.00  0.00    -0.270 NA
HETATM   43  C   UNL     1       8.286  20.790  52.912  1.00  0.00     0.160 A 
HETATM   44  C   UNL     1       7.973  22.034  53.430  1.00  0.00     0.160 A 
HETATM   45  F   UNL     1       7.633  23.042  52.612  1.00  0.00    -0.202 F 
ENDBRANCH  37  39
ENDBRANCH  31  35
BRANCH  34  46
HETATM   46  C   UNL     1       5.664  29.338  57.119  1.00  0.00     0.306 C 
BRANCH  46  47
HETATM   47  N   UNL     1       6.022  30.149  55.954  1.00  0.00     0.082 N 
HETATM   48  H   UNL     1       5.442  29.861  55.167  1.00  0.00     0.313 HD
HETATM   49  H   UNL     1       6.984  29.947  55.692  1.00  0.00     0.313 HD
ENDBRANCH  46  47
ENDBRANCH  34  46
ENDBRANCH   5  29
TORSDOF 11
ENDMDL
MODEL 4
REMARK VINA RESULT:     -11.5      4.381     13.558
REMARK  11 active torsions:
REMARK  status: ('A' for Active; 'I' for Inactive)
REMARK    1  A    between atoms: C_6  and  O_9 
REMARK    2  A    between atoms: O_9  and  C_10 
REMARK    3  A    between atoms: C_10  and  C_12 
REMARK    4  A    between atoms: C_12  and  C_13 
REMARK    5  A    between atoms: C_16  and  N_17 
REMARK       I    between atoms: N_17  and  C_18 
REMARK    6  A    between atoms: C_18  and  C_20 
REMARK    7  A    between atoms: C_24  and  C_26 
REMARK    8  A    between atoms: C_28  and  C_34 
REMARK    9  A    between atoms: C_31  and  C_32 
REMARK   10  A    between atoms: C_32  and  N_33 
REMARK       I    between atoms: C_34  and  N_36 
REMARK   11  A    between atoms: N_36  and  C_37 
ROOT
HETATM    1  C   UNL     1       7.783  31.662  60.396  1.00  0.00     0.033 A 
HETATM    2  C   UNL     1       9.014  31.391  60.997  1.00  0.00     0.017 A 
HETATM    3  C   UNL     1       9.221  31.752  62.325  1.00  0.00     0.002 A 
HETATM    4  C   UNL     1       8.192  32.356  63.055  1.00  0.00     0.012 A 
HETATM    5  C   UNL     1       6.949  32.661  62.466  1.00  0.00    -0.024 A 
HETATM    6  C   UNL     1       6.784  32.348  61.105  1.00  0.00     0.029 A 
ENDROOT
BRANCH   1   7
HETATM    7  C   UNL     1       7.454  31.141  59.040  1.00  0.00     0.256 C 
HETATM    8  N   UNL     1       8.012  29.901  58.778  1.00  0.00    -0.323 N 
HETATM    9  H   UNL     1       8.566  29.488  59.517  1.00  0.00     0.169 HD
HETATM   10  O   UNL     1       6.690  31.780  58.331  1.00  0.00    -0.267 OA
BRANCH   8  11
HETATM   11  C   UNL     1       7.787  29.070  57.661  1.00  0.00     0.035 A 
HETATM   12  C   UNL     1       7.055  27.887  57.700  1.00  0.00     0.030 A 
HETATM   13  C   UNL     1       6.914  27.100  56.550  1.00  0.00     0.010 A 
HETATM   14  C   UNL     1       7.508  27.485  55.340  1.00  0.00    -0.049 A 
HETATM   15  C   UNL     1       8.225  28.685  55.298  1.00  0.00     0.010 A 
HETATM   16  C   UNL     1       8.363  29.468  56.448  1.00  0.00     0.030 A 
BRANCH  14  17
HETATM   17  C   UNL     1       7.356  26.635  54.105  1.00  0.00     0.149 C 
BRANCH  17  18
HETATM   18  C   UNL     1       5.957  26.093  53.917  1.00  0.00     0.263 C 
HETATM   19  O   UNL     1       4.937  26.753  53.774  1.00  0.00    -0.265 OA
BRANCH  18  20
HETATM   20  O   UNL     1       5.983  24.724  53.868  1.00  0.00    -0.316 OA
BRANCH  20  21
HETATM   21  C   UNL     1       7.230  24.123  54.259  1.00  0.00     0.135 C 
HETATM   22  C   UNL     1       7.129  23.557  55.676  1.00  0.00     0.060 C 
HETATM   23  C   UNL     1       8.407  22.834  56.060  1.00  0.00     0.237 C 
HETATM   24  N   UNL     1       8.739  21.755  55.054  1.00  0.00    -0.075 N 
HETATM   25  C   UNL     1       7.896  20.515  55.198  1.00  0.00     0.269 C 
HETATM   26  C   UNL     1       8.816  22.278  53.641  1.00  0.00     0.237 C 
HETATM   27  H   UNL     1       9.694  21.447  55.287  1.00  0.00     0.279 HD
HETATM   28  C   UNL     1       7.540  23.009  53.261  1.00  0.00     0.060 C 
ENDBRANCH  20  21
ENDBRANCH  18  20
ENDBRANCH  17  18
ENDBRANCH  14  17
ENDBRANCH   8  11
ENDBRANCH   1   7
BRANCH   5  29
HETATM   29  C   UNL     1       5.850  33.247  63.278  1.00  0.00    -0.017 A 
HETATM   30  C   UNL     1       6.168  33.853  64.519  1.00  0.00     0.030 A 
HETATM   31  C   UNL     1       5.173  34.373  65.359  1.00  0.00     0.033 A 
HETATM   32  C   UNL     1       3.843  34.343  64.950  1.00  0.00     0.017 A 
HETATM   33  C   UNL     1       3.506  33.771  63.728  1.00  0.00     0.011 A 
HETATM   34  C   UNL     1       4.479  33.171  62.901  1.00  0.00    -0.020 A 
BRANCH  31  35
HETATM   35  C   UNL     1       5.466  34.867  66.733  1.00  0.00     0.256 C 
HETATM   36  O   UNL     1       4.924  35.904  67.098  1.00  0.00    -0.267 OA
HETATM   37  N   UNL     1       6.348  34.107  67.476  1.00  0.00    -0.320 N 
HETATM   38  H   UNL     1       6.857  33.367  67.004  1.00  0.00     0.169 HD
BRANCH  37  39
HETATM   39  C   UNL     1       6.715  34.327  68.826  1.00  0.00     0.076 A 
HETATM   40  C   UNL     1       7.715  35.208  69.234  1.00  0.00     0.052 A 
HETATM   41  C   UNL     1       7.971  35.342  70.593  1.00  0.00     0.118 A 
HETATM   42  N   UNL     1       7.307  34.668  71.558  1.00  0.00    -0.270 NA
HETATM   43  C   UNL     1       6.339  33.821  71.141  1.00  0.00     0.160 A 
HETATM   44  C   UNL     1       6.015  33.628  69.810  1.00  0.00     0.160 A 
HETATM   45  F   UNL     1       5.037  32.775  69.468  1.00  0.00    -0.202 F 
ENDBRANCH  37  39
ENDBRANCH  31  35
BRANCH  34  46
HETATM   46  C   UNL     1       4.016  32.478  61.631  1.00  0.00     0.306 C 
BRANCH  46  47
HETATM   47  N   UNL     1       3.409  31.166  61.868  1.00  0.00     0.082 N 
HETATM   48  H   UNL     1       4.078  30.586  62.374  1.00  0.00     0.313 HD
HETATM   49  H   UNL     1       3.250  30.708  60.973  1.00  0.00     0.313 HD
ENDBRANCH  46  47
ENDBRANCH  34  46
ENDBRANCH   5  29
TORSDOF 11
ENDMDL
MODEL 5
REMARK VINA RESULT:     -11.3      3.371      4.227
REMARK  11 active torsions:
REMARK  status: ('A' for Active; 'I' for Inactive)
REMARK    1  A    between atoms: C_6  and  O_9 
REMARK    2  A    between atoms: O_9  and  C_10 
REMARK    3  A    between atoms: C_10  and  C_12 
REMARK    4  A    between atoms: C_12  and  C_13 
REMARK    5  A    between atoms: C_16  and  N_17 
REMARK       I    between atoms: N_17  and  C_18 
REMARK    6  A    between atoms: C_18  and  C_20 
REMARK    7  A    between atoms: C_24  and  C_26 
REMARK    8  A    between atoms: C_28  and  C_34 
REMARK    9  A    between atoms: C_31  and  C_32 
REMARK   10  A    between atoms: C_32  and  N_33 
REMARK       I    between atoms: C_34  and  N_36 
REMARK   11  A    between atoms: N_36  and  C_37 
ROOT
HETATM    1  C   UNL     1       8.511  30.269  58.640  1.00  0.00     0.033 A 
HETATM    2  C   UNL     1       9.859  30.477  58.340  1.00  0.00     0.017 A 
HETATM    3  C   UNL     1      10.476  29.680  57.380  1.00  0.00     0.002 A 
HETATM    4  C   UNL     1       9.741  28.700  56.706  1.00  0.00     0.012 A 
HETATM    5  C   UNL     1       8.387  28.455  57.006  1.00  0.00    -0.024 A 
HETATM    6  C   UNL     1       7.801  29.226  58.025  1.00  0.00     0.029 A 
ENDROOT
BRANCH   1   7
HETATM    7  C   UNL     1       7.765  31.205  59.527  1.00  0.00     0.256 C 
HETATM    8  N   UNL     1       7.873  30.892  60.871  1.00  0.00    -0.323 N 
HETATM    9  H   UNL     1       8.437  30.086  61.105  1.00  0.00     0.169 HD
HETATM   10  O   UNL     1       7.209  32.174  59.029  1.00  0.00    -0.267 OA
BRANCH   8  11
HETATM   11  C   UNL     1       7.416  31.644  61.973  1.00  0.00     0.035 A 
HETATM   12  C   UNL     1       8.249  32.235  62.919  1.00  0.00     0.030 A 
HETATM   13  C   UNL     1       7.708  32.932  64.007  1.00  0.00     0.010 A 
HETATM   14  C   UNL     1       6.320  33.044  64.167  1.00  0.00    -0.049 A 
HETATM   15  C   UNL     1       5.485  32.468  63.205  1.00  0.00     0.010 A 
HETATM   16  C   UNL     1       6.029  31.774  62.120  1.00  0.00     0.030 A 
BRANCH  14  17
HETATM   17  C   UNL     1       5.741  33.793  65.341  1.00  0.00     0.149 C 
BRANCH  17  18
HETATM   18  C   UNL     1       4.440  34.495  65.023  1.00  0.00     0.263 C 
HETATM   19  O   UNL     1       3.327  33.988  65.012  1.00  0.00    -0.265 OA
BRANCH  18  20
HETATM   20  O   UNL     1       4.665  35.828  64.797  1.00  0.00    -0.316 OA
BRANCH  20  21
HETATM   21  C   UNL     1       4.884  36.185  63.421  1.00  0.00     0.135 C 
HETATM   22  C   UNL     1       3.562  36.552  62.747  1.00  0.00     0.060 C 
HETATM   23  C   UNL     1       3.795  37.026  61.324  1.00  0.00     0.237 C 
HETATM   24  N   UNL     1       4.773  38.178  61.293  1.00  0.00    -0.075 N 
HETATM   25  C   UNL     1       4.173  39.493  61.719  1.00  0.00     0.269 C 
HETATM   26  C   UNL     1       6.079  37.855  61.977  1.00  0.00     0.237 C 
HETATM   27  H   UNL     1       5.008  38.312  60.299  1.00  0.00     0.279 HD
HETATM   28  C   UNL     1       5.843  37.373  63.398  1.00  0.00     0.060 C 
ENDBRANCH  20  21
ENDBRANCH  18  20
ENDBRANCH  17  18
ENDBRANCH  14  17
ENDBRANCH   8  11
ENDBRANCH   1   7
BRANCH   5  29
HETATM   29  C   UNL     1       7.610  27.450  56.234  1.00  0.00    -0.017 A 
HETATM   30  C   UNL     1       6.937  27.864  55.058  1.00  0.00     0.030 A 
HETATM   31  C   UNL     1       6.142  26.980  54.315  1.00  0.00     0.033 A 
HETATM   32  C   UNL     1       6.047  25.647  54.706  1.00  0.00     0.017 A 
HETATM   33  C   UNL     1       6.713  25.209  55.846  1.00  0.00     0.011 A 
HETATM   34  C   UNL     1       7.455  26.098  56.653  1.00  0.00    -0.020 A 
BRANCH  31  35
HETATM   35  C   UNL     1       5.299  27.430  53.173  1.00  0.00     0.256 C 
HETATM   36  O   UNL     1       4.178  27.858  53.419  1.00  0.00    -0.267 OA
HETATM   37  N   UNL     1       5.863  27.307  51.918  1.00  0.00    -0.320 N 
HETATM   38  H   UNL     1       6.729  26.785  51.831  1.00  0.00     0.169 HD
BRANCH  37  39
HETATM   39  C   UNL     1       5.294  27.741  50.695  1.00  0.00     0.076 A 
HETATM   40  C   UNL     1       5.367  29.048  50.217  1.00  0.00     0.052 A 
HETATM   41  C   UNL     1       4.775  29.343  48.994  1.00  0.00     0.118 A 
HETATM   42  N   UNL     1       4.127  28.437  48.229  1.00  0.00    -0.270 NA
HETATM   43  C   UNL     1       4.073  27.175  48.710  1.00  0.00     0.160 A 
HETATM   44  C   UNL     1       4.635  26.791  49.915  1.00  0.00     0.160 A 
HETATM   45  F   UNL     1       4.547  25.518  50.328  1.00  0.00    -0.202 F 
ENDBRANCH  37  39
ENDBRANCH  31  35
BRANCH  34  46
HETATM   46  C   UNL     1       8.068  25.562  57.936  1.00  0.00     0.306 C 
BRANCH  46  47
HETATM   47  N   UNL     1       8.348  24.126  57.895  1.00  0.00     0.082 N 
HETATM   48  H   UNL     1       9.118  23.927  58.533  1.00  0.00     0.313 HD
HETATM   49  H   UNL     1       8.674  23.877  56.964  1.00  0.00     0.313 HD
ENDBRANCH  46  47
ENDBRANCH  34  46
ENDBRANCH   5  29
TORSDOF 11
ENDMDL
MODEL 6
REMARK VINA RESULT:     -11.1      3.902     13.766
REMARK  11 active torsions:
REMARK  status: ('A' for Active; 'I' for Inactive)
REMARK    1  A    between atoms: C_6  and  O_9 
REMARK    2  A    between atoms: O_9  and  C_10 
REMARK    3  A    between atoms: C_10  and  C_12 
REMARK    4  A    between atoms: C_12  and  C_13 
REMARK    5  A    between atoms: C_16  and  N_17 
REMARK       I    between atoms: N_17  and  C_18 
REMARK    6  A    between atoms: C_18  and  C_20 
REMARK    7  A    between atoms: C_24  and  C_26 
REMARK    8  A    between atoms: C_28  and  C_34 
REMARK    9  A    between atoms: C_31  and  C_32 
REMARK   10  A    between atoms: C_32  and  N_33 
REMARK       I    between atoms: C_34  and  N_36 
REMARK   11  A    between atoms: N_36  and  C_37 
ROOT
HETATM    1  C   UNL     1       8.069  31.390  60.458  1.00  0.00     0.033 A 
HETATM    2  C   UNL     1       8.588  30.975  61.687  1.00  0.00     0.017 A 
HETATM    3  C   UNL     1       8.091  31.529  62.862  1.00  0.00     0.002 A 
HETATM    4  C   UNL     1       7.061  32.474  62.809  1.00  0.00     0.012 A 
HETATM    5  C   UNL     1       6.536  32.926  61.583  1.00  0.00    -0.024 A 
HETATM    6  C   UNL     1       7.098  32.403  60.406  1.00  0.00     0.029 A 
ENDROOT
BRANCH   1   7
HETATM    7  C   UNL     1       8.442  30.704  59.190  1.00  0.00     0.256 C 
HETATM    8  N   UNL     1       7.552  29.711  58.820  1.00  0.00    -0.323 N 
HETATM    9  H   UNL     1       6.759  29.563  59.430  1.00  0.00     0.169 HD
HETATM   10  O   UNL     1       9.414  31.106  58.565  1.00  0.00    -0.267 OA
BRANCH   8  11
HETATM   11  C   UNL     1       7.530  28.974  57.617  1.00  0.00     0.035 A 
HETATM   12  C   UNL     1       7.212  29.513  56.374  1.00  0.00     0.030 A 
HETATM   13  C   UNL     1       7.175  28.699  55.235  1.00  0.00     0.010 A 
HETATM   14  C   UNL     1       7.453  27.328  55.324  1.00  0.00    -0.049 A 
HETATM   15  C   UNL     1       7.793  26.792  56.570  1.00  0.00     0.010 A 
HETATM   16  C   UNL     1       7.829  27.608  57.705  1.00  0.00     0.030 A 
BRANCH  14  17
HETATM   17  C   UNL     1       7.410  26.454  54.096  1.00  0.00     0.149 C 
BRANCH  17  18
HETATM   18  C   UNL     1       6.205  25.541  54.050  1.00  0.00     0.263 C 
HETATM   19  O   UNL     1       5.045  25.860  54.272  1.00  0.00    -0.265 OA
BRANCH  18  20
HETATM   20  O   UNL     1       6.581  24.282  53.660  1.00  0.00    -0.316 OA
BRANCH  20  21
HETATM   21  C   UNL     1       7.679  23.718  54.397  1.00  0.00     0.135 C 
HETATM   22  C   UNL     1       7.236  23.340  55.810  1.00  0.00     0.060 C 
HETATM   23  C   UNL     1       8.361  22.652  56.563  1.00  0.00     0.237 C 
HETATM   24  N   UNL     1       8.863  21.449  55.799  1.00  0.00    -0.075 N 
HETATM   25  C   UNL     1       7.957  20.250  55.894  1.00  0.00     0.269 C 
HETATM   26  C   UNL     1       9.281  21.785  54.388  1.00  0.00     0.237 C 
HETATM   27  H   UNL     1       9.727  21.159  56.280  1.00  0.00     0.279 HD
HETATM   28  C   UNL     1       8.158  22.481  53.640  1.00  0.00     0.060 C 
ENDBRANCH  20  21
ENDBRANCH  18  20
ENDBRANCH  17  18
ENDBRANCH  14  17
ENDBRANCH   8  11
ENDBRANCH   1   7
BRANCH   5  29
HETATM   29  C   UNL     1       5.400  33.885  61.554  1.00  0.00    -0.017 A 
HETATM   30  C   UNL     1       5.649  35.248  61.851  1.00  0.00     0.030 A 
HETATM   31  C   UNL     1       4.614  36.192  61.898  1.00  0.00     0.033 A 
HETATM   32  C   UNL     1       3.312  35.800  61.596  1.00  0.00     0.017 A 
HETATM   33  C   UNL     1       3.042  34.473  61.282  1.00  0.00     0.011 A 
HETATM   34  C   UNL     1       4.054  33.489  61.306  1.00  0.00    -0.020 A 
BRANCH  31  35
HETATM   35  C   UNL     1       4.828  37.590  62.364  1.00  0.00     0.256 C 
HETATM   36  O   UNL     1       3.896  38.380  62.259  1.00  0.00    -0.267 OA
HETATM   37  N   UNL     1       6.082  37.877  62.865  1.00  0.00    -0.320 N 
HETATM   38  H   UNL     1       6.816  37.187  62.744  1.00  0.00     0.169 HD
BRANCH  37  39
HETATM   39  C   UNL     1       6.496  39.104  63.440  1.00  0.00     0.076 A 
HETATM   40  C   UNL     1       7.253  40.066  62.774  1.00  0.00     0.052 A 
HETATM   41  C   UNL     1       7.585  41.236  63.447  1.00  0.00     0.118 A 
HETATM   42  N   UNL     1       7.218  41.507  64.719  1.00  0.00    -0.270 NA
HETATM   43  C   UNL     1       6.481  40.562  65.345  1.00  0.00     0.160 A 
HETATM   44  C   UNL     1       6.103  39.370  64.752  1.00  0.00     0.160 A 
HETATM   45  F   UNL     1       5.364  38.480  65.431  1.00  0.00    -0.202 F 
ENDBRANCH  37  39
ENDBRANCH  31  35
BRANCH  34  46
HETATM   46  C   UNL     1       3.659  32.044  61.051  1.00  0.00     0.306 C 
BRANCH  46  47
HETATM   47  N   UNL     1       3.510  31.254  62.275  1.00  0.00     0.082 N 
HETATM   48  H   UNL     1       3.750  30.285  62.067  1.00  0.00     0.313 HD
HETATM   49  H   UNL     1       2.531  31.255  62.553  1.00  0.00     0.313 HD
ENDBRANCH  46  47
ENDBRANCH  34  46
ENDBRANCH   5  29
TORSDOF 11
ENDMDL
MODEL 7
REMARK VINA RESULT:     -10.9      4.874     13.915
REMARK  11 active torsions:
REMARK  status: ('A' for Active; 'I' for Inactive)
REMARK    1  A    between atoms: C_6  and  O_9 
REMARK    2  A    between atoms: O_9  and  C_10 
REMARK    3  A    between atoms: C_10  and  C_12 
REMARK    4  A    between atoms: C_12  and  C_13 
REMARK    5  A    between atoms: C_16  and  N_17 
REMARK       I    between atoms: N_17  and  C_18 
REMARK    6  A    between atoms: C_18  and  C_20 
REMARK    7  A    between atoms: C_24  and  C_26 
REMARK    8  A    between atoms: C_28  and  C_34 
REMARK    9  A    between atoms: C_31  and  C_32 
REMARK   10  A    between atoms: C_32  and  N_33 
REMARK       I    between atoms: C_34  and  N_36 
REMARK   11  A    between atoms: N_36  and  C_37 
ROOT
HETATM    1  C   UNL     1       6.898  32.103  60.961  1.00  0.00     0.033 A 
HETATM    2  C   UNL     1       8.182  31.695  61.332  1.00  0.00     0.017 A 
HETATM    3  C   UNL     1       8.654  31.999  62.605  1.00  0.00     0.002 A 
HETATM    4  C   UNL     1       7.837  32.684  63.511  1.00  0.00     0.012 A 
HETATM    5  C   UNL     1       6.548  33.126  63.153  1.00  0.00    -0.024 A 
HETATM    6  C   UNL     1       6.116  32.867  61.841  1.00  0.00     0.029 A 
ENDROOT
BRANCH   1   7
HETATM    7  C   UNL     1       6.285  31.652  59.681  1.00  0.00     0.256 C 
HETATM    8  N   UNL     1       7.049  30.715  59.006  1.00  0.00    -0.323 N 
HETATM    9  H   UNL     1       7.918  30.438  59.444  1.00  0.00     0.169 HD
HETATM   10  O   UNL     1       5.173  32.063  59.381  1.00  0.00    -0.267 OA
BRANCH   8  11
HETATM   11  C   UNL     1       6.699  29.984  57.851  1.00  0.00     0.035 A 
HETATM   12  C   UNL     1       5.980  30.509  56.781  1.00  0.00     0.030 A 
HETATM   13  C   UNL     1       5.640  29.700  55.689  1.00  0.00     0.010 A 
HETATM   14  C   UNL     1       6.013  28.349  55.653  1.00  0.00    -0.049 A 
HETATM   15  C   UNL     1       6.754  27.830  56.719  1.00  0.00     0.010 A 
HETATM   16  C   UNL     1       7.092  28.641  57.807  1.00  0.00     0.030 A 
BRANCH  14  17
HETATM   17  C   UNL     1       5.643  27.481  54.477  1.00  0.00     0.149 C 
BRANCH  17  18
HETATM   18  C   UNL     1       6.782  26.614  53.989  1.00  0.00     0.263 C 
HETATM   19  O   UNL     1       7.835  27.005  53.505  1.00  0.00    -0.265 OA
BRANCH  18  20
HETATM   20  O   UNL     1       6.501  25.292  54.219  1.00  0.00    -0.316 OA
BRANCH  20  21
HETATM   21  C   UNL     1       7.647  24.459  54.466  1.00  0.00     0.135 C 
HETATM   22  C   UNL     1       7.656  23.979  55.917  1.00  0.00     0.060 C 
HETATM   23  C   UNL     1       8.807  23.019  56.161  1.00  0.00     0.237 C 
HETATM   24  N   UNL     1       8.754  21.859  55.194  1.00  0.00    -0.075 N 
HETATM   25  C   UNL     1       7.712  20.828  55.541  1.00  0.00     0.269 C 
HETATM   26  C   UNL     1       8.714  22.302  53.751  1.00  0.00     0.237 C 
HETATM   27  H   UNL     1       9.651  21.367  55.306  1.00  0.00     0.279 HD
HETATM   28  C   UNL     1       7.568  23.269  53.511  1.00  0.00     0.060 C 
ENDBRANCH  20  21
ENDBRANCH  18  20
ENDBRANCH  17  18
ENDBRANCH  14  17
ENDBRANCH   8  11
ENDBRANCH   1   7
BRANCH   5  29
HETATM   29  C   UNL     1       5.675  33.798  64.152  1.00  0.00    -0.017 A 
HETATM   30  C   UNL     1       6.104  33.860  65.501  1.00  0.00     0.030 A 
HETATM   31  C   UNL     1       5.304  34.428  66.502  1.00  0.00     0.033 A 
HETATM   32  C   UNL     1       4.077  34.994  66.163  1.00  0.00     0.017 A 
HETATM   33  C   UNL     1       3.641  34.964  64.843  1.00  0.00     0.011 A 
HETATM   34  C   UNL     1       4.393  34.328  63.832  1.00  0.00    -0.020 A 
BRANCH  31  35
HETATM   35  C   UNL     1       5.661  34.359  67.946  1.00  0.00     0.256 C 
HETATM   36  O   UNL     1       4.874  33.809  68.707  1.00  0.00    -0.267 OA
HETATM   37  N   UNL     1       6.860  34.946  68.303  1.00  0.00    -0.320 N 
HETATM   38  H   UNL     1       7.339  35.514  67.612  1.00  0.00     0.169 HD
BRANCH  37  39
HETATM   39  C   UNL     1       7.449  34.936  69.591  1.00  0.00     0.076 A 
HETATM   40  C   UNL     1       7.701  33.781  70.329  1.00  0.00     0.052 A 
HETATM   41  C   UNL     1       8.296  33.907  71.578  1.00  0.00     0.118 A 
HETATM   42  N   UNL     1       8.650  35.087  72.133  1.00  0.00    -0.270 NA
HETATM   43  C   UNL     1       8.399  36.194  71.398  1.00  0.00     0.160 A 
HETATM   44  C   UNL     1       7.814  36.163  70.145  1.00  0.00     0.160 A 
HETATM   45  F   UNL     1       7.600  37.302  69.469  1.00  0.00    -0.202 F 
ENDBRANCH  37  39
ENDBRANCH  31  35
BRANCH  34  46
HETATM   46  C   UNL     1       3.799  34.250  62.435  1.00  0.00     0.306 C 
BRANCH  46  47
HETATM   47  N   UNL     1       2.525  33.530  62.381  1.00  0.00     0.082 N 
HETATM   48  H   UNL     1       2.325  33.153  63.307  1.00  0.00     0.313 HD
HETATM   49  H   UNL     1       2.623  32.729  61.760  1.00  0.00     0.313 HD
ENDBRANCH  46  47
ENDBRANCH  34  46
ENDBRANCH   5  29
TORSDOF 11
ENDMDL
MODEL 8
REMARK VINA RESULT:     -10.6      4.318     13.535
REMARK  11 active torsions:
REMARK  status: ('A' for Active; 'I' for Inactive)
REMARK    1  A    between atoms: C_6  and  O_9 
REMARK    2  A    between atoms: O_9  and  C_10 
REMARK    3  A    between atoms: C_10  and  C_12 
REMARK    4  A    between atoms: C_12  and  C_13 
REMARK    5  A    between atoms: C_16  and  N_17 
REMARK       I    between atoms: N_17  and  C_18 
REMARK    6  A    between atoms: C_18  and  C_20 
REMARK    7  A    between atoms: C_24  and  C_26 
REMARK    8  A    between atoms: C_28  and  C_34 
REMARK    9  A    between atoms: C_31  and  C_32 
REMARK   10  A    between atoms: C_32  and  N_33 
REMARK       I    between atoms: C_34  and  N_36 
REMARK   11  A    between atoms: N_36  and  C_37 
ROOT
HETATM    1  C   UNL     1       3.979  32.841  59.021  1.00  0.00     0.033 A 
HETATM    2  C   UNL     1       3.407  34.102  58.834  1.00  0.00     0.017 A 
HETATM    3  C   UNL     1       3.646  35.106  59.768  1.00  0.00     0.002 A 
HETATM    4  C   UNL     1       4.474  34.857  60.868  1.00  0.00     0.012 A 
HETATM    5  C   UNL     1       5.044  33.588  61.091  1.00  0.00    -0.024 A 
HETATM    6  C   UNL     1       4.736  32.570  60.171  1.00  0.00     0.029 A 
ENDROOT
BRANCH   1   7
HETATM    7  C   UNL     1       3.898  31.793  57.966  1.00  0.00     0.256 C 
HETATM    8  N   UNL     1       4.928  30.870  58.027  1.00  0.00    -0.323 N 
HETATM    9  H   UNL     1       5.608  30.998  58.765  1.00  0.00     0.169 HD
HETATM   10  O   UNL     1       2.931  31.783  57.217  1.00  0.00    -0.267 OA
BRANCH   8  11
HETATM   11  C   UNL     1       5.072  29.684  57.278  1.00  0.00     0.035 A 
HETATM   12  C   UNL     1       5.995  28.682  57.566  1.00  0.00     0.030 A 
HETATM   13  C   UNL     1       6.098  27.553  56.744  1.00  0.00     0.010 A 
HETATM   14  C   UNL     1       5.279  27.411  55.615  1.00  0.00    -0.049 A 
HETATM   15  C   UNL     1       4.338  28.408  55.339  1.00  0.00     0.010 A 
HETATM   16  C   UNL     1       4.238  29.533  56.162  1.00  0.00     0.030 A 
BRANCH  14  17
HETATM   17  C   UNL     1       5.395  26.195  54.731  1.00  0.00     0.149 C 
BRANCH  17  18
HETATM   18  C   UNL     1       6.708  26.119  53.984  1.00  0.00     0.263 C 
HETATM   19  O   UNL     1       7.542  27.008  53.891  1.00  0.00    -0.265 OA
BRANCH  18  20
HETATM   20  O   UNL     1       6.877  24.866  53.453  1.00  0.00    -0.316 OA
BRANCH  20  21
HETATM   21  C   UNL     1       7.947  24.098  54.030  1.00  0.00     0.135 C 
HETATM   22  C   UNL     1       7.679  23.837  55.511  1.00  0.00     0.060 C 
HETATM   23  C   UNL     1       8.753  22.943  56.105  1.00  0.00     0.237 C 
HETATM   24  N   UNL     1       8.871  21.653  55.326  1.00  0.00    -0.075 N 
HETATM   25  C   UNL     1       7.771  20.666  55.621  1.00  0.00     0.269 C 
HETATM   26  C   UNL     1       9.107  21.879  53.853  1.00  0.00     0.237 C 
HETATM   27  H   UNL     1       9.726  21.198  55.676  1.00  0.00     0.279 HD
HETATM   28  C   UNL     1       8.037  22.780  53.263  1.00  0.00     0.060 C 
ENDBRANCH  20  21
ENDBRANCH  18  20
ENDBRANCH  17  18
ENDBRANCH  14  17
ENDBRANCH   8  11
ENDBRANCH   1   7
BRANCH   5  29
HETATM   29  C   UNL     1       5.969  33.365  62.233  1.00  0.00    -0.017 A 
HETATM   30  C   UNL     1       5.610  33.864  63.510  1.00  0.00     0.030 A 
HETATM   31  C   UNL     1       6.463  33.738  64.615  1.00  0.00     0.033 A 
HETATM   32  C   UNL     1       7.672  33.062  64.476  1.00  0.00     0.017 A 
HETATM   33  C   UNL     1       8.041  32.545  63.238  1.00  0.00     0.011 A 
HETATM   34  C   UNL     1       7.236  32.729  62.094  1.00  0.00    -0.020 A 
BRANCH  31  35
HETATM   35  C   UNL     1       6.180  34.392  65.922  1.00  0.00     0.256 C 
HETATM   36  O   UNL     1       5.281  35.224  65.965  1.00  0.00    -0.267 OA
HETATM   37  N   UNL     1       6.980  34.007  66.980  1.00  0.00    -0.320 N 
HETATM   38  H   UNL     1       7.796  33.437  66.780  1.00  0.00     0.169 HD
BRANCH  37  39
HETATM   39  C   UNL     1       6.850  34.424  68.327  1.00  0.00     0.076 A 
HETATM   40  C   UNL     1       7.815  35.155  69.018  1.00  0.00     0.052 A 
HETATM   41  C   UNL     1       7.561  35.514  70.336  1.00  0.00     0.118 A 
HETATM   42  N   UNL     1       6.427  35.200  71.001  1.00  0.00    -0.270 NA
HETATM   43  C   UNL     1       5.503  34.494  70.310  1.00  0.00     0.160 A 
HETATM   44  C   UNL     1       5.670  34.097  68.996  1.00  0.00     0.160 A 
HETATM   45  F   UNL     1       4.707  33.403  68.369  1.00  0.00    -0.202 F 
ENDBRANCH  37  39
ENDBRANCH  31  35
BRANCH  34  46
HETATM   46  C   UNL     1       7.757  32.223  60.759  1.00  0.00     0.306 C 
BRANCH  46  47
HETATM   47  N   UNL     1       7.734  30.764  60.638  1.00  0.00     0.082 N 
HETATM   48  H   UNL     1       7.258  30.518  59.771  1.00  0.00     0.313 HD
HETATM   49  H   UNL     1       7.174  30.377  61.394  1.00  0.00     0.313 HD
ENDBRANCH  46  47
ENDBRANCH  34  46
ENDBRANCH   5  29
TORSDOF 11
ENDMDL
MODEL 9
REMARK VINA RESULT:     -10.4      7.153     13.458
REMARK  11 active torsions:
REMARK  status: ('A' for Active; 'I' for Inactive)
REMARK    1  A    between atoms: C_6  and  O_9 
REMARK    2  A    between atoms: O_9  and  C_10 
REMARK    3  A    between atoms: C_10  and  C_12 
REMARK    4  A    between atoms: C_12  and  C_13 
REMARK    5  A    between atoms: C_16  and  N_17 
REMARK       I    between atoms: N_17  and  C_18 
REMARK    6  A    between atoms: C_18  and  C_20 
REMARK    7  A    between atoms: C_24  and  C_26 
REMARK    8  A    between atoms: C_28  and  C_34 
REMARK    9  A    between atoms: C_31  and  C_32 
REMARK   10  A    between atoms: C_32  and  N_33 
REMARK       I    between atoms: C_34  and  N_36 
REMARK   11  A    between atoms: N_36  and  C_37 
ROOT
HETATM    1  C   UNL     1       6.647  27.370  55.139  1.00  0.00     0.033 A 
HETATM    2  C   UNL     1       6.912  26.082  55.610  1.00  0.00     0.017 A 
HETATM    3  C   UNL     1       7.680  25.919  56.759  1.00  0.00     0.002 A 
HETATM    4  C   UNL     1       8.157  27.039  57.447  1.00  0.00     0.012 A 
HETATM    5  C   UNL     1       7.923  28.348  56.980  1.00  0.00    -0.024 A 
HETATM    6  C   UNL     1       7.201  28.487  55.782  1.00  0.00     0.029 A 
ENDROOT
BRANCH   1   7
HETATM    7  C   UNL     1       5.690  27.601  54.021  1.00  0.00     0.256 C 
HETATM    8  N   UNL     1       6.285  27.564  52.771  1.00  0.00    -0.323 N 
HETATM    9  H   UNL     1       7.280  27.383  52.749  1.00  0.00     0.169 HD
HETATM   10  O   UNL     1       4.500  27.719  54.277  1.00  0.00    -0.267 OA
BRANCH   8  11
HETATM   11  C   UNL     1       5.652  27.601  51.511  1.00  0.00     0.035 A 
HETATM   12  C   UNL     1       5.179  26.477  50.840  1.00  0.00     0.030 A 
HETATM   13  C   UNL     1       4.598  26.600  49.571  1.00  0.00     0.010 A 
HETATM   14  C   UNL     1       4.487  27.852  48.952  1.00  0.00    -0.049 A 
HETATM   15  C   UNL     1       4.944  28.983  49.637  1.00  0.00     0.010 A 
HETATM   16  C   UNL     1       5.522  28.856  50.903  1.00  0.00     0.030 A 
BRANCH  14  17
HETATM   17  C   UNL     1       3.863  27.980  47.585  1.00  0.00     0.149 C 
BRANCH  17  18
HETATM   18  C   UNL     1       2.851  26.897  47.283  1.00  0.00     0.263 C 
HETATM   19  O   UNL     1       3.097  25.758  46.912  1.00  0.00    -0.265 OA
BRANCH  18  20
HETATM   20  O   UNL     1       1.584  27.351  47.541  1.00  0.00    -0.316 OA
BRANCH  20  21
HETATM   21  C   UNL     1       1.007  28.170  46.509  1.00  0.00     0.135 C 
HETATM   22  C   UNL     1      -0.163  27.446  45.843  1.00  0.00     0.060 C 
HETATM   23  C   UNL     1      -0.841  28.341  44.822  1.00  0.00     0.237 C 
HETATM   24  N   UNL     1      -1.281  29.641  45.453  1.00  0.00    -0.075 N 
HETATM   25  C   UNL     1      -2.526  29.517  46.291  1.00  0.00     0.269 C 
HETATM   26  C   UNL     1      -0.152  30.366  46.144  1.00  0.00     0.237 C 
HETATM   27  H   UNL     1      -1.558  30.248  44.668  1.00  0.00     0.279 HD
HETATM   28  C   UNL     1       0.530  29.467  47.160  1.00  0.00     0.060 C 
ENDBRANCH  20  21
ENDBRANCH  18  20
ENDBRANCH  17  18
ENDBRANCH  14  17
ENDBRANCH   8  11
ENDBRANCH   1   7
BRANCH   5  29
HETATM   29  C   UNL     1       8.388  29.524  57.762  1.00  0.00    -0.017 A 
HETATM   30  C   UNL     1       7.484  30.148  58.658  1.00  0.00     0.030 A 
HETATM   31  C   UNL     1       7.840  31.295  59.382  1.00  0.00     0.033 A 
HETATM   32  C   UNL     1       9.129  31.810  59.263  1.00  0.00     0.017 A 
HETATM   33  C   UNL     1      10.041  31.205  58.405  1.00  0.00     0.011 A 
HETATM   34  C   UNL     1       9.681  30.098  57.607  1.00  0.00    -0.020 A 
BRANCH  31  35
HETATM   35  C   UNL     1       6.861  32.058  60.202  1.00  0.00     0.256 C 
HETATM   36  O   UNL     1       6.039  32.754  59.616  1.00  0.00    -0.267 OA
HETATM   37  N   UNL     1       6.980  31.923  61.572  1.00  0.00    -0.320 N 
HETATM   38  H   UNL     1       7.802  31.454  61.937  1.00  0.00     0.169 HD
BRANCH  37  39
HETATM   39  C   UNL     1       6.119  32.480  62.549  1.00  0.00     0.076 A 
HETATM   40  C   UNL     1       4.739  32.604  62.399  1.00  0.00     0.052 A 
HETATM   41  C   UNL     1       4.003  33.159  63.439  1.00  0.00     0.118 A 
HETATM   42  N   UNL     1       4.542  33.591  64.600  1.00  0.00    -0.270 NA
HETATM   43  C   UNL     1       5.882  33.458  64.726  1.00  0.00     0.160 A 
HETATM   44  C   UNL     1       6.691  32.915  63.744  1.00  0.00     0.160 A 
HETATM   45  F   UNL     1       8.015  32.808  63.940  1.00  0.00    -0.202 F 
ENDBRANCH  37  39
ENDBRANCH  31  35
BRANCH  34  46
HETATM   46  C   UNL     1      10.705  29.559  56.622  1.00  0.00     0.306 C 
BRANCH  46  47
HETATM   47  N   UNL     1      12.069  29.532  57.152  1.00  0.00     0.082 N 
HETATM   48  H   UNL     1      12.608  30.270  56.701  1.00  0.00     0.313 HD
HETATM   49  H   UNL     1      12.510  28.653  56.888  1.00  0.00     0.313 HD
ENDBRANCH  46  47
ENDBRANCH  34  46
ENDBRANCH   5  29
TORSDOF 11
ENDMDL
MODEL 10
REMARK VINA RESULT:     -10.0      3.926     13.274
REMARK  11 active torsions:
REMARK  status: ('A' for Active; 'I' for Inactive)
REMARK    1  A    between atoms: C_6  and  O_9 
REMARK    2  A    between atoms: O_9  and  C_10 
REMARK    3  A    between atoms: C_10  and  C_12 
REMARK    4  A    between atoms: C_12  and  C_13 
REMARK    5  A    between atoms: C_16  and  N_17 
REMARK       I    between atoms: N_17  and  C_18 
REMARK    6  A    between atoms: C_18  and  C_20 
REMARK    7  A    between atoms: C_24  and  C_26 
REMARK    8  A    between atoms: C_28  and  C_34 
REMARK    9  A    between atoms: C_31  and  C_32 
REMARK   10  A    between atoms: C_32  and  N_33 
REMARK       I    between atoms: C_34  and  N_36 
REMARK   11  A    between atoms: N_36  and  C_37 
ROOT
HETATM    1  C   UNL     1       4.795  31.559  56.806  1.00  0.00     0.033 A 
HETATM    2  C   UNL     1       4.095  32.758  56.650  1.00  0.00     0.017 A 
HETATM    3  C   UNL     1       4.243  33.765  57.599  1.00  0.00     0.002 A 
HETATM    4  C   UNL     1       5.107  33.582  58.684  1.00  0.00     0.012 A 
HETATM    5  C   UNL     1       5.806  32.375  58.877  1.00  0.00    -0.024 A 
HETATM    6  C   UNL     1       5.591  31.347  57.943  1.00  0.00     0.029 A 
ENDROOT
BRANCH   1   7
HETATM    7  C   UNL     1       4.806  30.526  55.734  1.00  0.00     0.256 C 
HETATM    8  N   UNL     1       5.613  29.439  56.025  1.00  0.00    -0.323 N 
HETATM    9  H   UNL     1       6.095  29.458  56.914  1.00  0.00     0.169 HD
HETATM   10  O   UNL     1       4.075  30.673  54.764  1.00  0.00    -0.267 OA
BRANCH   8  11
HETATM   11  C   UNL     1       5.738  28.236  55.300  1.00  0.00     0.035 A 
HETATM   12  C   UNL     1       4.831  27.806  54.335  1.00  0.00     0.030 A 
HETATM   13  C   UNL     1       5.010  26.575  53.690  1.00  0.00     0.010 A 
HETATM   14  C   UNL     1       6.100  25.753  54.005  1.00  0.00    -0.049 A 
HETATM   15  C   UNL     1       7.021  26.196  54.959  1.00  0.00     0.010 A 
HETATM   16  C   UNL     1       6.840  27.425  55.600  1.00  0.00     0.030 A 
BRANCH  14  17
HETATM   17  C   UNL     1       6.288  24.427  53.311  1.00  0.00     0.149 C 
BRANCH  17  18
HETATM   18  C   UNL     1       7.549  24.359  52.479  1.00  0.00     0.263 C 
HETATM   19  O   UNL     1       7.859  25.113  51.568  1.00  0.00    -0.265 OA
BRANCH  18  20
HETATM   20  O   UNL     1       8.356  23.346  52.928  1.00  0.00    -0.316 OA
BRANCH  20  21
HETATM   21  C   UNL     1       7.893  22.676  54.114  1.00  0.00     0.135 C 
HETATM   22  C   UNL     1       7.850  21.165  53.892  1.00  0.00     0.060 C 
HETATM   23  C   UNL     1       7.458  20.443  55.168  1.00  0.00     0.237 C 
HETATM   24  N   UNL     1       8.386  20.811  56.303  1.00  0.00    -0.075 N 
HETATM   25  C   UNL     1       9.727  20.129  56.233  1.00  0.00     0.269 C 
HETATM   26  C   UNL     1       8.472  22.301  56.527  1.00  0.00     0.237 C 
HETATM   27  H   UNL     1       7.946  20.429  57.152  1.00  0.00     0.279 HD
HETATM   28  C   UNL     1       8.856  23.022  55.248  1.00  0.00     0.060 C 
ENDBRANCH  20  21
ENDBRANCH  18  20
ENDBRANCH  17  18
ENDBRANCH  14  17
ENDBRANCH   8  11
ENDBRANCH   1   7
BRANCH   5  29
HETATM   29  C   UNL     1       6.764  32.227  60.004  1.00  0.00    -0.017 A 
HETATM   30  C   UNL     1       6.388  32.699  61.286  1.00  0.00     0.030 A 
HETATM   31  C   UNL     1       7.267  32.643  62.378  1.00  0.00     0.033 A 
HETATM   32  C   UNL     1       8.523  32.063  62.220  1.00  0.00     0.017 A 
HETATM   33  C   UNL     1       8.910  31.574  60.977  1.00  0.00     0.011 A 
HETATM   34  C   UNL     1       8.074  31.692  59.845  1.00  0.00    -0.020 A 
BRANCH  31  35
HETATM   35  C   UNL     1       6.955  33.277  63.688  1.00  0.00     0.256 C 
HETATM   36  O   UNL     1       7.855  33.361  64.515  1.00  0.00    -0.267 OA
HETATM   37  N   UNL     1       5.652  33.705  63.860  1.00  0.00    -0.320 N 
HETATM   38  H   UNL     1       4.962  33.429  63.170  1.00  0.00     0.169 HD
BRANCH  37  39
HETATM   39  C   UNL     1       5.140  34.406  64.979  1.00  0.00     0.076 A 
HETATM   40  C   UNL     1       4.757  33.802  66.175  1.00  0.00     0.052 A 
HETATM   41  C   UNL     1       4.279  34.604  67.204  1.00  0.00     0.118 A 
HETATM   42  N   UNL     1       4.161  35.948  67.123  1.00  0.00    -0.270 NA
HETATM   43  C   UNL     1       4.542  36.514  65.955  1.00  0.00     0.160 A 
HETATM   44  C   UNL     1       5.031  35.794  64.880  1.00  0.00     0.160 A 
HETATM   45  F   UNL     1       5.396  36.423  63.753  1.00  0.00    -0.202 F 
ENDBRANCH  37  39
ENDBRANCH  31  35
BRANCH  34  46
HETATM   46  C   UNL     1       8.611  31.224  58.503  1.00  0.00     0.306 C 
BRANCH  46  47
HETATM   47  N   UNL     1       9.874  30.490  58.602  1.00  0.00     0.082 N 
HETATM   48  H   UNL     1       9.747  29.568  58.187  1.00  0.00     0.313 HD
HETATM   49  H   UNL     1      10.092  30.336  59.584  1.00  0.00     0.313 HD
ENDBRANCH  46  47
ENDBRANCH  34  46
ENDBRANCH   5  29
TORSDOF 11
ENDMDL
