MODEL 1
REMARK VINA RESULT:      -9.6      0.000      0.000
REMARK  4 active torsions:
REMARK  status: ('A' for Active; 'I' for Inactive)
REMARK    1  A    between atoms: C_3  and  C_4 
REMARK    2  A    between atoms: C_4  and  N_5 
REMARK    3  A    between atoms: N_8  and  C_10 
REMARK    4  A    between atoms: C_10  and  C_11 
ROOT
HETATM    1  N   UNL     1       7.531  28.277  56.688  1.00  0.00    -0.405 N 
HETATM    2  C   UNL     1       7.542  26.813  56.751  1.00  0.00     0.150 C 
HETATM    3  C   UNL     1       6.379  25.985  56.148  1.00  0.00     0.206 C 
HETATM    4  N   UNL     1       6.327  26.010  54.619  1.00  0.00    -0.061 N 
HETATM    5  H   UNL     1       5.647  25.274  54.392  1.00  0.00     0.280 HD
HETATM    6  C   UNL     1       5.755  27.268  54.025  1.00  0.00     0.242 C 
HETATM    7  C   UNL     1       5.507  28.339  55.075  1.00  0.00     0.029 C 
HETATM    8  C   UNL     1       6.836  28.927  55.584  1.00  0.00     0.123 C 
HETATM    9  C   UNL     1       5.012  26.428  56.681  1.00  0.00     0.035 C 
HETATM   10  C   UNL     1       4.585  27.806  56.173  1.00  0.00     0.010 C 
ENDROOT
BRANCH   4  11
HETATM   11  C   UNL     1       7.582  25.554  53.902  1.00  0.00     0.274 C 
BRANCH  11  12
HETATM   12  C   UNL     1       7.819  24.073  53.995  1.00  0.00    -0.032 A 
HETATM   13  C   UNL     1       8.140  23.501  55.244  1.00  0.00     0.022 A 
HETATM   14  C   UNL     1       8.338  22.111  55.348  1.00  0.00    -0.008 A 
HETATM   15  C   UNL     1       8.222  21.329  54.202  1.00  0.00     0.042 A 
HETATM   16  C   UNL     1       8.638  21.237  56.428  1.00  0.00     0.030 A 
HETATM   17  N   UNL     1       8.442  20.022  54.580  1.00  0.00    -0.365 N 
HETATM   18  C   UNL     1       7.919  21.869  52.948  1.00  0.00     0.031 A 
HETATM   19  H   UNL     1       8.407  19.226  53.956  1.00  0.00     0.165 HD
HETATM   20  C   UNL     1       8.693  19.958  55.925  1.00  0.00     0.089 A 
HETATM   21  C   UNL     1       7.717  23.251  52.865  1.00  0.00     0.011 A 
ENDBRANCH  11  12
ENDBRANCH   4  11
BRANCH   1  22
HETATM   22  C   UNL     1       7.273  28.936  57.989  1.00  0.00     0.176 C 
BRANCH  22  23
HETATM   23  C   UNL     1       8.285  29.995  58.386  1.00  0.00     0.051 A 
HETATM   24  C   UNL     1       9.502  30.104  57.716  1.00  0.00     0.029 A 
HETATM   25  C   UNL     1      10.385  31.115  58.091  1.00  0.00     0.003 A 
HETATM   26  C   UNL     1      10.027  31.988  59.110  1.00  0.00     0.019 A 
HETATM   27  C   UNL     1       8.803  31.806  59.730  1.00  0.00     0.117 A 
HETATM   28  N   UNL     1       7.934  30.823  59.403  1.00  0.00    -0.264 NA
ENDBRANCH  22  23
ENDBRANCH   1  22
TORSDOF 4
ENDMDL
MODEL 2
REMARK VINA RESULT:      -9.5      1.404      2.323
REMARK  4 active torsions:
REMARK  status: ('A' for Active; 'I' for Inactive)
REMARK    1  A    between atoms: C_3  and  C_4 
REMARK    2  A    between atoms: C_4  and  N_5 
REMARK    3  A    between atoms: N_8  and  C_10 
REMARK    4  A    between atoms: C_10  and  C_11 
ROOT
HETATM    1  N   UNL     1       7.918  29.171  57.500  1.00  0.00    -0.405 N 
HETATM    2  C   UNL     1       7.284  27.954  58.014  1.00  0.00     0.150 C 
HETATM    3  C   UNL     1       6.423  27.056  57.089  1.00  0.00     0.206 C 
HETATM    4  N   UNL     1       7.231  26.299  56.033  1.00  0.00    -0.061 N 
HETATM    5  H   UNL     1       6.554  25.623  55.656  1.00  0.00     0.280 HD
HETATM    6  C   UNL     1       7.661  27.124  54.852  1.00  0.00     0.242 C 
HETATM    7  C   UNL     1       7.352  28.601  55.038  1.00  0.00     0.029 C 
HETATM    8  C   UNL     1       8.284  29.229  56.090  1.00  0.00     0.123 C 
HETATM    9  C   UNL     1       5.321  27.845  56.374  1.00  0.00     0.035 C 
HETATM   10  C   UNL     1       5.859  28.802  55.309  1.00  0.00     0.010 C 
ENDROOT
BRANCH   4  11
HETATM   11  C   UNL     1       8.346  25.415  56.555  1.00  0.00     0.274 C 
BRANCH  11  12
HETATM   12  C   UNL     1       8.277  24.002  56.049  1.00  0.00    -0.032 A 
HETATM   13  C   UNL     1       8.117  23.769  54.668  1.00  0.00     0.022 A 
HETATM   14  C   UNL     1       8.078  22.450  54.179  1.00  0.00    -0.008 A 
HETATM   15  C   UNL     1       8.189  21.396  55.083  1.00  0.00     0.042 A 
HETATM   16  C   UNL     1       7.959  21.883  52.881  1.00  0.00     0.030 A 
HETATM   17  N   UNL     1       8.141  20.229  54.352  1.00  0.00    -0.365 N 
HETATM   18  C   UNL     1       8.335  21.595  56.460  1.00  0.00     0.031 A 
HETATM   19  H   UNL     1       8.213  19.298  54.742  1.00  0.00     0.165 HD
HETATM   20  C   UNL     1       8.002  20.515  53.019  1.00  0.00     0.089 A 
HETATM   21  C   UNL     1       8.380  22.914  56.926  1.00  0.00     0.011 A 
ENDBRANCH  11  12
ENDBRANCH   4  11
BRANCH   1  22
HETATM   22  C   UNL     1       7.292  30.426  57.977  1.00  0.00     0.176 C 
BRANCH  22  23
HETATM   23  C   UNL     1       7.840  30.959  59.288  1.00  0.00     0.051 A 
HETATM   24  C   UNL     1       7.358  32.148  59.832  1.00  0.00     0.029 A 
HETATM   25  C   UNL     1       7.864  32.579  61.055  1.00  0.00     0.003 A 
HETATM   26  C   UNL     1       8.824  31.813  61.703  1.00  0.00     0.019 A 
HETATM   27  C   UNL     1       9.256  30.649  61.092  1.00  0.00     0.117 A 
HETATM   28  N   UNL     1       8.799  30.214  59.895  1.00  0.00    -0.264 NA
ENDBRANCH  22  23
ENDBRANCH   1  22
TORSDOF 4
ENDMDL
MODEL 3
REMARK VINA RESULT:      -9.3      1.308      8.451
REMARK  4 active torsions:
REMARK  status: ('A' for Active; 'I' for Inactive)
REMARK    1  A    between atoms: C_3  and  C_4 
REMARK    2  A    between atoms: C_4  and  N_5 
REMARK    3  A    between atoms: N_8  and  C_10 
REMARK    4  A    between atoms: C_10  and  C_11 
ROOT
HETATM    1  N   UNL     1       7.671  24.879  54.838  1.00  0.00    -0.405 N 
HETATM    2  C   UNL     1       7.269  26.247  54.501  1.00  0.00     0.150 C 
HETATM    3  C   UNL     1       6.509  27.125  55.528  1.00  0.00     0.206 C 
HETATM    4  N   UNL     1       7.364  27.571  56.716  1.00  0.00    -0.061 N 
HETATM    5  H   UNL     1       6.782  28.285  57.172  1.00  0.00     0.280 HD
HETATM    6  C   UNL     1       7.588  26.518  57.765  1.00  0.00     0.242 C 
HETATM    7  C   UNL     1       7.061  25.158  57.339  1.00  0.00     0.029 C 
HETATM    8  C   UNL     1       7.942  24.549  56.232  1.00  0.00     0.123 C 
HETATM    9  C   UNL     1       5.256  26.431  56.073  1.00  0.00     0.035 C 
HETATM   10  C   UNL     1       5.574  25.249  56.990  1.00  0.00     0.010 C 
ENDROOT
BRANCH   4  11
HETATM   11  C   UNL     1       8.633  28.326  56.376  1.00  0.00     0.274 C 
BRANCH  11  12
HETATM   12  C   UNL     1       8.931  29.454  57.324  1.00  0.00    -0.032 A 
HETATM   13  C   UNL     1       7.993  29.781  58.325  1.00  0.00     0.022 A 
HETATM   14  C   UNL     1       8.272  30.818  59.236  1.00  0.00    -0.008 A 
HETATM   15  C   UNL     1       9.476  31.509  59.117  1.00  0.00     0.042 A 
HETATM   16  C   UNL     1       7.577  31.367  60.347  1.00  0.00     0.030 A 
HETATM   17  N   UNL     1       9.506  32.445  60.127  1.00  0.00    -0.365 N 
HETATM   18  C   UNL     1      10.419  31.217  58.126  1.00  0.00     0.031 A 
HETATM   19  H   UNL     1      10.270  33.087  60.299  1.00  0.00     0.165 HD
HETATM   20  C   UNL     1       8.362  32.366  60.877  1.00  0.00     0.089 A 
HETATM   21  C   UNL     1      10.127  30.178  57.235  1.00  0.00     0.011 A 
ENDBRANCH  11  12
ENDBRANCH   4  11
BRANCH   1  22
HETATM   22  C   UNL     1       6.884  23.830  54.148  1.00  0.00     0.176 C 
BRANCH  22  23
HETATM   23  C   UNL     1       7.508  22.447  54.159  1.00  0.00     0.051 A 
HETATM   24  C   UNL     1       8.052  21.900  52.999  1.00  0.00     0.029 A 
HETATM   25  C   UNL     1       8.646  20.643  53.065  1.00  0.00     0.003 A 
HETATM   26  C   UNL     1       8.690  19.973  54.281  1.00  0.00     0.019 A 
HETATM   27  C   UNL     1       8.119  20.582  55.385  1.00  0.00     0.117 A 
HETATM   28  N   UNL     1       7.517  21.792  55.349  1.00  0.00    -0.264 NA
ENDBRANCH  22  23
ENDBRANCH   1  22
TORSDOF 4
ENDMDL
MODEL 4
REMARK VINA RESULT:      -9.1      2.136      2.996
REMARK  4 active torsions:
REMARK  status: ('A' for Active; 'I' for Inactive)
REMARK    1  A    between atoms: C_3  and  C_4 
REMARK    2  A    between atoms: C_4  and  N_5 
REMARK    3  A    between atoms: N_8  and  C_10 
REMARK    4  A    between atoms: C_10  and  C_11 
ROOT
HETATM    1  N   UNL     1       5.464  29.208  56.167  1.00  0.00    -0.405 N 
HETATM    2  C   UNL     1       5.952  28.665  54.896  1.00  0.00     0.150 C 
HETATM    3  C   UNL     1       7.333  27.965  54.812  1.00  0.00     0.206 C 
HETATM    4  N   UNL     1       7.384  26.608  55.517  1.00  0.00    -0.061 N 
HETATM    5  H   UNL     1       8.276  26.208  55.198  1.00  0.00     0.280 HD
HETATM    6  C   UNL     1       7.498  26.676  57.014  1.00  0.00     0.242 C 
HETATM    7  C   UNL     1       7.358  28.095  57.539  1.00  0.00     0.029 C 
HETATM    8  C   UNL     1       5.905  28.588  57.411  1.00  0.00     0.123 C 
HETATM    9  C   UNL     1       8.463  28.837  55.369  1.00  0.00     0.035 C 
HETATM   10  C   UNL     1       8.399  29.009  56.887  1.00  0.00     0.010 C 
ENDROOT
BRANCH   4  11
HETATM   11  C   UNL     1       6.365  25.582  55.062  1.00  0.00     0.274 C 
BRANCH  11  12
HETATM   12  C   UNL     1       6.980  24.287  54.610  1.00  0.00    -0.032 A 
HETATM   13  C   UNL     1       7.247  23.280  55.560  1.00  0.00     0.022 A 
HETATM   14  C   UNL     1       7.797  22.053  55.145  1.00  0.00    -0.008 A 
HETATM   15  C   UNL     1       8.076  21.866  53.793  1.00  0.00     0.042 A 
HETATM   16  C   UNL     1       8.153  20.854  55.820  1.00  0.00     0.030 A 
HETATM   17  N   UNL     1       8.582  20.591  53.657  1.00  0.00    -0.365 N 
HETATM   18  C   UNL     1       7.835  22.850  52.829  1.00  0.00     0.031 A 
HETATM   19  H   UNL     1       8.863  20.170  52.780  1.00  0.00     0.165 HD
HETATM   20  C   UNL     1       8.632  19.972  54.879  1.00  0.00     0.089 A 
HETATM   21  C   UNL     1       7.280  24.061  53.260  1.00  0.00     0.011 A 
ENDBRANCH  11  12
ENDBRANCH   4  11
BRANCH   1  22
HETATM   22  C   UNL     1       5.473  30.687  56.235  1.00  0.00     0.176 C 
BRANCH  22  23
HETATM   23  C   UNL     1       5.179  31.269  57.606  1.00  0.00     0.051 A 
HETATM   24  C   UNL     1       6.190  31.858  58.363  1.00  0.00     0.029 A 
HETATM   25  C   UNL     1       5.865  32.411  59.599  1.00  0.00     0.003 A 
HETATM   26  C   UNL     1       4.549  32.371  60.039  1.00  0.00     0.019 A 
HETATM   27  C   UNL     1       3.606  31.760  59.230  1.00  0.00     0.117 A 
HETATM   28  N   UNL     1       3.893  31.196  58.035  1.00  0.00    -0.264 NA
ENDBRANCH  22  23
ENDBRANCH   1  22
TORSDOF 4
ENDMDL
MODEL 5
REMARK VINA RESULT:      -9.1      1.496      8.201
REMARK  4 active torsions:
REMARK  status: ('A' for Active; 'I' for Inactive)
REMARK    1  A    between atoms: C_3  and  C_4 
REMARK    2  A    between atoms: C_4  and  N_5 
REMARK    3  A    between atoms: N_8  and  C_10 
REMARK    4  A    between atoms: C_10  and  C_11 
ROOT
HETATM    1  N   UNL     1       6.727  25.178  54.654  1.00  0.00    -0.405 N 
HETATM    2  C   UNL     1       7.493  26.282  55.238  1.00  0.00     0.150 C 
HETATM    3  C   UNL     1       7.184  27.752  54.853  1.00  0.00     0.206 C 
HETATM    4  N   UNL     1       5.850  28.268  55.396  1.00  0.00    -0.061 N 
HETATM    5  H   UNL     1       5.901  29.281  55.226  1.00  0.00     0.280 HD
HETATM    6  C   UNL     1       4.637  27.803  54.640  1.00  0.00     0.242 C 
HETATM    7  C   UNL     1       4.977  26.761  53.588  1.00  0.00     0.029 C 
HETATM    8  C   UNL     1       5.349  25.418  54.244  1.00  0.00     0.123 C 
HETATM    9  C   UNL     1       7.202  27.972  53.337  1.00  0.00     0.035 C 
HETATM   10  C   UNL     1       6.027  27.307  52.618  1.00  0.00     0.010 C 
ENDROOT
BRANCH   4  11
HETATM   11  C   UNL     1       5.664  28.180  56.897  1.00  0.00     0.274 C 
BRANCH  11  12
HETATM   12  C   UNL     1       6.259  29.340  57.644  1.00  0.00    -0.032 A 
HETATM   13  C   UNL     1       7.550  29.217  58.197  1.00  0.00     0.022 A 
HETATM   14  C   UNL     1       8.129  30.306  58.876  1.00  0.00    -0.008 A 
HETATM   15  C   UNL     1       7.399  31.487  58.994  1.00  0.00     0.042 A 
HETATM   16  C   UNL     1       9.383  30.519  59.508  1.00  0.00     0.030 A 
HETATM   17  N   UNL     1       8.192  32.385  59.676  1.00  0.00    -0.365 N 
HETATM   18  C   UNL     1       6.111  31.634  58.470  1.00  0.00     0.031 A 
HETATM   19  H   UNL     1       7.928  33.337  59.898  1.00  0.00     0.165 HD
HETATM   20  C   UNL     1       9.394  31.808  59.990  1.00  0.00     0.089 A 
HETATM   21  C   UNL     1       5.556  30.543  57.791  1.00  0.00     0.011 A 
ENDBRANCH  11  12
ENDBRANCH   4  11
BRANCH   1  22
HETATM   22  C   UNL     1       7.483  24.376  53.663  1.00  0.00     0.176 C 
BRANCH  22  23
HETATM   23  C   UNL     1       7.658  22.911  54.020  1.00  0.00     0.051 A 
HETATM   24  C   UNL     1       7.901  21.960  53.032  1.00  0.00     0.029 A 
HETATM   25  C   UNL     1       8.092  20.634  53.411  1.00  0.00     0.003 A 
HETATM   26  C   UNL     1       8.043  20.296  54.757  1.00  0.00     0.019 A 
HETATM   27  C   UNL     1       7.787  21.300  55.676  1.00  0.00     0.117 A 
HETATM   28  N   UNL     1       7.579  22.593  55.338  1.00  0.00    -0.264 NA
ENDBRANCH  22  23
ENDBRANCH   1  22
TORSDOF 4
ENDMDL
MODEL 6
REMARK VINA RESULT:      -9.0      2.569      5.310
REMARK  4 active torsions:
REMARK  status: ('A' for Active; 'I' for Inactive)
REMARK    1  A    between atoms: C_3  and  C_4 
REMARK    2  A    between atoms: C_4  and  N_5 
REMARK    3  A    between atoms: N_8  and  C_10 
REMARK    4  A    between atoms: C_10  and  C_11 
ROOT
HETATM    1  N   UNL     1       6.257  26.763  54.309  1.00  0.00    -0.405 N 
HETATM    2  C   UNL     1       7.367  27.365  55.051  1.00  0.00     0.150 C 
HETATM    3  C   UNL     1       7.368  27.381  56.601  1.00  0.00     0.206 C 
HETATM    4  N   UNL     1       7.572  26.004  57.236  1.00  0.00    -0.061 N 
HETATM    5  H   UNL     1       7.744  26.222  58.225  1.00  0.00     0.280 HD
HETATM    6  C   UNL     1       6.356  25.120  57.234  1.00  0.00     0.242 C 
HETATM    7  C   UNL     1       5.210  25.718  56.435  1.00  0.00     0.029 C 
HETATM    8  C   UNL     1       5.510  25.672  54.925  1.00  0.00     0.123 C 
HETATM    9  C   UNL     1       6.086  27.989  57.178  1.00  0.00     0.035 C 
HETATM   10  C   UNL     1       4.854  27.107  56.971  1.00  0.00     0.010 C 
ENDROOT
BRANCH   4  11
HETATM   11  C   UNL     1       8.826  25.260  56.823  1.00  0.00     0.274 C 
BRANCH  11  12
HETATM   12  C   UNL     1       8.553  23.897  56.251  1.00  0.00    -0.032 A 
HETATM   13  C   UNL     1       8.402  23.749  54.857  1.00  0.00     0.022 A 
HETATM   14  C   UNL     1       8.173  22.474  54.308  1.00  0.00    -0.008 A 
HETATM   15  C   UNL     1       8.090  21.380  55.165  1.00  0.00     0.042 A 
HETATM   16  C   UNL     1       8.008  21.987  52.983  1.00  0.00     0.030 A 
HETATM   17  N   UNL     1       7.883  20.266  54.381  1.00  0.00    -0.365 N 
HETATM   18  C   UNL     1       8.222  21.496  56.553  1.00  0.00     0.031 A 
HETATM   19  H   UNL     1       7.797  19.319  54.730  1.00  0.00     0.165 HD
HETATM   20  C   UNL     1       7.833  20.624  53.059  1.00  0.00     0.089 A 
HETATM   21  C   UNL     1       8.457  22.771  57.080  1.00  0.00     0.011 A 
ENDBRANCH  11  12
ENDBRANCH   4  11
BRANCH   1  22
HETATM   22  C   UNL     1       5.376  27.745  53.636  1.00  0.00     0.176 C 
BRANCH  22  23
HETATM   23  C   UNL     1       5.301  27.612  52.125  1.00  0.00     0.051 A 
HETATM   24  C   UNL     1       5.081  26.372  51.529  1.00  0.00     0.029 A 
HETATM   25  C   UNL     1       4.983  26.304  50.141  1.00  0.00     0.003 A 
HETATM   26  C   UNL     1       5.098  27.468  49.392  1.00  0.00     0.019 A 
HETATM   27  C   UNL     1       5.325  28.659  50.062  1.00  0.00     0.117 A 
HETATM   28  N   UNL     1       5.444  28.755  51.406  1.00  0.00    -0.264 NA
ENDBRANCH  22  23
ENDBRANCH   1  22
TORSDOF 4
ENDMDL
MODEL 7
REMARK VINA RESULT:      -8.8      1.695      8.477
REMARK  4 active torsions:
REMARK  status: ('A' for Active; 'I' for Inactive)
REMARK    1  A    between atoms: C_3  and  C_4 
REMARK    2  A    between atoms: C_4  and  N_5 
REMARK    3  A    between atoms: N_8  and  C_10 
REMARK    4  A    between atoms: C_10  and  C_11 
ROOT
HETATM    1  N   UNL     1       7.033  26.326  55.505  1.00  0.00    -0.405 N 
HETATM    2  C   UNL     1       7.624  27.593  55.067  1.00  0.00     0.150 C 
HETATM    3  C   UNL     1       6.820  28.916  55.155  1.00  0.00     0.206 C 
HETATM    4  N   UNL     1       6.595  29.410  56.586  1.00  0.00    -0.061 N 
HETATM    5  H   UNL     1       6.238  30.365  56.453  1.00  0.00     0.280 HD
HETATM    6  C   UNL     1       5.515  28.689  57.342  1.00  0.00     0.242 C 
HETATM    7  C   UNL     1       4.983  27.486  56.581  1.00  0.00     0.029 C 
HETATM    8  C   UNL     1       6.022  26.349  56.555  1.00  0.00     0.123 C 
HETATM    9  C   UNL     1       5.457  28.815  54.463  1.00  0.00     0.035 C 
HETATM   10  C   UNL     1       4.471  27.911  55.204  1.00  0.00     0.010 C 
ENDROOT
BRANCH   4  11
HETATM   11  C   UNL     1       7.842  29.621  57.421  1.00  0.00     0.274 C 
BRANCH  11  12
HETATM   12  C   UNL     1       7.624  30.517  58.607  1.00  0.00    -0.032 A 
HETATM   13  C   UNL     1       8.376  30.305  59.781  1.00  0.00     0.022 A 
HETATM   14  C   UNL     1       8.200  31.154  60.890  1.00  0.00    -0.008 A 
HETATM   15  C   UNL     1       7.270  32.187  60.802  1.00  0.00     0.042 A 
HETATM   16  C   UNL     1       8.799  31.232  62.176  1.00  0.00     0.030 A 
HETATM   17  N   UNL     1       7.308  32.869  61.999  1.00  0.00    -0.365 N 
HETATM   18  C   UNL     1       6.499  32.414  59.657  1.00  0.00     0.031 A 
HETATM   19  H   UNL     1       6.747  33.682  62.221  1.00  0.00     0.165 HD
HETATM   20  C   UNL     1       8.231  32.298  62.836  1.00  0.00     0.089 A 
HETATM   21  C   UNL     1       6.695  31.564  58.562  1.00  0.00     0.011 A 
ENDBRANCH  11  12
ENDBRANCH   4  11
BRANCH   1  22
HETATM   22  C   UNL     1       6.681  25.408  54.397  1.00  0.00     0.176 C 
BRANCH  22  23
HETATM   23  C   UNL     1       7.504  24.134  54.333  1.00  0.00     0.051 A 
HETATM   24  C   UNL     1       7.430  23.292  53.225  1.00  0.00     0.029 A 
HETATM   25  C   UNL     1       8.230  22.153  53.194  1.00  0.00     0.003 A 
HETATM   26  C   UNL     1       9.084  21.892  54.257  1.00  0.00     0.019 A 
HETATM   27  C   UNL     1       9.092  22.774  55.324  1.00  0.00     0.117 A 
HETATM   28  N   UNL     1       8.313  23.877  55.393  1.00  0.00    -0.264 NA
ENDBRANCH  22  23
ENDBRANCH   1  22
TORSDOF 4
ENDMDL
MODEL 8
REMARK VINA RESULT:      -8.8      2.495      4.007
REMARK  4 active torsions:
REMARK  status: ('A' for Active; 'I' for Inactive)
REMARK    1  A    between atoms: C_3  and  C_4 
REMARK    2  A    between atoms: C_4  and  N_5 
REMARK    3  A    between atoms: N_8  and  C_10 
REMARK    4  A    between atoms: C_10  and  C_11 
ROOT
HETATM    1  N   UNL     1       5.711  29.301  56.318  1.00  0.00    -0.405 N 
HETATM    2  C   UNL     1       6.109  28.780  55.007  1.00  0.00     0.150 C 
HETATM    3  C   UNL     1       7.477  28.075  54.817  1.00  0.00     0.206 C 
HETATM    4  N   UNL     1       7.567  26.705  55.491  1.00  0.00    -0.061 N 
HETATM    5  H   UNL     1       8.433  26.307  55.105  1.00  0.00     0.280 HD
HETATM    6  C   UNL     1       7.781  26.744  56.979  1.00  0.00     0.242 C 
HETATM    7  C   UNL     1       7.686  28.154  57.538  1.00  0.00     0.029 C 
HETATM    8  C   UNL     1       6.230  28.655  57.517  1.00  0.00     0.123 C 
HETATM    9  C   UNL     1       8.647  28.931  55.313  1.00  0.00     0.035 C 
HETATM   10  C   UNL     1       8.686  29.074  56.835  1.00  0.00     0.010 C 
ENDROOT
BRANCH   4  11
HETATM   11  C   UNL     1       6.513  25.693  55.086  1.00  0.00     0.274 C 
BRANCH  11  12
HETATM   12  C   UNL     1       7.086  24.378  54.638  1.00  0.00    -0.032 A 
HETATM   13  C   UNL     1       7.263  23.344  55.580  1.00  0.00     0.022 A 
HETATM   14  C   UNL     1       7.774  22.099  55.166  1.00  0.00    -0.008 A 
HETATM   15  C   UNL     1       8.105  21.922  53.825  1.00  0.00     0.042 A 
HETATM   16  C   UNL     1       8.041  20.873  55.833  1.00  0.00     0.030 A 
HETATM   17  N   UNL     1       8.557  20.627  53.688  1.00  0.00    -0.365 N 
HETATM   18  C   UNL     1       7.955  22.933  52.871  1.00  0.00     0.031 A 
HETATM   19  H   UNL     1       8.857  20.208  52.816  1.00  0.00     0.165 HD
HETATM   20  C   UNL     1       8.521  19.985  54.898  1.00  0.00     0.089 A 
HETATM   21  C   UNL     1       7.438  24.161  53.299  1.00  0.00     0.011 A 
ENDBRANCH  11  12
ENDBRANCH   4  11
BRANCH   1  22
HETATM   22  C   UNL     1       5.733  30.779  56.413  1.00  0.00     0.176 C 
BRANCH  22  23
HETATM   23  C   UNL     1       4.563  31.484  55.752  1.00  0.00     0.051 A 
HETATM   24  C   UNL     1       3.251  31.118  56.046  1.00  0.00     0.029 A 
HETATM   25  C   UNL     1       2.209  31.817  55.443  1.00  0.00     0.003 A 
HETATM   26  C   UNL     1       2.501  32.861  54.576  1.00  0.00     0.019 A 
HETATM   27  C   UNL     1       3.831  33.157  54.330  1.00  0.00     0.117 A 
HETATM   28  N   UNL     1       4.865  32.484  54.884  1.00  0.00    -0.264 NA
ENDBRANCH  22  23
ENDBRANCH   1  22
TORSDOF 4
ENDMDL
MODEL 9
REMARK VINA RESULT:      -8.7      2.890      5.381
REMARK  4 active torsions:
REMARK  status: ('A' for Active; 'I' for Inactive)
REMARK    1  A    between atoms: C_3  and  C_4 
REMARK    2  A    between atoms: C_4  and  N_5 
REMARK    3  A    between atoms: N_8  and  C_10 
REMARK    4  A    between atoms: C_10  and  C_11 
ROOT
HETATM    1  N   UNL     1       4.743  28.143  53.117  1.00  0.00    -0.405 N 
HETATM    2  C   UNL     1       5.829  27.372  52.505  1.00  0.00     0.150 C 
HETATM    3  C   UNL     1       7.067  26.949  53.337  1.00  0.00     0.206 C 
HETATM    4  N   UNL     1       6.771  25.874  54.385  1.00  0.00    -0.061 N 
HETATM    5  H   UNL     1       7.707  25.577  54.691  1.00  0.00     0.280 HD
HETATM    6  C   UNL     1       6.091  26.373  55.630  1.00  0.00     0.242 C 
HETATM    7  C   UNL     1       5.673  27.830  55.513  1.00  0.00     0.029 C 
HETATM    8  C   UNL     1       4.487  27.985  54.543  1.00  0.00     0.123 C 
HETATM    9  C   UNL     1       7.728  28.137  54.043  1.00  0.00     0.035 C 
HETATM   10  C   UNL     1       6.883  28.706  55.184  1.00  0.00     0.010 C 
ENDROOT
BRANCH   4  11
HETATM   11  C   UNL     1       6.155  24.590  53.867  1.00  0.00     0.274 C 
BRANCH  11  12
HETATM   12  C   UNL     1       7.013  23.378  54.097  1.00  0.00    -0.032 A 
HETATM   13  C   UNL     1       7.275  22.957  55.417  1.00  0.00     0.022 A 
HETATM   14  C   UNL     1       8.055  21.807  55.645  1.00  0.00    -0.008 A 
HETATM   15  C   UNL     1       8.563  21.114  54.549  1.00  0.00     0.042 A 
HETATM   16  C   UNL     1       8.472  21.116  56.814  1.00  0.00     0.030 A 
HETATM   17  N   UNL     1       9.264  20.035  55.043  1.00  0.00    -0.365 N 
HETATM   18  C   UNL     1       8.333  21.515  53.229  1.00  0.00     0.031 A 
HETATM   19  H   UNL     1       9.734  19.341  54.475  1.00  0.00     0.165 HD
HETATM   20  C   UNL     1       9.214  20.028  56.412  1.00  0.00     0.089 A 
HETATM   21  C   UNL     1       7.548  22.656  53.023  1.00  0.00     0.011 A 
ENDBRANCH  11  12
ENDBRANCH   4  11
BRANCH   1  22
HETATM   22  C   UNL     1       4.688  29.558  52.683  1.00  0.00     0.176 C 
BRANCH  22  23
HETATM   23  C   UNL     1       4.739  29.772  51.181  1.00  0.00     0.051 A 
HETATM   24  C   UNL     1       3.668  29.401  50.370  1.00  0.00     0.029 A 
HETATM   25  C   UNL     1       3.744  29.651  49.003  1.00  0.00     0.003 A 
HETATM   26  C   UNL     1       4.876  30.267  48.485  1.00  0.00     0.019 A 
HETATM   27  C   UNL     1       5.900  30.597  49.357  1.00  0.00     0.117 A 
HETATM   28  N   UNL     1       5.864  30.350  50.686  1.00  0.00    -0.264 NA
ENDBRANCH  22  23
ENDBRANCH   1  22
TORSDOF 4
ENDMDL
MODEL 10
REMARK VINA RESULT:      -8.7      4.312      8.566
REMARK  4 active torsions:
REMARK  status: ('A' for Active; 'I' for Inactive)
REMARK    1  A    between atoms: C_3  and  C_4 
REMARK    2  A    between atoms: C_4  and  N_5 
REMARK    3  A    between atoms: N_8  and  C_10 
REMARK    4  A    between atoms: C_10  and  C_11 
ROOT
HETATM    1  N   UNL     1       6.993  24.653  53.430  1.00  0.00    -0.405 N 
HETATM    2  C   UNL     1       5.597  24.748  52.994  1.00  0.00     0.150 C 
HETATM    3  C   UNL     1       4.827  26.090  53.086  1.00  0.00     0.206 C 
HETATM    4  N   UNL     1       5.306  27.150  52.092  1.00  0.00    -0.061 N 
HETATM    5  H   UNL     1       4.580  27.875  52.149  1.00  0.00     0.280 HD
HETATM    6  C   UNL     1       6.585  27.843  52.472  1.00  0.00     0.242 C 
HETATM    7  C   UNL     1       7.239  27.217  53.693  1.00  0.00     0.029 C 
HETATM    8  C   UNL     1       7.836  25.839  53.350  1.00  0.00     0.123 C 
HETATM    9  C   UNL     1       4.880  26.695  54.493  1.00  0.00     0.035 C 
HETATM   10  C   UNL     1       6.267  27.213  54.875  1.00  0.00     0.010 C 
ENDROOT
BRANCH   4  11
HETATM   11  C   UNL     1       5.280  26.750  50.630  1.00  0.00     0.274 C 
BRANCH  11  12
HETATM   12  C   UNL     1       4.111  27.318  49.875  1.00  0.00    -0.032 A 
HETATM   13  C   UNL     1       3.610  26.625  48.754  1.00  0.00     0.022 A 
HETATM   14  C   UNL     1       2.498  27.133  48.055  1.00  0.00    -0.008 A 
HETATM   15  C   UNL     1       1.923  28.326  48.486  1.00  0.00     0.042 A 
HETATM   16  C   UNL     1       1.749  26.683  46.935  1.00  0.00     0.030 A 
HETATM   17  N   UNL     1       0.857  28.585  47.652  1.00  0.00    -0.365 N 
HETATM   18  C   UNL     1       2.406  29.043  49.585  1.00  0.00     0.031 A 
HETATM   19  H   UNL     1       0.239  29.383  47.734  1.00  0.00     0.165 HD
HETATM   20  C   UNL     1       0.744  27.596  46.711  1.00  0.00     0.089 A 
HETATM   21  C   UNL     1       3.506  28.518  50.273  1.00  0.00     0.011 A 
ENDBRANCH  11  12
ENDBRANCH   4  11
BRANCH   1  22
HETATM   22  C   UNL     1       7.181  23.907  54.696  1.00  0.00     0.176 C 
BRANCH  22  23
HETATM   23  C   UNL     1       7.690  22.486  54.535  1.00  0.00     0.051 A 
HETATM   24  C   UNL     1       8.063  21.999  53.284  1.00  0.00     0.029 A 
HETATM   25  C   UNL     1       8.559  20.701  53.190  1.00  0.00     0.003 A 
HETATM   26  C   UNL     1       8.677  19.932  54.341  1.00  0.00     0.019 A 
HETATM   27  C   UNL     1       8.276  20.487  55.544  1.00  0.00     0.117 A 
HETATM   28  N   UNL     1       7.772  21.737  55.665  1.00  0.00    -0.264 NA
ENDBRANCH  22  23
ENDBRANCH   1  22
TORSDOF 4
ENDMDL
