MODEL 1
REMARK VINA RESULT:      -9.1      0.000      0.000
REMARK  8 active torsions:
REMARK  status: ('A' for Active; 'I' for Inactive)
REMARK    1  A    between atoms: C_2  and  O_3 
REMARK    2  A    between atoms: C_2  and  C_4 
REMARK    3  A    between atoms: C_4  and  N_5 
REMARK       I    between atoms: N_5  and  C_6 
REMARK    4  A    between atoms: C_6  and  C_7 
REMARK    5  A    between atoms: C_10  and  O_11 
REMARK    6  A    between atoms: O_11  and  C_12 
REMARK    7  A    between atoms: C_15  and  O_16 
REMARK    8  A    between atoms: O_16  and  C_17 
ROOT
HETATM    1  C   UNL     1       6.936  30.100  57.856  1.00  0.00     0.049 A 
HETATM    2  C   UNL     1       6.231  30.673  56.806  1.00  0.00     0.136 A 
HETATM    3  N   UNL     1       5.628  29.967  55.818  1.00  0.00    -0.236 NA
HETATM    4  C   UNL     1       5.748  28.621  55.874  1.00  0.00     0.169 A 
HETATM    5  C   UNL     1       6.479  27.954  56.844  1.00  0.00     0.059 A 
HETATM    6  C   UNL     1       7.074  28.707  57.855  1.00  0.00     0.023 A 
ENDROOT
BRANCH   4   7
HETATM    7  O   UNL     1       5.174  27.845  54.880  1.00  0.00    -0.292 OA
BRANCH   7   8
HETATM    8  C   UNL     1       5.938  26.851  54.312  1.00  0.00     0.078 A 
HETATM    9  C   UNL     1       5.387  25.568  54.338  1.00  0.00     0.040 A 
HETATM   10  C   UNL     1       6.056  24.503  53.731  1.00  0.00     0.040 A 
HETATM   11  C   UNL     1       7.270  24.720  53.075  1.00  0.00     0.076 A 
HETATM   12  C   UNL     1       7.829  26.000  53.057  1.00  0.00     0.040 A 
HETATM   13  C   UNL     1       7.154  27.067  53.655  1.00  0.00     0.040 A 
BRANCH  11  14
HETATM   14  O   UNL     1       7.874  23.605  52.535  1.00  0.00    -0.311 OA
BRANCH  14  15
HETATM   15  C   UNL     1       8.188  22.566  53.378  1.00  0.00     0.076 A 
HETATM   16  C   UNL     1       7.949  21.272  52.913  1.00  0.00     0.037 A 
HETATM   17  C   UNL     1       8.278  20.177  53.711  1.00  0.00     0.003 A 
HETATM   18  C   UNL     1       8.858  20.376  54.964  1.00  0.00     0.000 A 
HETATM   19  C   UNL     1       9.121  21.670  55.416  1.00  0.00     0.003 A 
HETATM   20  C   UNL     1       8.796  22.768  54.619  1.00  0.00     0.037 A 
ENDBRANCH  14  15
ENDBRANCH  11  14
ENDBRANCH   7   8
ENDBRANCH   4   7
BRANCH   1  21
HETATM   21  C   UNL     1       7.552  30.885  58.957  1.00  0.00     0.253 C 
HETATM   22  N   UNL     1       8.058  30.186  60.035  1.00  0.00    -0.354 N 
HETATM   23  H   UNL     1       8.193  29.188  59.956  1.00  0.00     0.162 HD
HETATM   24  O   UNL     1       7.617  32.105  58.860  1.00  0.00    -0.268 OA
BRANCH  22  25
HETATM   25  C   UNL     1       8.855  30.846  61.059  1.00  0.00     0.154 C 
BRANCH  25  26
HETATM   26  C   UNL     1       8.174  31.052  62.422  1.00  0.00     0.132 C 
HETATM   27  C   UNL     1       8.356  32.465  62.962  1.00  0.00     0.041 C 
BRANCH  26  28
HETATM   28  O   UNL     1       6.772  30.811  62.259  1.00  0.00    -0.394 OA
HETATM   29  H   UNL     1       6.348  31.027  63.109  1.00  0.00     0.210 HD
ENDBRANCH  26  28
ENDBRANCH  25  26
ENDBRANCH  22  25
ENDBRANCH   1  21
TORSDOF 8
ENDMDL
MODEL 2
REMARK VINA RESULT:      -8.9      2.246      9.552
REMARK  8 active torsions:
REMARK  status: ('A' for Active; 'I' for Inactive)
REMARK    1  A    between atoms: C_2  and  O_3 
REMARK    2  A    between atoms: C_2  and  C_4 
REMARK    3  A    between atoms: C_4  and  N_5 
REMARK       I    between atoms: N_5  and  C_6 
REMARK    4  A    between atoms: C_6  and  C_7 
REMARK    5  A    between atoms: C_10  and  O_11 
REMARK    6  A    between atoms: O_11  and  C_12 
REMARK    7  A    between atoms: C_15  and  O_16 
REMARK    8  A    between atoms: O_16  and  C_17 
ROOT
HETATM    1  C   UNL     1       6.865  24.505  54.643  1.00  0.00     0.049 A 
HETATM    2  C   UNL     1       6.303  25.629  54.051  1.00  0.00     0.136 A 
HETATM    3  N   UNL     1       5.657  26.607  54.734  1.00  0.00    -0.236 NA
HETATM    4  C   UNL     1       5.556  26.446  56.074  1.00  0.00     0.169 A 
HETATM    5  C   UNL     1       6.029  25.335  56.753  1.00  0.00     0.059 A 
HETATM    6  C   UNL     1       6.702  24.355  56.024  1.00  0.00     0.023 A 
ENDROOT
BRANCH   4   7
HETATM    7  O   UNL     1       4.888  27.400  56.823  1.00  0.00    -0.292 OA
BRANCH   7   8
HETATM    8  C   UNL     1       5.597  28.500  57.251  1.00  0.00     0.078 A 
HETATM    9  C   UNL     1       4.873  29.690  57.352  1.00  0.00     0.040 A 
HETATM   10  C   UNL     1       5.486  30.848  57.836  1.00  0.00     0.040 A 
HETATM   11  C   UNL     1       6.821  30.815  58.244  1.00  0.00     0.076 A 
HETATM   12  C   UNL     1       7.551  29.629  58.136  1.00  0.00     0.040 A 
HETATM   13  C   UNL     1       6.933  28.469  57.660  1.00  0.00     0.040 A 
BRANCH  11  14
HETATM   14  O   UNL     1       7.352  32.011  58.677  1.00  0.00    -0.311 OA
BRANCH  14  15
HETATM   15  C   UNL     1       7.772  32.099  59.982  1.00  0.00     0.076 A 
HETATM   16  C   UNL     1       6.787  32.210  60.964  1.00  0.00     0.037 A 
HETATM   17  C   UNL     1       7.153  32.269  62.309  1.00  0.00     0.003 A 
HETATM   18  C   UNL     1       8.499  32.203  62.670  1.00  0.00     0.000 A 
HETATM   19  C   UNL     1       9.481  32.065  61.687  1.00  0.00     0.003 A 
HETATM   20  C   UNL     1       9.119  32.002  60.341  1.00  0.00     0.037 A 
ENDBRANCH  14  15
ENDBRANCH  11  14
ENDBRANCH   7   8
ENDBRANCH   4   7
BRANCH   1  21
HETATM   21  C   UNL     1       7.609  23.465  53.887  1.00  0.00     0.253 C 
HETATM   22  N   UNL     1       8.665  22.844  54.524  1.00  0.00    -0.354 N 
HETATM   23  H   UNL     1       8.767  22.947  55.524  1.00  0.00     0.162 HD
HETATM   24  O   UNL     1       7.248  23.175  52.752  1.00  0.00    -0.268 OA
BRANCH  22  25
HETATM   25  C   UNL     1       9.321  21.681  53.945  1.00  0.00     0.154 C 
BRANCH  25  26
HETATM   26  C   UNL     1       8.634  20.326  54.181  1.00  0.00     0.132 C 
HETATM   27  C   UNL     1       7.807  20.300  55.460  1.00  0.00     0.041 C 
BRANCH  26  28
HETATM   28  O   UNL     1       7.759  20.072  53.076  1.00  0.00    -0.394 OA
HETATM   29  H   UNL     1       7.980  19.187  52.738  1.00  0.00     0.210 HD
ENDBRANCH  26  28
ENDBRANCH  25  26
ENDBRANCH  22  25
ENDBRANCH   1  21
TORSDOF 8
ENDMDL
MODEL 3
REMARK VINA RESULT:      -8.7      2.285      4.133
REMARK  8 active torsions:
REMARK  status: ('A' for Active; 'I' for Inactive)
REMARK    1  A    between atoms: C_2  and  O_3 
REMARK    2  A    between atoms: C_2  and  C_4 
REMARK    3  A    between atoms: C_4  and  N_5 
REMARK       I    between atoms: N_5  and  C_6 
REMARK    4  A    between atoms: C_6  and  C_7 
REMARK    5  A    between atoms: C_10  and  O_11 
REMARK    6  A    between atoms: O_11  and  C_12 
REMARK    7  A    between atoms: C_15  and  O_16 
REMARK    8  A    between atoms: O_16  and  C_17 
ROOT
HETATM    1  C   UNL     1       6.899  32.153  60.842  1.00  0.00     0.049 A 
HETATM    2  C   UNL     1       6.735  32.221  59.465  1.00  0.00     0.136 A 
HETATM    3  N   UNL     1       7.439  31.477  58.577  1.00  0.00    -0.236 NA
HETATM    4  C   UNL     1       8.363  30.633  59.090  1.00  0.00     0.169 A 
HETATM    5  C   UNL     1       8.646  30.533  60.443  1.00  0.00     0.059 A 
HETATM    6  C   UNL     1       7.894  31.300  61.331  1.00  0.00     0.023 A 
ENDROOT
BRANCH   4   7
HETATM    7  O   UNL     1       9.131  29.862  58.233  1.00  0.00    -0.292 OA
BRANCH   7   8
HETATM    8  C   UNL     1       8.478  29.077  57.309  1.00  0.00     0.078 A 
HETATM    9  C   UNL     1       7.588  28.135  57.830  1.00  0.00     0.040 A 
HETATM   10  C   UNL     1       6.831  27.334  56.972  1.00  0.00     0.040 A 
HETATM   11  C   UNL     1       6.943  27.487  55.588  1.00  0.00     0.076 A 
HETATM   12  C   UNL     1       7.840  28.422  55.065  1.00  0.00     0.040 A 
HETATM   13  C   UNL     1       8.589  29.230  55.924  1.00  0.00     0.040 A 
BRANCH  11  14
HETATM   14  O   UNL     1       6.184  26.631  54.820  1.00  0.00    -0.311 OA
BRANCH  14  15
HETATM   15  C   UNL     1       6.829  25.627  54.139  1.00  0.00     0.076 A 
HETATM   16  C   UNL     1       6.939  24.391  54.777  1.00  0.00     0.037 A 
HETATM   17  C   UNL     1       7.555  23.325  54.120  1.00  0.00     0.003 A 
HETATM   18  C   UNL     1       8.044  23.492  52.824  1.00  0.00     0.000 A 
HETATM   19  C   UNL     1       7.908  24.721  52.178  1.00  0.00     0.003 A 
HETATM   20  C   UNL     1       7.290  25.789  52.830  1.00  0.00     0.037 A 
ENDBRANCH  14  15
ENDBRANCH  11  14
ENDBRANCH   7   8
ENDBRANCH   4   7
BRANCH   1  21
HETATM   21  C   UNL     1       6.087  32.942  61.805  1.00  0.00     0.253 C 
HETATM   22  N   UNL     1       5.771  32.348  63.011  1.00  0.00    -0.354 N 
HETATM   23  H   UNL     1       6.261  31.511  63.292  1.00  0.00     0.162 HD
HETATM   24  O   UNL     1       5.758  34.087  61.515  1.00  0.00    -0.268 OA
BRANCH  22  25
HETATM   25  C   UNL     1       5.158  33.108  64.091  1.00  0.00     0.154 C 
BRANCH  25  26
HETATM   26  C   UNL     1       6.106  33.980  64.931  1.00  0.00     0.132 C 
HETATM   27  C   UNL     1       7.550  33.499  64.877  1.00  0.00     0.041 C 
BRANCH  26  28
HETATM   28  O   UNL     1       6.058  35.314  64.415  1.00  0.00    -0.394 OA
HETATM   29  H   UNL     1       6.508  35.299  63.551  1.00  0.00     0.210 HD
ENDBRANCH  26  28
ENDBRANCH  25  26
ENDBRANCH  22  25
ENDBRANCH   1  21
TORSDOF 8
ENDMDL
MODEL 4
REMARK VINA RESULT:      -8.7      2.311      4.511
REMARK  8 active torsions:
REMARK  status: ('A' for Active; 'I' for Inactive)
REMARK    1  A    between atoms: C_2  and  O_3 
REMARK    2  A    between atoms: C_2  and  C_4 
REMARK    3  A    between atoms: C_4  and  N_5 
REMARK       I    between atoms: N_5  and  C_6 
REMARK    4  A    between atoms: C_6  and  C_7 
REMARK    5  A    between atoms: C_10  and  O_11 
REMARK    6  A    between atoms: O_11  and  C_12 
REMARK    7  A    between atoms: C_15  and  O_16 
REMARK    8  A    between atoms: O_16  and  C_17 
ROOT
HETATM    1  C   UNL     1       7.917  32.203  61.303  1.00  0.00     0.049 A 
HETATM    2  C   UNL     1       7.485  32.406  59.999  1.00  0.00     0.136 A 
HETATM    3  N   UNL     1       7.950  31.718  58.927  1.00  0.00    -0.236 NA
HETATM    4  C   UNL     1       8.905  30.791  59.168  1.00  0.00     0.169 A 
HETATM    5  C   UNL     1       9.446  30.553  60.422  1.00  0.00     0.059 A 
HETATM    6  C   UNL     1       8.936  31.266  61.505  1.00  0.00     0.023 A 
ENDROOT
BRANCH   4   7
HETATM    7  O   UNL     1       9.436  30.072  58.111  1.00  0.00    -0.292 OA
BRANCH   7   8
HETATM    8  C   UNL     1       8.586  29.273  57.380  1.00  0.00     0.078 A 
HETATM    9  C   UNL     1       8.710  29.360  55.991  1.00  0.00     0.040 A 
HETATM   10  C   UNL     1       7.937  28.543  55.163  1.00  0.00     0.040 A 
HETATM   11  C   UNL     1       7.051  27.618  55.720  1.00  0.00     0.076 A 
HETATM   12  C   UNL     1       6.917  27.536  57.109  1.00  0.00     0.040 A 
HETATM   13  C   UNL     1       7.699  28.346  57.936  1.00  0.00     0.040 A 
BRANCH  11  14
HETATM   14  O   UNL     1       6.306  26.879  54.827  1.00  0.00    -0.311 OA
BRANCH  14  15
HETATM   15  C   UNL     1       6.916  25.825  54.191  1.00  0.00     0.076 A 
HETATM   16  C   UNL     1       7.038  24.632  54.905  1.00  0.00     0.037 A 
HETATM   17  C   UNL     1       7.619  23.518  54.299  1.00  0.00     0.003 A 
HETATM   18  C   UNL     1       8.062  23.594  52.978  1.00  0.00     0.000 A 
HETATM   19  C   UNL     1       7.914  24.780  52.257  1.00  0.00     0.003 A 
HETATM   20  C   UNL     1       7.331  25.896  52.859  1.00  0.00     0.037 A 
ENDBRANCH  14  15
ENDBRANCH  11  14
ENDBRANCH   7   8
ENDBRANCH   4   7
BRANCH   1  21
HETATM   21  C   UNL     1       7.365  32.933  62.474  1.00  0.00     0.253 C 
HETATM   22  N   UNL     1       6.481  33.964  62.225  1.00  0.00    -0.354 N 
HETATM   23  H   UNL     1       6.074  34.053  61.305  1.00  0.00     0.162 HD
HETATM   24  O   UNL     1       7.684  32.582  63.604  1.00  0.00    -0.268 OA
BRANCH  22  25
HETATM   25  C   UNL     1       5.737  34.600  63.302  1.00  0.00     0.154 C 
BRANCH  25  26
HETATM   26  C   UNL     1       4.425  33.916  63.719  1.00  0.00     0.132 C 
HETATM   27  C   UNL     1       3.672  33.319  62.538  1.00  0.00     0.041 C 
BRANCH  26  28
HETATM   28  O   UNL     1       4.744  32.857  64.628  1.00  0.00    -0.394 OA
HETATM   29  H   UNL     1       5.501  32.377  64.247  1.00  0.00     0.210 HD
ENDBRANCH  26  28
ENDBRANCH  25  26
ENDBRANCH  22  25
ENDBRANCH   1  21
TORSDOF 8
ENDMDL
MODEL 5
REMARK VINA RESULT:      -8.6      2.013      2.529
REMARK  8 active torsions:
REMARK  status: ('A' for Active; 'I' for Inactive)
REMARK    1  A    between atoms: C_2  and  O_3 
REMARK    2  A    between atoms: C_2  and  C_4 
REMARK    3  A    between atoms: C_4  and  N_5 
REMARK       I    between atoms: N_5  and  C_6 
REMARK    4  A    between atoms: C_6  and  C_7 
REMARK    5  A    between atoms: C_10  and  O_11 
REMARK    6  A    between atoms: O_11  and  C_12 
REMARK    7  A    between atoms: C_15  and  O_16 
REMARK    8  A    between atoms: O_16  and  C_17 
ROOT
HETATM    1  C   UNL     1       7.926  30.906  59.018  1.00  0.00     0.049 A 
HETATM    2  C   UNL     1       6.840  30.537  58.235  1.00  0.00     0.136 A 
HETATM    3  N   UNL     1       6.922  29.718  57.157  1.00  0.00    -0.236 NA
HETATM    4  C   UNL     1       8.152  29.256  56.838  1.00  0.00     0.169 A 
HETATM    5  C   UNL     1       9.307  29.611  57.517  1.00  0.00     0.059 A 
HETATM    6  C   UNL     1       9.187  30.442  58.630  1.00  0.00     0.023 A 
ENDROOT
BRANCH   4   7
HETATM    7  O   UNL     1       8.304  28.433  55.734  1.00  0.00    -0.292 OA
BRANCH   7   8
HETATM    8  C   UNL     1       7.946  27.110  55.859  1.00  0.00     0.078 A 
HETATM    9  C   UNL     1       7.170  26.587  54.822  1.00  0.00     0.040 A 
HETATM   10  C   UNL     1       6.809  25.238  54.825  1.00  0.00     0.040 A 
HETATM   11  C   UNL     1       7.240  24.399  55.854  1.00  0.00     0.076 A 
HETATM   12  C   UNL     1       8.008  24.921  56.898  1.00  0.00     0.040 A 
HETATM   13  C   UNL     1       8.378  26.268  56.889  1.00  0.00     0.040 A 
BRANCH  11  14
HETATM   14  O   UNL     1       6.808  23.092  55.792  1.00  0.00    -0.311 OA
BRANCH  14  15
HETATM   15  C   UNL     1       7.492  22.221  54.978  1.00  0.00     0.076 A 
HETATM   16  C   UNL     1       7.942  21.031  55.551  1.00  0.00     0.037 A 
HETATM   17  C   UNL     1       8.613  20.094  54.765  1.00  0.00     0.003 A 
HETATM   18  C   UNL     1       8.819  20.342  53.407  1.00  0.00     0.000 A 
HETATM   19  C   UNL     1       8.344  21.520  52.831  1.00  0.00     0.003 A 
HETATM   20  C   UNL     1       7.669  22.458  53.613  1.00  0.00     0.037 A 
ENDBRANCH  14  15
ENDBRANCH  11  14
ENDBRANCH   7   8
ENDBRANCH   4   7
BRANCH   1  21
HETATM   21  C   UNL     1       7.813  31.769  60.223  1.00  0.00     0.253 C 
HETATM   22  N   UNL     1       7.072  31.289  61.284  1.00  0.00    -0.354 N 
HETATM   23  H   UNL     1       6.817  30.312  61.307  1.00  0.00     0.162 HD
HETATM   24  O   UNL     1       8.398  32.846  60.246  1.00  0.00    -0.268 OA
BRANCH  22  25
HETATM   25  C   UNL     1       7.071  31.965  62.574  1.00  0.00     0.154 C 
BRANCH  25  26
HETATM   26  C   UNL     1       5.693  32.239  63.196  1.00  0.00     0.132 C 
HETATM   27  C   UNL     1       4.905  33.299  62.437  1.00  0.00     0.041 C 
BRANCH  26  28
HETATM   28  O   UNL     1       4.943  31.020  63.171  1.00  0.00    -0.394 OA
HETATM   29  H   UNL     1       5.528  30.321  63.513  1.00  0.00     0.210 HD
ENDBRANCH  26  28
ENDBRANCH  25  26
ENDBRANCH  22  25
ENDBRANCH   1  21
TORSDOF 8
ENDMDL
MODEL 6
REMARK VINA RESULT:      -8.4      2.438      3.987
REMARK  8 active torsions:
REMARK  status: ('A' for Active; 'I' for Inactive)
REMARK    1  A    between atoms: C_2  and  O_3 
REMARK    2  A    between atoms: C_2  and  C_4 
REMARK    3  A    between atoms: C_4  and  N_5 
REMARK       I    between atoms: N_5  and  C_6 
REMARK    4  A    between atoms: C_6  and  C_7 
REMARK    5  A    between atoms: C_10  and  O_11 
REMARK    6  A    between atoms: O_11  and  C_12 
REMARK    7  A    between atoms: C_15  and  O_16 
REMARK    8  A    between atoms: O_16  and  C_17 
ROOT
HETATM    1  C   UNL     1       6.270  32.347  60.595  1.00  0.00     0.049 A 
HETATM    2  C   UNL     1       5.726  32.347  59.318  1.00  0.00     0.136 A 
HETATM    3  N   UNL     1       6.226  31.636  58.277  1.00  0.00    -0.236 NA
HETATM    4  C   UNL     1       7.333  30.898  58.522  1.00  0.00     0.169 A 
HETATM    5  C   UNL     1       7.987  30.875  59.743  1.00  0.00     0.059 A 
HETATM    6  C   UNL     1       7.439  31.605  60.797  1.00  0.00     0.023 A 
ENDROOT
BRANCH   4   7
HETATM    7  O   UNL     1       7.903  30.168  57.493  1.00  0.00    -0.292 OA
BRANCH   7   8
HETATM    8  C   UNL     1       7.455  28.883  57.286  1.00  0.00     0.078 A 
HETATM    9  C   UNL     1       8.436  27.888  57.279  1.00  0.00     0.040 A 
HETATM   10  C   UNL     1       8.076  26.546  57.140  1.00  0.00     0.040 A 
HETATM   11  C   UNL     1       6.731  26.189  57.029  1.00  0.00     0.076 A 
HETATM   12  C   UNL     1       5.748  27.182  57.025  1.00  0.00     0.040 A 
HETATM   13  C   UNL     1       6.108  28.524  57.175  1.00  0.00     0.040 A 
BRANCH  11  14
HETATM   14  O   UNL     1       6.472  24.846  56.861  1.00  0.00    -0.311 OA
BRANCH  14  15
HETATM   15  C   UNL     1       6.863  24.253  55.685  1.00  0.00     0.076 A 
HETATM   16  C   UNL     1       6.281  24.724  54.507  1.00  0.00     0.037 A 
HETATM   17  C   UNL     1       6.664  24.183  53.280  1.00  0.00     0.003 A 
HETATM   18  C   UNL     1       7.637  23.184  53.231  1.00  0.00     0.000 A 
HETATM   19  C   UNL     1       8.237  22.733  54.407  1.00  0.00     0.003 A 
HETATM   20  C   UNL     1       7.859  23.274  55.637  1.00  0.00     0.037 A 
ENDBRANCH  14  15
ENDBRANCH  11  14
ENDBRANCH   7   8
ENDBRANCH   4   7
BRANCH   1  21
HETATM   21  C   UNL     1       5.685  33.096  61.737  1.00  0.00     0.253 C 
HETATM   22  N   UNL     1       5.522  32.418  62.929  1.00  0.00    -0.354 N 
HETATM   23  H   UNL     1       5.986  31.532  63.060  1.00  0.00     0.162 HD
HETATM   24  O   UNL     1       5.399  34.279  61.595  1.00  0.00    -0.268 OA
BRANCH  22  25
HETATM   25  C   UNL     1       5.148  33.116  64.152  1.00  0.00     0.154 C 
BRANCH  25  26
HETATM   26  C   UNL     1       6.280  33.855  64.885  1.00  0.00     0.132 C 
HETATM   27  C   UNL     1       7.658  33.302  64.548  1.00  0.00     0.041 C 
BRANCH  26  28
HETATM   28  O   UNL     1       6.240  35.231  64.492  1.00  0.00    -0.394 OA
HETATM   29  H   UNL     1       7.070  35.413  64.017  1.00  0.00     0.210 HD
ENDBRANCH  26  28
ENDBRANCH  25  26
ENDBRANCH  22  25
ENDBRANCH   1  21
TORSDOF 8
ENDMDL
MODEL 7
REMARK VINA RESULT:      -8.0      1.644      2.147
REMARK  8 active torsions:
REMARK  status: ('A' for Active; 'I' for Inactive)
REMARK    1  A    between atoms: C_2  and  O_3 
REMARK    2  A    between atoms: C_2  and  C_4 
REMARK    3  A    between atoms: C_4  and  N_5 
REMARK       I    between atoms: N_5  and  C_6 
REMARK    4  A    between atoms: C_6  and  C_7 
REMARK    5  A    between atoms: C_10  and  O_11 
REMARK    6  A    between atoms: O_11  and  C_12 
REMARK    7  A    between atoms: C_15  and  O_16 
REMARK    8  A    between atoms: O_16  and  C_17 
ROOT
HETATM    1  C   UNL     1       5.578  31.011  58.151  1.00  0.00     0.049 A 
HETATM    2  C   UNL     1       4.301  30.605  57.786  1.00  0.00     0.136 A 
HETATM    3  N   UNL     1       4.042  29.579  56.938  1.00  0.00    -0.236 NA
HETATM    4  C   UNL     1       5.113  28.936  56.418  1.00  0.00     0.169 A 
HETATM    5  C   UNL     1       6.426  29.301  56.670  1.00  0.00     0.059 A 
HETATM    6  C   UNL     1       6.659  30.350  57.558  1.00  0.00     0.023 A 
ENDROOT
BRANCH   4   7
HETATM    7  O   UNL     1       4.913  27.895  55.527  1.00  0.00    -0.292 OA
BRANCH   7   8
HETATM    8  C   UNL     1       5.777  26.824  55.580  1.00  0.00     0.078 A 
HETATM    9  C   UNL     1       6.863  26.872  54.704  1.00  0.00     0.040 A 
HETATM   10  C   UNL     1       7.829  25.864  54.726  1.00  0.00     0.040 A 
HETATM   11  C   UNL     1       7.726  24.813  55.640  1.00  0.00     0.076 A 
HETATM   12  C   UNL     1       6.635  24.757  56.511  1.00  0.00     0.040 A 
HETATM   13  C   UNL     1       5.674  25.771  56.495  1.00  0.00     0.040 A 
BRANCH  11  14
HETATM   14  O   UNL     1       8.706  23.847  55.566  1.00  0.00    -0.311 OA
BRANCH  14  15
HETATM   15  C   UNL     1       8.449  22.719  54.825  1.00  0.00     0.076 A 
HETATM   16  C   UNL     1       8.419  21.501  55.506  1.00  0.00     0.037 A 
HETATM   17  C   UNL     1       8.130  20.326  54.812  1.00  0.00     0.003 A 
HETATM   18  C   UNL     1       7.857  20.372  53.445  1.00  0.00     0.000 A 
HETATM   19  C   UNL     1       7.861  21.594  52.771  1.00  0.00     0.003 A 
HETATM   20  C   UNL     1       8.147  22.772  53.462  1.00  0.00     0.037 A 
ENDBRANCH  14  15
ENDBRANCH  11  14
ENDBRANCH   7   8
ENDBRANCH   4   7
BRANCH   1  21
HETATM   21  C   UNL     1       5.845  32.108  59.117  1.00  0.00     0.253 C 
HETATM   22  N   UNL     1       6.164  31.755  60.413  1.00  0.00    -0.354 N 
HETATM   23  H   UNL     1       6.416  30.798  60.615  1.00  0.00     0.162 HD
HETATM   24  O   UNL     1       5.804  33.271  58.731  1.00  0.00    -0.268 OA
BRANCH  22  25
HETATM   25  C   UNL     1       6.637  32.742  61.373  1.00  0.00     0.154 C 
BRANCH  25  26
HETATM   26  C   UNL     1       7.762  32.288  62.317  1.00  0.00     0.132 C 
HETATM   27  C   UNL     1       7.650  32.905  63.705  1.00  0.00     0.041 C 
BRANCH  26  28
HETATM   28  O   UNL     1       7.683  30.865  62.451  1.00  0.00    -0.394 OA
HETATM   29  H   UNL     1       6.984  30.681  63.104  1.00  0.00     0.210 HD
ENDBRANCH  26  28
ENDBRANCH  25  26
ENDBRANCH  22  25
ENDBRANCH   1  21
TORSDOF 8
ENDMDL
MODEL 8
REMARK VINA RESULT:      -7.9      3.674     11.452
REMARK  8 active torsions:
REMARK  status: ('A' for Active; 'I' for Inactive)
REMARK    1  A    between atoms: C_2  and  O_3 
REMARK    2  A    between atoms: C_2  and  C_4 
REMARK    3  A    between atoms: C_4  and  N_5 
REMARK       I    between atoms: N_5  and  C_6 
REMARK    4  A    between atoms: C_6  and  C_7 
REMARK    5  A    between atoms: C_10  and  O_11 
REMARK    6  A    between atoms: O_11  and  C_12 
REMARK    7  A    between atoms: C_15  and  O_16 
REMARK    8  A    between atoms: O_16  and  C_17 
ROOT
HETATM    1  C   UNL     1       9.056  29.990  57.574  1.00  0.00     0.049 A 
HETATM    2  C   UNL     1       9.959  31.042  57.652  1.00  0.00     0.136 A 
HETATM    3  N   UNL     1      10.145  31.805  58.758  1.00  0.00    -0.236 NA
HETATM    4  C   UNL     1       9.381  31.511  59.834  1.00  0.00     0.169 A 
HETATM    5  C   UNL     1       8.410  30.522  59.841  1.00  0.00     0.059 A 
HETATM    6  C   UNL     1       8.254  29.745  58.694  1.00  0.00     0.023 A 
ENDROOT
BRANCH   4   7
HETATM    7  O   UNL     1       9.509  32.269  60.986  1.00  0.00    -0.292 OA
BRANCH   7   8
HETATM    8  C   UNL     1       8.383  32.483  61.749  1.00  0.00     0.078 A 
HETATM    9  C   UNL     1       7.243  32.892  61.053  1.00  0.00     0.040 A 
HETATM   10  C   UNL     1       6.035  33.074  61.728  1.00  0.00     0.040 A 
HETATM   11  C   UNL     1       5.953  32.826  63.099  1.00  0.00     0.076 A 
HETATM   12  C   UNL     1       7.094  32.425  63.800  1.00  0.00     0.040 A 
HETATM   13  C   UNL     1       8.300  32.233  63.122  1.00  0.00     0.040 A 
BRANCH  11  14
HETATM   14  O   UNL     1       4.730  33.064  63.687  1.00  0.00    -0.311 OA
BRANCH  14  15
HETATM   15  C   UNL     1       4.647  34.061  64.630  1.00  0.00     0.076 A 
HETATM   16  C   UNL     1       4.593  35.376  64.166  1.00  0.00     0.037 A 
HETATM   17  C   UNL     1       4.475  36.427  65.075  1.00  0.00     0.003 A 
HETATM   18  C   UNL     1       4.397  36.161  66.442  1.00  0.00     0.000 A 
HETATM   19  C   UNL     1       4.425  34.844  66.902  1.00  0.00     0.003 A 
HETATM   20  C   UNL     1       4.539  33.790  65.996  1.00  0.00     0.037 A 
ENDBRANCH  14  15
ENDBRANCH  11  14
ENDBRANCH   7   8
ENDBRANCH   4   7
BRANCH   1  21
HETATM   21  C   UNL     1       8.896  29.134  56.370  1.00  0.00     0.253 C 
HETATM   22  N   UNL     1       8.003  28.084  56.447  1.00  0.00    -0.354 N 
HETATM   23  H   UNL     1       7.343  28.052  57.211  1.00  0.00     0.162 HD
HETATM   24  O   UNL     1       9.527  29.403  55.354  1.00  0.00    -0.268 OA
BRANCH  22  25
HETATM   25  C   UNL     1       7.629  27.319  55.266  1.00  0.00     0.154 C 
BRANCH  25  26
HETATM   26  C   UNL     1       6.517  27.919  54.391  1.00  0.00     0.132 C 
HETATM   27  C   UNL     1       5.534  28.766  55.189  1.00  0.00     0.041 C 
BRANCH  26  28
HETATM   28  O   UNL     1       7.130  28.755  53.404  1.00  0.00    -0.394 OA
HETATM   29  H   UNL     1       7.897  28.266  53.056  1.00  0.00     0.210 HD
ENDBRANCH  26  28
ENDBRANCH  25  26
ENDBRANCH  22  25
ENDBRANCH   1  21
TORSDOF 8
ENDMDL
MODEL 9
REMARK VINA RESULT:      -7.9      2.011      2.386
REMARK  8 active torsions:
REMARK  status: ('A' for Active; 'I' for Inactive)
REMARK    1  A    between atoms: C_2  and  O_3 
REMARK    2  A    between atoms: C_2  and  C_4 
REMARK    3  A    between atoms: C_4  and  N_5 
REMARK       I    between atoms: N_5  and  C_6 
REMARK    4  A    between atoms: C_6  and  C_7 
REMARK    5  A    between atoms: C_10  and  O_11 
REMARK    6  A    between atoms: O_11  and  C_12 
REMARK    7  A    between atoms: C_15  and  O_16 
REMARK    8  A    between atoms: O_16  and  C_17 
ROOT
HETATM    1  C   UNL     1       4.372  30.336  56.604  1.00  0.00     0.049 A 
HETATM    2  C   UNL     1       4.182  30.736  55.287  1.00  0.00     0.136 A 
HETATM    3  N   UNL     1       4.102  29.883  54.236  1.00  0.00    -0.236 NA
HETATM    4  C   UNL     1       4.232  28.565  54.513  1.00  0.00     0.169 A 
HETATM    5  C   UNL     1       4.484  28.066  55.781  1.00  0.00     0.059 A 
HETATM    6  C   UNL     1       4.545  28.968  56.842  1.00  0.00     0.023 A 
ENDROOT
BRANCH   4   7
HETATM    7  O   UNL     1       4.182  27.646  53.478  1.00  0.00    -0.292 OA
BRANCH   7   8
HETATM    8  C   UNL     1       5.238  26.775  53.334  1.00  0.00     0.078 A 
HETATM    9  C   UNL     1       4.901  25.444  53.079  1.00  0.00     0.040 A 
HETATM   10  C   UNL     1       5.902  24.496  52.855  1.00  0.00     0.040 A 
HETATM   11  C   UNL     1       7.245  24.878  52.862  1.00  0.00     0.076 A 
HETATM   12  C   UNL     1       7.586  26.208  53.126  1.00  0.00     0.040 A 
HETATM   13  C   UNL     1       6.583  27.157  53.340  1.00  0.00     0.040 A 
BRANCH  11  14
HETATM   14  O   UNL     1       8.163  23.870  52.664  1.00  0.00    -0.311 OA
BRANCH  14  15
HETATM   15  C   UNL     1       8.151  22.804  53.532  1.00  0.00     0.076 A 
HETATM   16  C   UNL     1       8.255  23.088  54.894  1.00  0.00     0.037 A 
HETATM   17  C   UNL     1       8.215  22.048  55.823  1.00  0.00     0.003 A 
HETATM   18  C   UNL     1       8.056  20.731  55.391  1.00  0.00     0.000 A 
HETATM   19  C   UNL     1       7.926  20.453  54.030  1.00  0.00     0.003 A 
HETATM   20  C   UNL     1       7.962  21.490  53.097  1.00  0.00     0.037 A 
ENDBRANCH  14  15
ENDBRANCH  11  14
ENDBRANCH   7   8
ENDBRANCH   4   7
BRANCH   1  21
HETATM   21  C   UNL     1       4.413  31.279  57.751  1.00  0.00     0.253 C 
HETATM   22  N   UNL     1       5.653  31.640  58.237  1.00  0.00    -0.354 N 
HETATM   23  H   UNL     1       6.476  31.438  57.688  1.00  0.00     0.162 HD
HETATM   24  O   UNL     1       3.362  31.723  58.200  1.00  0.00    -0.268 OA
BRANCH  22  25
HETATM   25  C   UNL     1       5.801  32.706  59.218  1.00  0.00     0.154 C 
BRANCH  25  26
HETATM   26  C   UNL     1       5.689  32.292  60.694  1.00  0.00     0.132 C 
HETATM   27  C   UNL     1       6.538  33.158  61.615  1.00  0.00     0.041 C 
BRANCH  26  28
HETATM   28  O   UNL     1       4.320  32.425  61.091  1.00  0.00    -0.394 OA
HETATM   29  H   UNL     1       3.821  32.695  60.299  1.00  0.00     0.210 HD
ENDBRANCH  26  28
ENDBRANCH  25  26
ENDBRANCH  22  25
ENDBRANCH   1  21
TORSDOF 8
ENDMDL
MODEL 10
REMARK VINA RESULT:      -7.8      3.024     10.841
REMARK  8 active torsions:
REMARK  status: ('A' for Active; 'I' for Inactive)
REMARK    1  A    between atoms: C_2  and  O_3 
REMARK    2  A    between atoms: C_2  and  C_4 
REMARK    3  A    between atoms: C_4  and  N_5 
REMARK       I    between atoms: N_5  and  C_6 
REMARK    4  A    between atoms: C_6  and  C_7 
REMARK    5  A    between atoms: C_10  and  O_11 
REMARK    6  A    between atoms: O_11  and  C_12 
REMARK    7  A    between atoms: C_15  and  O_16 
REMARK    8  A    between atoms: O_16  and  C_17 
ROOT
HETATM    1  C   UNL     1       6.880  28.188  56.904  1.00  0.00     0.049 A 
HETATM    2  C   UNL     1       8.231  27.940  57.105  1.00  0.00     0.136 A 
HETATM    3  N   UNL     1       9.066  28.770  57.777  1.00  0.00    -0.236 NA
HETATM    4  C   UNL     1       8.527  29.913  58.261  1.00  0.00     0.169 A 
HETATM    5  C   UNL     1       7.206  30.283  58.064  1.00  0.00     0.059 A 
HETATM    6  C   UNL     1       6.370  29.400  57.382  1.00  0.00     0.023 A 
ENDROOT
BRANCH   4   7
HETATM    7  O   UNL     1       9.334  30.812  58.937  1.00  0.00    -0.292 OA
BRANCH   7   8
HETATM    8  C   UNL     1       8.898  31.284  60.155  1.00  0.00     0.078 A 
HETATM    9  C   UNL     1       9.055  30.416  61.237  1.00  0.00     0.040 A 
HETATM   10  C   UNL     1       8.702  30.827  62.525  1.00  0.00     0.040 A 
HETATM   11  C   UNL     1       8.212  32.116  62.740  1.00  0.00     0.076 A 
HETATM   12  C   UNL     1       8.045  32.984  61.657  1.00  0.00     0.040 A 
HETATM   13  C   UNL     1       8.408  32.576  60.371  1.00  0.00     0.040 A 
BRANCH  11  14
HETATM   14  O   UNL     1       7.858  32.422  64.036  1.00  0.00    -0.311 OA
BRANCH  14  15
HETATM   15  C   UNL     1       6.652  33.046  64.249  1.00  0.00     0.076 A 
HETATM   16  C   UNL     1       6.622  34.069  65.197  1.00  0.00     0.037 A 
HETATM   17  C   UNL     1       5.433  34.762  65.431  1.00  0.00     0.003 A 
HETATM   18  C   UNL     1       4.285  34.440  64.708  1.00  0.00     0.000 A 
HETATM   19  C   UNL     1       4.324  33.434  63.741  1.00  0.00     0.003 A 
HETATM   20  C   UNL     1       5.512  32.742  63.502  1.00  0.00     0.037 A 
ENDBRANCH  14  15
ENDBRANCH  11  14
ENDBRANCH   7   8
ENDBRANCH   4   7
BRANCH   1  21
HETATM   21  C   UNL     1       5.968  27.247  56.204  1.00  0.00     0.253 C 
HETATM   22  N   UNL     1       6.417  26.677  55.029  1.00  0.00    -0.354 N 
HETATM   23  H   UNL     1       7.398  26.736  54.796  1.00  0.00     0.162 HD
HETATM   24  O   UNL     1       4.877  26.989  56.699  1.00  0.00    -0.268 OA
BRANCH  22  25
HETATM   25  C   UNL     1       5.684  25.597  54.383  1.00  0.00     0.154 C 
BRANCH  25  26
HETATM   26  C   UNL     1       5.034  25.932  53.031  1.00  0.00     0.132 C 
HETATM   27  C   UNL     1       4.789  24.697  52.174  1.00  0.00     0.041 C 
BRANCH  26  28
HETATM   28  O   UNL     1       3.772  26.557  53.287  1.00  0.00    -0.394 OA
HETATM   29  H   UNL     1       3.292  26.583  52.440  1.00  0.00     0.210 HD
ENDBRANCH  26  28
ENDBRANCH  25  26
ENDBRANCH  22  25
ENDBRANCH   1  21
TORSDOF 8
ENDMDL
