MODEL 1
REMARK VINA RESULT:      -8.1      0.000      0.000
REMARK  1 active torsions:
REMARK  status: ('A' for Active; 'I' for Inactive)
REMARK    1  A    between atoms: C_8  and  C_9 
ROOT
HETATM    1  C   UNL     1       7.703  32.979  64.365  1.00  0.00     0.073 C 
HETATM    2  C   UNL     1       7.588  32.549  62.945  1.00  0.00     0.062 A 
HETATM    3  N   UNL     1       8.644  31.999  62.342  1.00  0.00    -0.178 NA
HETATM    4  N   UNL     1       8.192  31.692  61.125  1.00  0.00    -0.262 N 
HETATM    5  H   UNL     1       8.830  31.233  60.486  1.00  0.00     0.191 HD
HETATM    6  C   UNL     1       6.898  32.075  60.886  1.00  0.00     0.134 A 
HETATM    7  C   UNL     1       6.445  32.632  62.072  1.00  0.00     0.032 A 
HETATM    8  C   UNL     1       5.088  33.110  62.503  1.00  0.00     0.120 C 
HETATM    9  S   UNL     1       3.706  32.756  61.392  1.00  0.00    -0.141 SA
HETATM   10  C   UNL     1       4.382  33.364  59.821  1.00  0.00     0.136 C 
HETATM   11  C   UNL     1       3.212  33.829  58.952  1.00  0.00     0.031 C 
HETATM   12  C   UNL     1       5.177  32.270  59.121  1.00  0.00     0.236 C 
HETATM   13  O   UNL     1       4.856  31.828  58.011  1.00  0.00    -0.272 OA
HETATM   14  N   UNL     1       6.349  31.812  59.651  1.00  0.00    -0.311 N 
HETATM   15  H   UNL     1       6.840  31.195  59.012  1.00  0.00     0.170 HD
ENDROOT
BRANCH   8  16
HETATM   16  C   UNL     1       5.171  34.578  62.934  1.00  0.00    -0.029 A 
HETATM   17  C   UNL     1       4.787  34.980  64.260  1.00  0.00    -0.018 A 
HETATM   18  C   UNL     1       4.935  36.342  64.635  1.00  0.00    -0.025 A 
HETATM   19  C   UNL     1       4.270  34.105  65.251  1.00  0.00     0.013 A 
HETATM   20  C   UNL     1       4.611  36.767  65.934  1.00  0.00     0.012 A 
HETATM   21  C   UNL     1       5.410  37.280  63.711  1.00  0.00     0.012 A 
HETATM   22  C   UNL     1       4.130  35.872  66.885  1.00  0.00     0.001 A 
HETATM   23  C   UNL     1       3.952  34.542  66.541  1.00  0.00     0.001 A 
HETATM   24  C   UNL     1       5.751  36.900  62.420  1.00  0.00     0.002 A 
HETATM   25  C   UNL     1       5.637  35.568  62.039  1.00  0.00     0.009 A 
ENDBRANCH   8  16
TORSDOF 1
ENDMDL
MODEL 2
REMARK VINA RESULT:      -8.1      8.250     11.393
REMARK  1 active torsions:
REMARK  status: ('A' for Active; 'I' for Inactive)
REMARK    1  A    between atoms: C_8  and  C_9 
ROOT
HETATM    1  C   UNL     1       8.916  28.221  57.027  1.00  0.00     0.073 C 
HETATM    2  C   UNL     1       7.765  29.127  56.767  1.00  0.00     0.062 A 
HETATM    3  N   UNL     1       7.529  30.141  57.603  1.00  0.00    -0.178 NA
HETATM    4  N   UNL     1       6.482  30.764  57.061  1.00  0.00    -0.262 N 
HETATM    5  H   UNL     1       6.136  31.596  57.525  1.00  0.00     0.191 HD
HETATM    6  C   UNL     1       5.983  30.164  55.935  1.00  0.00     0.134 A 
HETATM    7  C   UNL     1       6.813  29.082  55.686  1.00  0.00     0.032 A 
HETATM    8  C   UNL     1       6.887  28.116  54.537  1.00  0.00     0.120 C 
HETATM    9  S   UNL     1       5.860  28.482  53.095  1.00  0.00    -0.141 SA
HETATM   10  C   UNL     1       4.254  28.757  53.895  1.00  0.00     0.136 C 
HETATM   11  C   UNL     1       3.159  28.368  52.901  1.00  0.00     0.031 C 
HETATM   12  C   UNL     1       4.111  30.213  54.320  1.00  0.00     0.236 C 
HETATM   13  O   UNL     1       3.227  30.948  53.865  1.00  0.00    -0.272 OA
HETATM   14  N   UNL     1       4.893  30.729  55.313  1.00  0.00    -0.311 N 
HETATM   15  H   UNL     1       4.591  31.658  55.589  1.00  0.00     0.170 HD
ENDROOT
BRANCH   8  16
HETATM   16  C   UNL     1       6.732  26.683  55.058  1.00  0.00    -0.029 A 
HETATM   17  C   UNL     1       7.155  25.561  54.265  1.00  0.00    -0.018 A 
HETATM   18  C   UNL     1       7.045  24.254  54.811  1.00  0.00    -0.025 A 
HETATM   19  C   UNL     1       7.696  25.655  52.956  1.00  0.00     0.013 A 
HETATM   20  C   UNL     1       7.487  23.135  54.085  1.00  0.00     0.012 A 
HETATM   21  C   UNL     1       6.496  24.066  56.085  1.00  0.00     0.012 A 
HETATM   22  C   UNL     1       8.034  23.272  52.814  1.00  0.00     0.001 A 
HETATM   23  C   UNL     1       8.132  24.532  52.245  1.00  0.00     0.001 A 
HETATM   24  C   UNL     1       6.057  25.146  56.839  1.00  0.00     0.002 A 
HETATM   25  C   UNL     1       6.177  26.435  56.334  1.00  0.00     0.009 A 
ENDBRANCH   8  16
TORSDOF 1
ENDMDL
MODEL 3
REMARK VINA RESULT:      -8.0      7.101      9.182
REMARK  1 active torsions:
REMARK  status: ('A' for Active; 'I' for Inactive)
REMARK    1  A    between atoms: C_8  and  C_9 
ROOT
HETATM    1  C   UNL     1       8.249  25.622  57.340  1.00  0.00     0.073 C 
HETATM    2  C   UNL     1       7.209  25.628  56.275  1.00  0.00     0.062 A 
HETATM    3  N   UNL     1       6.965  24.506  55.594  1.00  0.00    -0.178 NA
HETATM    4  N   UNL     1       5.968  24.841  54.775  1.00  0.00    -0.262 N 
HETATM    5  H   UNL     1       5.596  24.123  54.165  1.00  0.00     0.191 HD
HETATM    6  C   UNL     1       5.589  26.157  54.848  1.00  0.00     0.134 A 
HETATM    7  C   UNL     1       6.371  26.718  55.846  1.00  0.00     0.032 A 
HETATM    8  C   UNL     1       6.347  28.072  56.497  1.00  0.00     0.120 C 
HETATM    9  S   UNL     1       4.957  29.153  56.087  1.00  0.00    -0.141 SA
HETATM   10  C   UNL     1       4.994  29.062  54.274  1.00  0.00     0.136 C 
HETATM   11  C   UNL     1       4.440  30.379  53.725  1.00  0.00     0.031 C 
HETATM   12  C   UNL     1       4.171  27.879  53.781  1.00  0.00     0.236 C 
HETATM   13  O   UNL     1       3.177  28.022  53.060  1.00  0.00    -0.272 OA
HETATM   14  N   UNL     1       4.575  26.599  54.029  1.00  0.00    -0.311 N 
HETATM   15  H   UNL     1       4.016  25.920  53.521  1.00  0.00     0.170 HD
ENDROOT
BRANCH   8  16
HETATM   16  C   UNL     1       7.717  28.742  56.342  1.00  0.00    -0.029 A 
HETATM   17  C   UNL     1       8.296  29.494  57.422  1.00  0.00    -0.018 A 
HETATM   18  C   UNL     1       9.593  30.050  57.252  1.00  0.00    -0.025 A 
HETATM   19  C   UNL     1       7.669  29.723  58.675  1.00  0.00     0.013 A 
HETATM   20  C   UNL     1      10.211  30.755  58.298  1.00  0.00     0.012 A 
HETATM   21  C   UNL     1      10.273  29.899  56.038  1.00  0.00     0.012 A 
HETATM   22  C   UNL     1       9.573  30.936  59.521  1.00  0.00     0.001 A 
HETATM   23  C   UNL     1       8.298  30.426  59.707  1.00  0.00     0.001 A 
HETATM   24  C   UNL     1       9.701  29.200  54.984  1.00  0.00     0.002 A 
HETATM   25  C   UNL     1       8.443  28.628  55.135  1.00  0.00     0.009 A 
ENDBRANCH   8  16
TORSDOF 1
ENDMDL
MODEL 4
REMARK VINA RESULT:      -7.7      6.227     10.079
REMARK  1 active torsions:
REMARK  status: ('A' for Active; 'I' for Inactive)
REMARK    1  A    between atoms: C_8  and  C_9 
ROOT
HETATM    1  C   UNL     1       9.129  28.099  57.172  1.00  0.00     0.073 C 
HETATM    2  C   UNL     1       8.216  29.093  57.797  1.00  0.00     0.062 A 
HETATM    3  N   UNL     1       8.564  29.667  58.951  1.00  0.00    -0.178 NA
HETATM    4  N   UNL     1       7.569  30.520  59.196  1.00  0.00    -0.262 N 
HETATM    5  H   UNL     1       7.634  31.095  60.028  1.00  0.00     0.191 HD
HETATM    6  C   UNL     1       6.550  30.484  58.280  1.00  0.00     0.134 A 
HETATM    7  C   UNL     1       6.941  29.565  57.318  1.00  0.00     0.032 A 
HETATM    8  C   UNL     1       6.339  29.176  55.998  1.00  0.00     0.120 C 
HETATM    9  S   UNL     1       4.956  30.178  55.403  1.00  0.00    -0.141 SA
HETATM   10  C   UNL     1       3.893  30.178  56.875  1.00  0.00     0.136 C 
HETATM   11  C   UNL     1       2.442  30.311  56.409  1.00  0.00     0.031 C 
HETATM   12  C   UNL     1       4.271  31.321  57.808  1.00  0.00     0.236 C 
HETATM   13  O   UNL     1       3.482  32.229  58.092  1.00  0.00    -0.272 OA
HETATM   14  N   UNL     1       5.472  31.322  58.458  1.00  0.00    -0.311 N 
HETATM   15  H   UNL     1       5.528  32.061  59.151  1.00  0.00     0.170 HD
ENDROOT
BRANCH   8  16
HETATM   16  C   UNL     1       6.061  27.669  55.982  1.00  0.00    -0.029 A 
HETATM   17  C   UNL     1       6.582  26.835  54.933  1.00  0.00    -0.018 A 
HETATM   18  C   UNL     1       6.347  25.435  54.990  1.00  0.00    -0.025 A 
HETATM   19  C   UNL     1       7.336  27.304  53.826  1.00  0.00     0.013 A 
HETATM   20  C   UNL     1       6.874  24.580  54.008  1.00  0.00     0.012 A 
HETATM   21  C   UNL     1       5.588  24.888  56.031  1.00  0.00     0.012 A 
HETATM   22  C   UNL     1       7.630  25.078  52.951  1.00  0.00     0.001 A 
HETATM   23  C   UNL     1       7.855  26.442  52.856  1.00  0.00     0.001 A 
HETATM   24  C   UNL     1       5.058  25.697  57.028  1.00  0.00     0.002 A 
HETATM   25  C   UNL     1       5.295  27.066  57.005  1.00  0.00     0.009 A 
ENDBRANCH   8  16
TORSDOF 1
ENDMDL
MODEL 5
REMARK VINA RESULT:      -7.4      7.606     10.341
REMARK  1 active torsions:
REMARK  status: ('A' for Active; 'I' for Inactive)
REMARK    1  A    between atoms: C_8  and  C_9 
ROOT
HETATM    1  C   UNL     1       6.538  25.124  56.785  1.00  0.00     0.073 C 
HETATM    2  C   UNL     1       6.432  24.884  55.320  1.00  0.00     0.062 A 
HETATM    3  N   UNL     1       6.859  23.724  54.815  1.00  0.00    -0.178 NA
HETATM    4  N   UNL     1       6.577  23.819  53.516  1.00  0.00    -0.262 N 
HETATM    5  H   UNL     1       6.798  23.026  52.925  1.00  0.00     0.191 HD
HETATM    6  C   UNL     1       6.037  25.021  53.137  1.00  0.00     0.134 A 
HETATM    7  C   UNL     1       5.901  25.757  54.304  1.00  0.00     0.032 A 
HETATM    8  C   UNL     1       5.255  27.083  54.585  1.00  0.00     0.120 C 
HETATM    9  S   UNL     1       4.297  27.826  53.243  1.00  0.00    -0.141 SA
HETATM   10  C   UNL     1       5.495  27.715  51.883  1.00  0.00     0.136 C 
HETATM   11  C   UNL     1       5.219  28.869  50.917  1.00  0.00     0.031 C 
HETATM   12  C   UNL     1       5.376  26.372  51.174  1.00  0.00     0.236 C 
HETATM   13  O   UNL     1       5.063  26.282  49.982  1.00  0.00    -0.272 OA
HETATM   14  N   UNL     1       5.724  25.216  51.810  1.00  0.00    -0.311 N 
HETATM   15  H   UNL     1       5.734  24.423  51.177  1.00  0.00     0.170 HD
ENDROOT
BRANCH   8  16
HETATM   16  C   UNL     1       6.280  28.035  55.211  1.00  0.00    -0.029 A 
HETATM   17  C   UNL     1       5.880  29.013  56.185  1.00  0.00    -0.018 A 
HETATM   18  C   UNL     1       6.874  29.835  56.781  1.00  0.00    -0.025 A 
HETATM   19  C   UNL     1       4.544  29.222  56.618  1.00  0.00     0.013 A 
HETATM   20  C   UNL     1       6.529  30.773  57.768  1.00  0.00     0.012 A 
HETATM   21  C   UNL     1       8.213  29.717  56.392  1.00  0.00     0.012 A 
HETATM   22  C   UNL     1       5.210  30.930  58.183  1.00  0.00     0.001 A 
HETATM   23  C   UNL     1       4.216  30.159  57.603  1.00  0.00     0.001 A 
HETATM   24  C   UNL     1       8.597  28.794  55.428  1.00  0.00     0.002 A 
HETATM   25  C   UNL     1       7.644  27.964  54.849  1.00  0.00     0.009 A 
ENDBRANCH   8  16
TORSDOF 1
ENDMDL
MODEL 6
REMARK VINA RESULT:      -7.2      3.617      4.973
REMARK  1 active torsions:
REMARK  status: ('A' for Active; 'I' for Inactive)
REMARK    1  A    between atoms: C_8  and  C_9 
ROOT
HETATM    1  C   UNL     1       6.695  38.289  61.806  1.00  0.00     0.073 C 
HETATM    2  C   UNL     1       5.391  38.378  61.095  1.00  0.00     0.062 A 
HETATM    3  N   UNL     1       4.981  39.559  60.627  1.00  0.00    -0.178 NA
HETATM    4  N   UNL     1       3.829  39.278  60.017  1.00  0.00    -0.262 N 
HETATM    5  H   UNL     1       3.339  40.038  59.558  1.00  0.00     0.191 HD
HETATM    6  C   UNL     1       3.436  37.969  60.119  1.00  0.00     0.134 A 
HETATM    7  C   UNL     1       4.450  37.324  60.810  1.00  0.00     0.032 A 
HETATM    8  C   UNL     1       4.688  35.874  61.122  1.00  0.00     0.120 C 
HETATM    9  S   UNL     1       3.592  34.676  60.328  1.00  0.00    -0.141 SA
HETATM   10  C   UNL     1       1.973  35.396  60.726  1.00  0.00     0.136 C 
HETATM   11  C   UNL     1       0.957  34.256  60.806  1.00  0.00     0.031 C 
HETATM   12  C   UNL     1       1.566  36.414  59.669  1.00  0.00     0.236 C 
HETATM   13  O   UNL     1       0.555  36.273  58.973  1.00  0.00    -0.272 OA
HETATM   14  N   UNL     1       2.251  37.587  59.531  1.00  0.00    -0.311 N 
HETATM   15  H   UNL     1       1.785  38.226  58.895  1.00  0.00     0.170 HD
ENDROOT
BRANCH   8  16
HETATM   16  C   UNL     1       4.810  35.687  62.639  1.00  0.00    -0.029 A 
HETATM   17  C   UNL     1       5.754  34.754  63.192  1.00  0.00    -0.018 A 
HETATM   18  C   UNL     1       5.873  34.656  64.605  1.00  0.00    -0.025 A 
HETATM   19  C   UNL     1       6.602  33.912  62.427  1.00  0.00     0.013 A 
HETATM   20  C   UNL     1       6.812  33.787  65.185  1.00  0.00     0.012 A 
HETATM   21  C   UNL     1       5.055  35.428  65.438  1.00  0.00     0.012 A 
HETATM   22  C   UNL     1       7.643  32.996  64.398  1.00  0.00     0.001 A 
HETATM   23  C   UNL     1       7.533  33.053  63.018  1.00  0.00     0.001 A 
HETATM   24  C   UNL     1       4.121  36.306  64.904  1.00  0.00     0.002 A 
HETATM   25  C   UNL     1       4.004  36.436  63.525  1.00  0.00     0.009 A 
ENDBRANCH   8  16
TORSDOF 1
ENDMDL
MODEL 7
REMARK VINA RESULT:      -7.1      3.583      4.835
REMARK  1 active torsions:
REMARK  status: ('A' for Active; 'I' for Inactive)
REMARK    1  A    between atoms: C_8  and  C_9 
ROOT
HETATM    1  C   UNL     1       2.292  33.885  63.360  1.00  0.00     0.073 C 
HETATM    2  C   UNL     1       2.516  34.788  62.198  1.00  0.00     0.062 A 
HETATM    3  N   UNL     1       1.843  34.575  61.065  1.00  0.00    -0.178 NA
HETATM    4  N   UNL     1       2.235  35.570  60.269  1.00  0.00    -0.262 N 
HETATM    5  H   UNL     1       1.827  35.624  59.343  1.00  0.00     0.191 HD
HETATM    6  C   UNL     1       3.186  36.394  60.815  1.00  0.00     0.134 A 
HETATM    7  C   UNL     1       3.392  35.928  62.104  1.00  0.00     0.032 A 
HETATM    8  C   UNL     1       4.196  36.471  63.251  1.00  0.00     0.120 C 
HETATM    9  S   UNL     1       4.900  38.124  63.045  1.00  0.00    -0.141 SA
HETATM   10  C   UNL     1       5.707  37.940  61.430  1.00  0.00     0.136 C 
HETATM   11  C   UNL     1       6.909  38.886  61.392  1.00  0.00     0.031 C 
HETATM   12  C   UNL     1       4.731  38.256  60.305  1.00  0.00     0.236 C 
HETATM   13  O   UNL     1       4.916  39.187  59.513  1.00  0.00    -0.272 OA
HETATM   14  N   UNL     1       3.661  37.443  60.061  1.00  0.00    -0.311 N 
HETATM   15  H   UNL     1       3.185  37.691  59.200  1.00  0.00     0.170 HD
ENDROOT
BRANCH   8  16
HETATM   16  C   UNL     1       5.213  35.421  63.710  1.00  0.00    -0.029 A 
HETATM   17  C   UNL     1       5.424  35.161  65.109  1.00  0.00    -0.018 A 
HETATM   18  C   UNL     1       6.334  34.138  65.487  1.00  0.00    -0.025 A 
HETATM   19  C   UNL     1       4.774  35.852  66.166  1.00  0.00     0.013 A 
HETATM   20  C   UNL     1       6.536  33.825  66.842  1.00  0.00     0.012 A 
HETATM   21  C   UNL     1       7.041  33.426  64.511  1.00  0.00     0.012 A 
HETATM   22  C   UNL     1       5.861  34.510  67.847  1.00  0.00     0.001 A 
HETATM   23  C   UNL     1       4.985  35.528  67.509  1.00  0.00     0.001 A 
HETATM   24  C   UNL     1       6.862  33.697  63.162  1.00  0.00     0.002 A 
HETATM   25  C   UNL     1       5.959  34.678  62.768  1.00  0.00     0.009 A 
ENDBRANCH   8  16
TORSDOF 1
ENDMDL
MODEL 8
REMARK VINA RESULT:      -7.1      2.626      4.450
REMARK  1 active torsions:
REMARK  status: ('A' for Active; 'I' for Inactive)
REMARK    1  A    between atoms: C_8  and  C_9 
ROOT
HETATM    1  C   UNL     1       3.853  35.671  65.284  1.00  0.00     0.073 C 
HETATM    2  C   UNL     1       5.036  34.771  65.242  1.00  0.00     0.062 A 
HETATM    3  N   UNL     1       5.728  34.548  66.362  1.00  0.00    -0.178 NA
HETATM    4  N   UNL     1       6.668  33.679  65.989  1.00  0.00    -0.262 N 
HETATM    5  H   UNL     1       7.309  33.343  66.698  1.00  0.00     0.191 HD
HETATM    6  C   UNL     1       6.659  33.370  64.653  1.00  0.00     0.134 A 
HETATM    7  C   UNL     1       5.580  34.055  64.116  1.00  0.00     0.032 A 
HETATM    8  C   UNL     1       4.955  34.030  62.750  1.00  0.00     0.120 C 
HETATM    9  S   UNL     1       5.547  32.765  61.603  1.00  0.00    -0.141 SA
HETATM   10  C   UNL     1       7.341  33.017  61.732  1.00  0.00     0.136 C 
HETATM   11  C   UNL     1       7.971  32.611  60.398  1.00  0.00     0.031 C 
HETATM   12  C   UNL     1       7.915  32.194  62.877  1.00  0.00     0.236 C 
HETATM   13  O   UNL     1       8.754  31.305  62.694  1.00  0.00    -0.272 OA
HETATM   14  N   UNL     1       7.602  32.490  64.173  1.00  0.00    -0.311 N 
HETATM   15  H   UNL     1       8.166  31.959  64.830  1.00  0.00     0.170 HD
ENDROOT
BRANCH   8  16
HETATM   16  C   UNL     1       4.950  35.445  62.160  1.00  0.00    -0.029 A 
HETATM   17  C   UNL     1       3.899  35.871  61.276  1.00  0.00    -0.018 A 
HETATM   18  C   UNL     1       3.905  37.209  60.798  1.00  0.00    -0.025 A 
HETATM   19  C   UNL     1       2.827  35.049  60.840  1.00  0.00     0.013 A 
HETATM   20  C   UNL     1       2.873  37.677  59.968  1.00  0.00     0.012 A 
HETATM   21  C   UNL     1       4.941  38.081  61.154  1.00  0.00     0.012 A 
HETATM   22  C   UNL     1       1.826  36.846  59.583  1.00  0.00     0.001 A 
HETATM   23  C   UNL     1       1.807  35.529  60.014  1.00  0.00     0.001 A 
HETATM   24  C   UNL     1       5.973  37.661  61.982  1.00  0.00     0.002 A 
HETATM   25  C   UNL     1       5.975  36.363  62.480  1.00  0.00     0.009 A 
ENDBRANCH   8  16
TORSDOF 1
ENDMDL
MODEL 9
REMARK VINA RESULT:      -6.9      8.244     10.490
REMARK  1 active torsions:
REMARK  status: ('A' for Active; 'I' for Inactive)
REMARK    1  A    between atoms: C_8  and  C_9 
ROOT
HETATM    1  C   UNL     1       4.771  31.015  53.915  1.00  0.00     0.073 C 
HETATM    2  C   UNL     1       4.324  29.664  53.480  1.00  0.00     0.062 A 
HETATM    3  N   UNL     1       3.104  29.515  52.960  1.00  0.00    -0.178 NA
HETATM    4  N   UNL     1       3.049  28.222  52.639  1.00  0.00    -0.262 N 
HETATM    5  H   UNL     1       2.203  27.880  52.198  1.00  0.00     0.191 HD
HETATM    6  C   UNL     1       4.164  27.503  52.984  1.00  0.00     0.134 A 
HETATM    7  C   UNL     1       5.050  28.419  53.529  1.00  0.00     0.032 A 
HETATM    8  C   UNL     1       6.481  28.294  53.967  1.00  0.00     0.120 C 
HETATM    9  S   UNL     1       7.325  26.745  53.571  1.00  0.00    -0.141 SA
HETATM   10  C   UNL     1       6.117  25.543  54.197  1.00  0.00     0.136 C 
HETATM   11  C   UNL     1       6.879  24.288  54.627  1.00  0.00     0.031 C 
HETATM   12  C   UNL     1       5.086  25.212  53.126  1.00  0.00     0.236 C 
HETATM   13  O   UNL     1       4.948  24.070  52.674  1.00  0.00    -0.272 OA
HETATM   14  N   UNL     1       4.193  26.155  52.703  1.00  0.00    -0.311 N 
HETATM   15  H   UNL     1       3.480  25.759  52.100  1.00  0.00     0.170 HD
ENDROOT
BRANCH   8  16
HETATM   16  C   UNL     1       6.608  28.707  55.437  1.00  0.00    -0.029 A 
HETATM   17  C   UNL     1       7.869  29.141  55.975  1.00  0.00    -0.018 A 
HETATM   18  C   UNL     1       7.927  29.569  57.328  1.00  0.00    -0.025 A 
HETATM   19  C   UNL     1       9.086  29.188  55.245  1.00  0.00     0.013 A 
HETATM   20  C   UNL     1       9.130  30.040  57.879  1.00  0.00     0.012 A 
HETATM   21  C   UNL     1       6.781  29.529  58.131  1.00  0.00     0.012 A 
HETATM   22  C   UNL     1      10.297  30.093  57.122  1.00  0.00     0.001 A 
HETATM   23  C   UNL     1      10.276  29.660  55.806  1.00  0.00     0.001 A 
HETATM   24  C   UNL     1       5.570  29.080  57.622  1.00  0.00     0.002 A 
HETATM   25  C   UNL     1       5.485  28.679  56.294  1.00  0.00     0.009 A 
ENDBRANCH   8  16
TORSDOF 1
ENDMDL
MODEL 10
REMARK VINA RESULT:      -6.7      2.175      4.142
REMARK  1 active torsions:
REMARK  status: ('A' for Active; 'I' for Inactive)
REMARK    1  A    between atoms: C_8  and  C_9 
ROOT
HETATM    1  C   UNL     1       3.301  34.001  59.884  1.00  0.00     0.073 C 
HETATM    2  C   UNL     1       4.070  32.831  59.380  1.00  0.00     0.062 A 
HETATM    3  N   UNL     1       3.480  31.972  58.545  1.00  0.00    -0.178 NA
HETATM    4  N   UNL     1       4.442  31.095  58.257  1.00  0.00    -0.262 N 
HETATM    5  H   UNL     1       4.222  30.349  57.608  1.00  0.00     0.191 HD
HETATM    6  C   UNL     1       5.623  31.308  58.920  1.00  0.00     0.134 A 
HETATM    7  C   UNL     1       5.434  32.463  59.664  1.00  0.00     0.032 A 
HETATM    8  C   UNL     1       6.377  33.292  60.487  1.00  0.00     0.120 C 
HETATM    9  S   UNL     1       8.134  32.876  60.386  1.00  0.00    -0.141 SA
HETATM   10  C   UNL     1       8.065  31.086  60.684  1.00  0.00     0.136 C 
HETATM   11  C   UNL     1       9.380  30.667  61.344  1.00  0.00     0.031 C 
HETATM   12  C   UNL     1       7.849  30.334  59.377  1.00  0.00     0.236 C 
HETATM   13  O   UNL     1       8.676  29.527  58.937  1.00  0.00    -0.272 OA
HETATM   14  N   UNL     1       6.671  30.444  58.696  1.00  0.00    -0.311 N 
HETATM   15  H   UNL     1       6.613  29.782  57.930  1.00  0.00     0.170 HD
ENDROOT
BRANCH   8  16
HETATM   16  C   UNL     1       5.851  33.400  61.923  1.00  0.00    -0.029 A 
HETATM   17  C   UNL     1       5.655  34.682  62.542  1.00  0.00    -0.018 A 
HETATM   18  C   UNL     1       5.111  34.735  63.853  1.00  0.00    -0.025 A 
HETATM   19  C   UNL     1       5.958  35.929  61.933  1.00  0.00     0.013 A 
HETATM   20  C   UNL     1       4.864  35.970  64.477  1.00  0.00     0.012 A 
HETATM   21  C   UNL     1       4.810  33.554  64.541  1.00  0.00     0.012 A 
HETATM   22  C   UNL     1       5.152  37.171  63.835  1.00  0.00     0.001 A 
HETATM   23  C   UNL     1       5.706  37.150  62.565  1.00  0.00     0.001 A 
HETATM   24  C   UNL     1       5.028  32.314  63.956  1.00  0.00     0.002 A 
HETATM   25  C   UNL     1       5.538  32.239  62.665  1.00  0.00     0.009 A 
ENDBRANCH   8  16
TORSDOF 1
ENDMDL
