MODEL 1
REMARK VINA RESULT:     -10.3      0.000      0.000
REMARK  8 active torsions:
REMARK  status: ('A' for Active; 'I' for Inactive)
REMARK    1  A    between atoms: O_2  and  C_3 
REMARK    2  A    between atoms: C_6  and  C_7 
REMARK    3  A    between atoms: C_7  and  C_8 
REMARK    4  A    between atoms: C_8  and  C_9 
REMARK    5  A    between atoms: C_11  and  N_12 
REMARK       I    between atoms: N_12  and  C_13 
REMARK    6  A    between atoms: C_13  and  C_14 
REMARK    7  A    between atoms: C_18  and  C_19 
REMARK    8  A    between atoms: C_22  and  O_23 
ROOT
HETATM    1  N   UNL     1       8.356  28.616  57.816  1.00  0.00    -0.149 N 
HETATM    2  C   UNL     1       7.037  28.427  57.493  1.00  0.00     0.290 C 
HETATM    3  O   UNL     1       6.133  29.255  57.539  1.00  0.00    -0.265 OA
HETATM    4  H   UNL     1       8.982  27.827  57.741  1.00  0.00     0.188 HD
ENDROOT
BRANCH   1   5
HETATM    5  C   UNL     1       8.890  29.786  58.263  1.00  0.00     0.747 A 
HETATM    6  N   UNL     1       8.548  30.235  59.514  1.00  0.00    -0.046 NA
HETATM    7  C   UNL     1       9.218  31.363  59.634  1.00  0.00     0.140 A 
HETATM    8  N   UNL     1       9.940  31.562  58.494  1.00  0.00    -0.248 N 
HETATM    9  N   UNL     1       9.734  30.584  57.612  1.00  0.00     0.020 NA
HETATM   10  H   UNL     1      10.566  32.323  58.251  1.00  0.00     0.191 HD
BRANCH   7  11
HETATM   11  C   UNL     1       9.264  32.309  60.781  1.00  0.00     0.085 C 
BRANCH  11  12
HETATM   12  C   UNL     1       9.077  31.584  62.118  1.00  0.00     0.046 C 
BRANCH  12  13
HETATM   13  C   UNL     1       7.848  32.058  62.856  1.00  0.00    -0.058 A 
HETATM   14  C   UNL     1       6.575  31.634  62.452  1.00  0.00     0.010 A 
HETATM   15  C   UNL     1       5.428  32.061  63.130  1.00  0.00     0.037 A 
HETATM   16  C   UNL     1       5.540  32.916  64.223  1.00  0.00     0.068 A 
HETATM   17  C   UNL     1       6.807  33.354  64.619  1.00  0.00     0.037 A 
HETATM   18  C   UNL     1       7.954  32.931  63.942  1.00  0.00     0.010 A 
BRANCH  16  19
HETATM   19  O   UNL     1       4.504  33.396  64.976  1.00  0.00    -0.356 OA
HETATM   20  C   UNL     1       3.680  34.387  64.375  1.00  0.00     0.210 C 
ENDBRANCH  16  19
ENDBRANCH  12  13
ENDBRANCH  11  12
ENDBRANCH   7  11
ENDBRANCH   1   5
BRANCH   2  21
HETATM   21  C   UNL     1       6.757  27.040  57.078  1.00  0.00     0.147 A 
HETATM   22  N   UNL     1       5.510  26.539  56.974  1.00  0.00    -0.169 NA
HETATM   23  N   UNL     1       5.707  25.273  56.554  1.00  0.00    -0.277 N 
HETATM   24  H   UNL     1       4.892  24.692  56.383  1.00  0.00     0.189 HD
HETATM   25  C   UNL     1       7.022  24.934  56.366  1.00  0.00     0.063 A 
HETATM   26  C   UNL     1       7.724  26.068  56.717  1.00  0.00     0.071 A 
BRANCH  25  27
HETATM   27  C   UNL     1       7.484  23.647  55.852  1.00  0.00    -0.008 A 
HETATM   28  C   UNL     1       7.272  23.321  54.507  1.00  0.00     0.016 A 
HETATM   29  C   UNL     1       7.705  22.096  53.992  1.00  0.00     0.037 A 
HETATM   30  C   UNL     1       8.363  21.176  54.806  1.00  0.00     0.068 A 
HETATM   31  C   UNL     1       8.584  21.492  56.146  1.00  0.00     0.037 A 
HETATM   32  C   UNL     1       8.146  22.720  56.666  1.00  0.00     0.016 A 
BRANCH  30  33
HETATM   33  O   UNL     1       8.734  20.022  54.175  1.00  0.00    -0.356 OA
HETATM   34  C   UNL     1       8.799  20.053  52.755  1.00  0.00     0.210 C 
ENDBRANCH  30  33
ENDBRANCH  25  27
ENDBRANCH   2  21
TORSDOF 8
ENDMDL
MODEL 2
REMARK VINA RESULT:     -10.0      1.824     11.812
REMARK  8 active torsions:
REMARK  status: ('A' for Active; 'I' for Inactive)
REMARK    1  A    between atoms: O_2  and  C_3 
REMARK    2  A    between atoms: C_6  and  C_7 
REMARK    3  A    between atoms: C_7  and  C_8 
REMARK    4  A    between atoms: C_8  and  C_9 
REMARK    5  A    between atoms: C_11  and  N_12 
REMARK       I    between atoms: N_12  and  C_13 
REMARK    6  A    between atoms: C_13  and  C_14 
REMARK    7  A    between atoms: C_18  and  C_19 
REMARK    8  A    between atoms: C_22  and  O_23 
ROOT
HETATM    1  N   UNL     1       7.187  29.907  58.468  1.00  0.00    -0.149 N 
HETATM    2  C   UNL     1       8.336  30.464  58.969  1.00  0.00     0.290 C 
HETATM    3  O   UNL     1       9.388  30.665  58.372  1.00  0.00    -0.265 OA
HETATM    4  H   UNL     1       6.402  29.791  59.092  1.00  0.00     0.188 HD
ENDROOT
BRANCH   1   5
HETATM    5  C   UNL     1       7.028  29.463  57.190  1.00  0.00     0.747 A 
HETATM    6  N   UNL     1       7.567  28.252  56.837  1.00  0.00    -0.046 NA
HETATM    7  C   UNL     1       7.243  28.125  55.567  1.00  0.00     0.140 A 
HETATM    8  N   UNL     1       6.525  29.223  55.190  1.00  0.00    -0.248 N 
HETATM    9  N   UNL     1       6.392  30.084  56.198  1.00  0.00     0.020 NA
HETATM   10  H   UNL     1       6.117  29.448  54.289  1.00  0.00     0.191 HD
BRANCH   7  11
HETATM   11  C   UNL     1       7.540  27.008  54.630  1.00  0.00     0.085 C 
BRANCH  11  12
HETATM   12  C   UNL     1       6.480  25.904  54.715  1.00  0.00     0.046 C 
BRANCH  12  13
HETATM   13  C   UNL     1       7.060  24.536  54.452  1.00  0.00    -0.058 A 
HETATM   14  C   UNL     1       7.445  24.169  53.156  1.00  0.00     0.010 A 
HETATM   15  C   UNL     1       7.990  22.906  52.899  1.00  0.00     0.037 A 
HETATM   16  C   UNL     1       8.159  21.994  53.937  1.00  0.00     0.068 A 
HETATM   17  C   UNL     1       7.761  22.350  55.229  1.00  0.00     0.037 A 
HETATM   18  C   UNL     1       7.214  23.610  55.488  1.00  0.00     0.010 A 
BRANCH  16  19
HETATM   19  O   UNL     1       8.687  20.737  53.824  1.00  0.00    -0.356 OA
HETATM   20  C   UNL     1       8.726  19.949  55.007  1.00  0.00     0.210 C 
ENDBRANCH  16  19
ENDBRANCH  12  13
ENDBRANCH  11  12
ENDBRANCH   7  11
ENDBRANCH   1   5
BRANCH   2  21
HETATM   21  C   UNL     1       8.212  30.808  60.397  1.00  0.00     0.147 A 
HETATM   22  N   UNL     1       9.052  30.343  61.344  1.00  0.00    -0.169 NA
HETATM   23  N   UNL     1       8.600  30.910  62.481  1.00  0.00    -0.277 N 
HETATM   24  H   UNL     1       9.099  30.717  63.343  1.00  0.00     0.189 HD
HETATM   25  C   UNL     1       7.517  31.733  62.314  1.00  0.00     0.063 A 
HETATM   26  C   UNL     1       7.238  31.668  60.965  1.00  0.00     0.071 A 
BRANCH  25  27
HETATM   27  C   UNL     1       6.892  32.511  63.381  1.00  0.00    -0.008 A 
HETATM   28  C   UNL     1       7.692  33.112  64.361  1.00  0.00     0.016 A 
HETATM   29  C   UNL     1       7.117  33.861  65.391  1.00  0.00     0.037 A 
HETATM   30  C   UNL     1       5.735  34.032  65.461  1.00  0.00     0.068 A 
HETATM   31  C   UNL     1       4.929  33.441  64.487  1.00  0.00     0.037 A 
HETATM   32  C   UNL     1       5.504  32.685  63.454  1.00  0.00     0.016 A 
BRANCH  30  33
HETATM   33  O   UNL     1       5.308  34.788  66.516  1.00  0.00    -0.356 OA
HETATM   34  C   UNL     1       4.613  34.113  67.556  1.00  0.00     0.210 C 
ENDBRANCH  30  33
ENDBRANCH  25  27
ENDBRANCH   2  21
TORSDOF 8
ENDMDL
MODEL 3
REMARK VINA RESULT:      -9.8      1.989     12.082
REMARK  8 active torsions:
REMARK  status: ('A' for Active; 'I' for Inactive)
REMARK    1  A    between atoms: O_2  and  C_3 
REMARK    2  A    between atoms: C_6  and  C_7 
REMARK    3  A    between atoms: C_7  and  C_8 
REMARK    4  A    between atoms: C_8  and  C_9 
REMARK    5  A    between atoms: C_11  and  N_12 
REMARK       I    between atoms: N_12  and  C_13 
REMARK    6  A    between atoms: C_13  and  C_14 
REMARK    7  A    between atoms: C_18  and  C_19 
REMARK    8  A    between atoms: C_22  and  O_23 
ROOT
HETATM    1  N   UNL     1       7.540  30.556  59.149  1.00  0.00    -0.149 N 
HETATM    2  C   UNL     1       8.160  30.757  60.355  1.00  0.00     0.290 C 
HETATM    3  O   UNL     1       9.175  30.208  60.772  1.00  0.00    -0.265 OA
HETATM    4  H   UNL     1       6.697  31.076  58.955  1.00  0.00     0.188 HD
ENDROOT
BRANCH   1   5
HETATM    5  C   UNL     1       7.955  29.678  58.195  1.00  0.00     0.747 A 
HETATM    6  N   UNL     1       7.186  28.572  57.931  1.00  0.00    -0.046 NA
HETATM    7  C   UNL     1       7.855  27.946  56.984  1.00  0.00     0.140 A 
HETATM    8  N   UNL     1       8.975  28.669  56.693  1.00  0.00    -0.248 N 
HETATM    9  N   UNL     1       9.062  29.758  57.458  1.00  0.00     0.020 NA
HETATM   10  H   UNL     1       9.705  28.482  56.015  1.00  0.00     0.191 HD
BRANCH   7  11
HETATM   11  C   UNL     1       7.517  26.683  56.276  1.00  0.00     0.085 C 
BRANCH  11  12
HETATM   12  C   UNL     1       7.787  25.455  57.152  1.00  0.00     0.046 C 
BRANCH  12  13
HETATM   13  C   UNL     1       8.047  24.215  56.332  1.00  0.00    -0.058 A 
HETATM   14  C   UNL     1       7.919  24.253  54.937  1.00  0.00     0.010 A 
HETATM   15  C   UNL     1       8.161  23.113  54.163  1.00  0.00     0.037 A 
HETATM   16  C   UNL     1       8.538  21.920  54.775  1.00  0.00     0.068 A 
HETATM   17  C   UNL     1       8.651  21.874  56.167  1.00  0.00     0.037 A 
HETATM   18  C   UNL     1       8.407  23.011  56.943  1.00  0.00     0.010 A 
BRANCH  16  19
HETATM   19  O   UNL     1       8.815  20.742  54.136  1.00  0.00    -0.356 OA
HETATM   20  C   UNL     1       8.100  20.482  52.935  1.00  0.00     0.210 C 
ENDBRANCH  16  19
ENDBRANCH  12  13
ENDBRANCH  11  12
ENDBRANCH   7  11
ENDBRANCH   1   5
BRANCH   2  21
HETATM   21  C   UNL     1       7.450  31.742  61.191  1.00  0.00     0.147 A 
HETATM   22  N   UNL     1       6.696  32.737  60.681  1.00  0.00    -0.169 NA
HETATM   23  N   UNL     1       6.224  33.374  61.771  1.00  0.00    -0.277 N 
HETATM   24  H   UNL     1       5.602  34.164  61.632  1.00  0.00     0.189 HD
HETATM   25  C   UNL     1       6.623  32.831  62.965  1.00  0.00     0.063 A 
HETATM   26  C   UNL     1       7.436  31.775  62.609  1.00  0.00     0.071 A 
BRANCH  25  27
HETATM   27  C   UNL     1       6.190  33.301  64.279  1.00  0.00    -0.008 A 
HETATM   28  C   UNL     1       7.146  33.629  65.248  1.00  0.00     0.016 A 
HETATM   29  C   UNL     1       6.756  34.082  66.511  1.00  0.00     0.037 A 
HETATM   30  C   UNL     1       5.406  34.222  66.830  1.00  0.00     0.068 A 
HETATM   31  C   UNL     1       4.445  33.902  65.871  1.00  0.00     0.037 A 
HETATM   32  C   UNL     1       4.835  33.444  64.603  1.00  0.00     0.016 A 
BRANCH  30  33
HETATM   33  O   UNL     1       5.166  34.675  68.097  1.00  0.00    -0.356 OA
HETATM   34  C   UNL     1       6.036  34.218  69.124  1.00  0.00     0.210 C 
ENDBRANCH  30  33
ENDBRANCH  25  27
ENDBRANCH   2  21
TORSDOF 8
ENDMDL
MODEL 4
REMARK VINA RESULT:      -9.5      2.105     11.946
REMARK  8 active torsions:
REMARK  status: ('A' for Active; 'I' for Inactive)
REMARK    1  A    between atoms: O_2  and  C_3 
REMARK    2  A    between atoms: C_6  and  C_7 
REMARK    3  A    between atoms: C_7  and  C_8 
REMARK    4  A    between atoms: C_8  and  C_9 
REMARK    5  A    between atoms: C_11  and  N_12 
REMARK       I    between atoms: N_12  and  C_13 
REMARK    6  A    between atoms: C_13  and  C_14 
REMARK    7  A    between atoms: C_18  and  C_19 
REMARK    8  A    between atoms: C_22  and  O_23 
ROOT
HETATM    1  N   UNL     1       6.748  30.105  58.462  1.00  0.00    -0.149 N 
HETATM    2  C   UNL     1       7.478  31.202  58.842  1.00  0.00     0.290 C 
HETATM    3  O   UNL     1       8.566  31.561  58.403  1.00  0.00    -0.265 OA
HETATM    4  H   UNL     1       5.870  29.932  58.930  1.00  0.00     0.188 HD
ENDROOT
BRANCH   1   5
HETATM    5  C   UNL     1       7.129  29.203  57.516  1.00  0.00     0.747 A 
HETATM    6  N   UNL     1       6.233  28.850  56.537  1.00  0.00    -0.046 NA
HETATM    7  C   UNL     1       6.899  27.982  55.804  1.00  0.00     0.140 A 
HETATM    8  N   UNL     1       8.151  27.839  56.329  1.00  0.00    -0.248 N 
HETATM    9  N   UNL     1       8.308  28.592  57.418  1.00  0.00     0.020 NA
HETATM   10  H   UNL     1       8.920  27.259  56.014  1.00  0.00     0.191 HD
BRANCH   7  11
HETATM   11  C   UNL     1       6.459  27.251  54.586  1.00  0.00     0.085 C 
BRANCH  11  12
HETATM   12  C   UNL     1       7.649  26.659  53.822  1.00  0.00     0.046 C 
BRANCH  12  13
HETATM   13  C   UNL     1       7.655  25.151  53.856  1.00  0.00    -0.058 A 
HETATM   14  C   UNL     1       7.572  24.472  55.079  1.00  0.00     0.010 A 
HETATM   15  C   UNL     1       7.570  23.074  55.125  1.00  0.00     0.037 A 
HETATM   16  C   UNL     1       7.650  22.335  53.947  1.00  0.00     0.068 A 
HETATM   17  C   UNL     1       7.749  23.009  52.726  1.00  0.00     0.037 A 
HETATM   18  C   UNL     1       7.753  24.406  52.677  1.00  0.00     0.010 A 
BRANCH  16  19
HETATM   19  O   UNL     1       7.646  20.971  53.852  1.00  0.00    -0.356 OA
HETATM   20  C   UNL     1       8.753  20.372  53.192  1.00  0.00     0.210 C 
ENDBRANCH  16  19
ENDBRANCH  12  13
ENDBRANCH  11  12
ENDBRANCH   7  11
ENDBRANCH   1   5
BRANCH   2  21
HETATM   21  C   UNL     1       6.821  31.965  59.918  1.00  0.00     0.147 A 
HETATM   22  N   UNL     1       5.674  32.652  59.742  1.00  0.00    -0.169 NA
HETATM   23  N   UNL     1       5.421  33.172  60.960  1.00  0.00    -0.277 N 
HETATM   24  H   UNL     1       4.578  33.725  61.078  1.00  0.00     0.189 HD
HETATM   25  C   UNL     1       6.339  32.841  61.922  1.00  0.00     0.063 A 
HETATM   26  C   UNL     1       7.269  32.067  61.260  1.00  0.00     0.071 A 
BRANCH  25  27
HETATM   27  C   UNL     1       6.245  33.226  63.329  1.00  0.00    -0.008 A 
HETATM   28  C   UNL     1       4.987  33.397  63.918  1.00  0.00     0.016 A 
HETATM   29  C   UNL     1       4.871  33.763  65.261  1.00  0.00     0.037 A 
HETATM   30  C   UNL     1       6.008  33.960  66.044  1.00  0.00     0.068 A 
HETATM   31  C   UNL     1       7.266  33.788  65.469  1.00  0.00     0.037 A 
HETATM   32  C   UNL     1       7.384  33.424  64.119  1.00  0.00     0.016 A 
BRANCH  30  33
HETATM   33  O   UNL     1       5.751  34.313  67.339  1.00  0.00    -0.356 OA
HETATM   34  C   UNL     1       4.461  34.003  67.851  1.00  0.00     0.210 C 
ENDBRANCH  30  33
ENDBRANCH  25  27
ENDBRANCH   2  21
TORSDOF 8
ENDMDL
MODEL 5
REMARK VINA RESULT:      -9.1      1.968     11.420
REMARK  8 active torsions:
REMARK  status: ('A' for Active; 'I' for Inactive)
REMARK    1  A    between atoms: O_2  and  C_3 
REMARK    2  A    between atoms: C_6  and  C_7 
REMARK    3  A    between atoms: C_7  and  C_8 
REMARK    4  A    between atoms: C_8  and  C_9 
REMARK    5  A    between atoms: C_11  and  N_12 
REMARK       I    between atoms: N_12  and  C_13 
REMARK    6  A    between atoms: C_13  and  C_14 
REMARK    7  A    between atoms: C_18  and  C_19 
REMARK    8  A    between atoms: C_22  and  O_23 
ROOT
HETATM    1  N   UNL     1       7.533  29.110  56.650  1.00  0.00    -0.149 N 
HETATM    2  C   UNL     1       6.877  30.261  57.006  1.00  0.00     0.290 C 
HETATM    3  O   UNL     1       5.968  30.818  56.400  1.00  0.00    -0.265 OA
HETATM    4  H   UNL     1       8.276  28.781  57.249  1.00  0.00     0.188 HD
ENDROOT
BRANCH   1   5
HETATM    5  C   UNL     1       7.282  28.385  55.526  1.00  0.00     0.747 A 
HETATM    6  N   UNL     1       6.240  27.492  55.531  1.00  0.00    -0.046 NA
HETATM    7  C   UNL     1       6.271  26.969  54.323  1.00  0.00     0.140 A 
HETATM    8  N   UNL     1       7.293  27.546  53.626  1.00  0.00    -0.248 N 
HETATM    9  N   UNL     1       7.951  28.431  54.375  1.00  0.00     0.020 NA
HETATM   10  H   UNL     1       7.596  27.383  52.672  1.00  0.00     0.191 HD
BRANCH   7  11
HETATM   11  C   UNL     1       5.378  25.943  53.721  1.00  0.00     0.085 C 
BRANCH  11  12
HETATM   12  C   UNL     1       6.141  25.022  52.762  1.00  0.00     0.046 C 
BRANCH  12  13
HETATM   13  C   UNL     1       6.972  23.998  53.496  1.00  0.00    -0.058 A 
HETATM   14  C   UNL     1       7.845  23.160  52.789  1.00  0.00     0.010 A 
HETATM   15  C   UNL     1       8.625  22.210  53.456  1.00  0.00     0.037 A 
HETATM   16  C   UNL     1       8.544  22.087  54.841  1.00  0.00     0.068 A 
HETATM   17  C   UNL     1       7.663  22.909  55.548  1.00  0.00     0.037 A 
HETATM   18  C   UNL     1       6.880  23.858  54.884  1.00  0.00     0.010 A 
BRANCH  16  19
HETATM   19  O   UNL     1       9.257  21.211  55.612  1.00  0.00    -0.356 OA
HETATM   20  C   UNL     1       8.510  20.256  56.355  1.00  0.00     0.210 C 
ENDBRANCH  16  19
ENDBRANCH  12  13
ENDBRANCH  11  12
ENDBRANCH   7  11
ENDBRANCH   1   5
BRANCH   2  21
HETATM   21  C   UNL     1       7.401  30.838  58.258  1.00  0.00     0.147 A 
HETATM   22  N   UNL     1       8.717  30.987  58.508  1.00  0.00    -0.169 NA
HETATM   23  N   UNL     1       8.750  31.559  59.728  1.00  0.00    -0.277 N 
HETATM   24  H   UNL     1       9.655  31.790  60.125  1.00  0.00     0.189 HD
HETATM   25  C   UNL     1       7.517  31.804  60.275  1.00  0.00     0.063 A 
HETATM   26  C   UNL     1       6.623  31.327  59.338  1.00  0.00     0.071 A 
BRANCH  25  27
HETATM   27  C   UNL     1       7.292  32.477  61.552  1.00  0.00    -0.008 A 
HETATM   28  C   UNL     1       8.118  32.185  62.644  1.00  0.00     0.016 A 
HETATM   29  C   UNL     1       7.924  32.816  63.875  1.00  0.00     0.037 A 
HETATM   30  C   UNL     1       6.906  33.755  64.040  1.00  0.00     0.068 A 
HETATM   31  C   UNL     1       6.080  34.056  62.958  1.00  0.00     0.037 A 
HETATM   32  C   UNL     1       6.271  33.421  61.721  1.00  0.00     0.016 A 
BRANCH  30  33
HETATM   33  O   UNL     1       6.829  34.295  65.293  1.00  0.00    -0.356 OA
HETATM   34  C   UNL     1       5.635  34.060  66.027  1.00  0.00     0.210 C 
ENDBRANCH  30  33
ENDBRANCH  25  27
ENDBRANCH   2  21
TORSDOF 8
ENDMDL
MODEL 6
REMARK VINA RESULT:      -8.7      2.644     12.001
REMARK  8 active torsions:
REMARK  status: ('A' for Active; 'I' for Inactive)
REMARK    1  A    between atoms: O_2  and  C_3 
REMARK    2  A    between atoms: C_6  and  C_7 
REMARK    3  A    between atoms: C_7  and  C_8 
REMARK    4  A    between atoms: C_8  and  C_9 
REMARK    5  A    between atoms: C_11  and  N_12 
REMARK       I    between atoms: N_12  and  C_13 
REMARK    6  A    between atoms: C_13  and  C_14 
REMARK    7  A    between atoms: C_18  and  C_19 
REMARK    8  A    between atoms: C_22  and  O_23 
ROOT
HETATM    1  N   UNL     1       4.625  30.079  58.333  1.00  0.00    -0.149 N 
HETATM    2  C   UNL     1       4.475  31.437  58.216  1.00  0.00     0.290 C 
HETATM    3  O   UNL     1       4.639  32.120  57.210  1.00  0.00    -0.265 OA
HETATM    4  H   UNL     1       4.469  29.659  59.238  1.00  0.00     0.188 HD
ENDROOT
BRANCH   1   5
HETATM    5  C   UNL     1       5.001  29.245  57.324  1.00  0.00     0.747 A 
HETATM    6  N   UNL     1       6.295  28.791  57.286  1.00  0.00    -0.046 NA
HETATM    7  C   UNL     1       6.327  28.029  56.213  1.00  0.00     0.140 A 
HETATM    8  N   UNL     1       5.086  28.026  55.646  1.00  0.00    -0.248 N 
HETATM    9  N   UNL     1       4.240  28.800  56.325  1.00  0.00     0.020 NA
HETATM   10  H   UNL     1       4.758  27.543  54.816  1.00  0.00     0.191 HD
BRANCH   7  11
HETATM   11  C   UNL     1       7.461  27.247  55.652  1.00  0.00     0.085 C 
BRANCH  11  12
HETATM   12  C   UNL     1       7.126  26.682  54.267  1.00  0.00     0.046 C 
BRANCH  12  13
HETATM   13  C   UNL     1       7.357  25.192  54.189  1.00  0.00    -0.058 A 
HETATM   14  C   UNL     1       7.794  24.608  52.992  1.00  0.00     0.010 A 
HETATM   15  C   UNL     1       8.017  23.230  52.907  1.00  0.00     0.037 A 
HETATM   16  C   UNL     1       7.808  22.417  54.019  1.00  0.00     0.068 A 
HETATM   17  C   UNL     1       7.356  22.994  55.208  1.00  0.00     0.037 A 
HETATM   18  C   UNL     1       7.130  24.371  55.297  1.00  0.00     0.010 A 
BRANCH  16  19
HETATM   19  O   UNL     1       7.999  21.064  54.072  1.00  0.00    -0.356 OA
HETATM   20  C   UNL     1       8.313  20.413  52.847  1.00  0.00     0.210 C 
ENDBRANCH  16  19
ENDBRANCH  12  13
ENDBRANCH  11  12
ENDBRANCH   7  11
ENDBRANCH   1   5
BRANCH   2  21
HETATM   21  C   UNL     1       4.099  32.069  59.493  1.00  0.00     0.147 A 
HETATM   22  N   UNL     1       2.827  32.375  59.819  1.00  0.00    -0.169 NA
HETATM   23  N   UNL     1       2.930  32.906  61.054  1.00  0.00    -0.277 N 
HETATM   24  H   UNL     1       2.079  33.198  61.522  1.00  0.00     0.189 HD
HETATM   25  C   UNL     1       4.207  32.944  61.552  1.00  0.00     0.063 A 
HETATM   26  C   UNL     1       4.986  32.417  60.543  1.00  0.00     0.071 A 
BRANCH  25  27
HETATM   27  C   UNL     1       4.564  33.408  62.890  1.00  0.00    -0.008 A 
HETATM   28  C   UNL     1       3.610  34.074  63.670  1.00  0.00     0.016 A 
HETATM   29  C   UNL     1       3.928  34.526  64.954  1.00  0.00     0.037 A 
HETATM   30  C   UNL     1       5.200  34.320  65.486  1.00  0.00     0.068 A 
HETATM   31  C   UNL     1       6.156  33.655  64.719  1.00  0.00     0.037 A 
HETATM   32  C   UNL     1       5.840  33.202  63.429  1.00  0.00     0.016 A 
BRANCH  30  33
HETATM   33  O   UNL     1       5.374  34.811  66.749  1.00  0.00    -0.356 OA
HETATM   34  C   UNL     1       6.411  34.233  67.531  1.00  0.00     0.210 C 
ENDBRANCH  30  33
ENDBRANCH  25  27
ENDBRANCH   2  21
TORSDOF 8
ENDMDL
MODEL 7
REMARK VINA RESULT:      -8.7      2.563     12.031
REMARK  8 active torsions:
REMARK  status: ('A' for Active; 'I' for Inactive)
REMARK    1  A    between atoms: O_2  and  C_3 
REMARK    2  A    between atoms: C_6  and  C_7 
REMARK    3  A    between atoms: C_7  and  C_8 
REMARK    4  A    between atoms: C_8  and  C_9 
REMARK    5  A    between atoms: C_11  and  N_12 
REMARK       I    between atoms: N_12  and  C_13 
REMARK    6  A    between atoms: C_13  and  C_14 
REMARK    7  A    between atoms: C_18  and  C_19 
REMARK    8  A    between atoms: C_22  and  O_23 
ROOT
HETATM    1  N   UNL     1       7.653  30.539  59.360  1.00  0.00    -0.149 N 
HETATM    2  C   UNL     1       8.223  30.744  60.590  1.00  0.00     0.290 C 
HETATM    3  O   UNL     1       9.241  30.224  61.035  1.00  0.00    -0.265 OA
HETATM    4  H   UNL     1       6.799  31.032  59.143  1.00  0.00     0.188 HD
ENDROOT
BRANCH   1   5
HETATM    5  C   UNL     1       8.133  29.691  58.409  1.00  0.00     0.747 A 
HETATM    6  N   UNL     1       7.404  28.574  58.087  1.00  0.00    -0.046 NA
HETATM    7  C   UNL     1       8.130  27.984  57.160  1.00  0.00     0.140 A 
HETATM    8  N   UNL     1       9.245  28.739  56.936  1.00  0.00    -0.248 N 
HETATM    9  N   UNL     1       9.270  29.812  57.726  1.00  0.00     0.020 NA
HETATM   10  H   UNL     1      10.010  28.582  56.289  1.00  0.00     0.191 HD
BRANCH   7  11
HETATM   11  C   UNL     1       7.856  26.728  56.412  1.00  0.00     0.085 C 
BRANCH  11  12
HETATM   12  C   UNL     1       8.065  25.490  57.291  1.00  0.00     0.046 C 
BRANCH  12  13
HETATM   13  C   UNL     1       7.946  24.207  56.506  1.00  0.00    -0.058 A 
HETATM   14  C   UNL     1       7.324  24.203  55.250  1.00  0.00     0.010 A 
HETATM   15  C   UNL     1       7.211  23.022  54.509  1.00  0.00     0.037 A 
HETATM   16  C   UNL     1       7.721  21.828  55.013  1.00  0.00     0.068 A 
HETATM   17  C   UNL     1       8.327  21.825  56.273  1.00  0.00     0.037 A 
HETATM   18  C   UNL     1       8.440  23.003  57.017  1.00  0.00     0.010 A 
BRANCH  16  19
HETATM   19  O   UNL     1       7.687  20.613  54.388  1.00  0.00    -0.356 OA
HETATM   20  C   UNL     1       8.204  20.558  53.065  1.00  0.00     0.210 C 
ENDBRANCH  16  19
ENDBRANCH  12  13
ENDBRANCH  11  12
ENDBRANCH   7  11
ENDBRANCH   1   5
BRANCH   2  21
HETATM   21  C   UNL     1       7.449  31.690  61.414  1.00  0.00     0.147 A 
HETATM   22  N   UNL     1       7.329  31.578  62.752  1.00  0.00    -0.169 NA
HETATM   23  N   UNL     1       6.572  32.639  63.097  1.00  0.00    -0.277 N 
HETATM   24  H   UNL     1       6.361  32.777  64.080  1.00  0.00     0.189 HD
HETATM   25  C   UNL     1       6.209  33.444  62.048  1.00  0.00     0.063 A 
HETATM   26  C   UNL     1       6.758  32.834  60.939  1.00  0.00     0.071 A 
BRANCH  25  27
HETATM   27  C   UNL     1       5.450  34.686  62.177  1.00  0.00    -0.008 A 
HETATM   28  C   UNL     1       4.428  34.972  61.264  1.00  0.00     0.016 A 
HETATM   29  C   UNL     1       3.688  36.152  61.367  1.00  0.00     0.037 A 
HETATM   30  C   UNL     1       3.949  37.068  62.386  1.00  0.00     0.068 A 
HETATM   31  C   UNL     1       4.962  36.791  63.304  1.00  0.00     0.037 A 
HETATM   32  C   UNL     1       5.708  35.607  63.199  1.00  0.00     0.016 A 
BRANCH  30  33
HETATM   33  O   UNL     1       3.150  38.177  62.371  1.00  0.00    -0.356 OA
HETATM   34  C   UNL     1       3.385  39.129  61.341  1.00  0.00     0.210 C 
ENDBRANCH  30  33
ENDBRANCH  25  27
ENDBRANCH   2  21
TORSDOF 8
ENDMDL
MODEL 8
REMARK VINA RESULT:      -8.7      2.381      2.763
REMARK  8 active torsions:
REMARK  status: ('A' for Active; 'I' for Inactive)
REMARK    1  A    between atoms: O_2  and  C_3 
REMARK    2  A    between atoms: C_6  and  C_7 
REMARK    3  A    between atoms: C_7  and  C_8 
REMARK    4  A    between atoms: C_8  and  C_9 
REMARK    5  A    between atoms: C_11  and  N_12 
REMARK       I    between atoms: N_12  and  C_13 
REMARK    6  A    between atoms: C_13  and  C_14 
REMARK    7  A    between atoms: C_18  and  C_19 
REMARK    8  A    between atoms: C_22  and  O_23 
ROOT
HETATM    1  N   UNL     1       6.154  30.236  56.543  1.00  0.00    -0.149 N 
HETATM    2  C   UNL     1       5.324  29.219  56.144  1.00  0.00     0.290 C 
HETATM    3  O   UNL     1       4.123  29.106  56.370  1.00  0.00    -0.265 OA
HETATM    4  H   UNL     1       7.130  30.179  56.292  1.00  0.00     0.188 HD
ENDROOT
BRANCH   1   5
HETATM    5  C   UNL     1       5.770  31.310  57.286  1.00  0.00     0.747 A 
HETATM    6  N   UNL     1       5.915  31.260  58.649  1.00  0.00    -0.046 NA
HETATM    7  C   UNL     1       5.460  32.427  59.055  1.00  0.00     0.140 A 
HETATM    8  N   UNL     1       5.071  33.145  57.961  1.00  0.00    -0.248 N 
HETATM    9  N   UNL     1       5.246  32.450  56.837  1.00  0.00     0.020 NA
HETATM   10  H   UNL     1       4.680  34.080  57.909  1.00  0.00     0.191 HD
BRANCH   7  11
HETATM   11  C   UNL     1       5.368  32.970  60.436  1.00  0.00     0.085 C 
BRANCH  11  12
HETATM   12  C   UNL     1       6.556  32.526  61.297  1.00  0.00     0.046 C 
BRANCH  12  13
HETATM   13  C   UNL     1       6.401  32.942  62.740  1.00  0.00    -0.058 A 
HETATM   14  C   UNL     1       7.531  33.095  63.555  1.00  0.00     0.010 A 
HETATM   15  C   UNL     1       7.403  33.485  64.892  1.00  0.00     0.037 A 
HETATM   16  C   UNL     1       6.142  33.731  65.432  1.00  0.00     0.068 A 
HETATM   17  C   UNL     1       5.013  33.564  64.626  1.00  0.00     0.037 A 
HETATM   18  C   UNL     1       5.137  33.172  63.290  1.00  0.00     0.010 A 
BRANCH  16  19
HETATM   19  O   UNL     1       5.881  34.127  66.714  1.00  0.00    -0.356 OA
HETATM   20  C   UNL     1       4.977  35.213  66.878  1.00  0.00     0.210 C 
ENDBRANCH  16  19
ENDBRANCH  12  13
ENDBRANCH  11  12
ENDBRANCH   7  11
ENDBRANCH   1   5
BRANCH   2  21
HETATM   21  C   UNL     1       6.041  28.178  55.387  1.00  0.00     0.147 A 
HETATM   22  N   UNL     1       6.949  28.454  54.430  1.00  0.00    -0.169 NA
HETATM   23  N   UNL     1       7.365  27.239  54.020  1.00  0.00    -0.277 N 
HETATM   24  H   UNL     1       8.080  27.194  53.301  1.00  0.00     0.189 HD
HETATM   25  C   UNL     1       6.782  26.186  54.678  1.00  0.00     0.063 A 
HETATM   26  C   UNL     1       5.904  26.777  55.563  1.00  0.00     0.071 A 
BRANCH  25  27
HETATM   27  C   UNL     1       7.117  24.781  54.461  1.00  0.00    -0.008 A 
HETATM   28  C   UNL     1       7.384  24.324  53.164  1.00  0.00     0.016 A 
HETATM   29  C   UNL     1       7.708  22.985  52.932  1.00  0.00     0.037 A 
HETATM   30  C   UNL     1       7.778  22.077  53.987  1.00  0.00     0.068 A 
HETATM   31  C   UNL     1       7.518  22.522  55.283  1.00  0.00     0.037 A 
HETATM   32  C   UNL     1       7.189  23.866  55.518  1.00  0.00     0.016 A 
BRANCH  30  33
HETATM   33  O   UNL     1       8.107  20.803  53.620  1.00  0.00    -0.356 OA
HETATM   34  C   UNL     1       8.800  20.012  54.576  1.00  0.00     0.210 C 
ENDBRANCH  30  33
ENDBRANCH  25  27
ENDBRANCH   2  21
TORSDOF 8
ENDMDL
MODEL 9
REMARK VINA RESULT:      -8.5      2.206      3.016
REMARK  8 active torsions:
REMARK  status: ('A' for Active; 'I' for Inactive)
REMARK    1  A    between atoms: O_2  and  C_3 
REMARK    2  A    between atoms: C_6  and  C_7 
REMARK    3  A    between atoms: C_7  and  C_8 
REMARK    4  A    between atoms: C_8  and  C_9 
REMARK    5  A    between atoms: C_11  and  N_12 
REMARK       I    between atoms: N_12  and  C_13 
REMARK    6  A    between atoms: C_13  and  C_14 
REMARK    7  A    between atoms: C_18  and  C_19 
REMARK    8  A    between atoms: C_22  and  O_23 
ROOT
HETATM    1  N   UNL     1       6.663  30.357  58.331  1.00  0.00    -0.149 N 
HETATM    2  C   UNL     1       6.232  29.728  57.191  1.00  0.00     0.290 C 
HETATM    3  O   UNL     1       5.383  30.122  56.398  1.00  0.00    -0.265 OA
HETATM    4  H   UNL     1       7.363  29.896  58.894  1.00  0.00     0.188 HD
ENDROOT
BRANCH   1   5
HETATM    5  C   UNL     1       6.195  31.552  58.787  1.00  0.00     0.747 A 
HETATM    6  N   UNL     1       6.039  31.730  60.139  1.00  0.00    -0.046 NA
HETATM    7  C   UNL     1       5.579  32.960  60.240  1.00  0.00     0.140 A 
HETATM    8  N   UNL     1       5.480  33.491  58.987  1.00  0.00    -0.248 N 
HETATM    9  N   UNL     1       5.851  32.611  58.057  1.00  0.00     0.020 NA
HETATM   10  H   UNL     1       5.168  34.412  58.699  1.00  0.00     0.191 HD
BRANCH   7  11
HETATM   11  C   UNL     1       5.225  33.732  61.461  1.00  0.00     0.085 C 
BRANCH  11  12
HETATM   12  C   UNL     1       6.471  34.129  62.259  1.00  0.00     0.046 C 
BRANCH  12  13
HETATM   13  C   UNL     1       6.204  34.186  63.744  1.00  0.00    -0.058 A 
HETATM   14  C   UNL     1       4.965  34.637  64.220  1.00  0.00     0.010 A 
HETATM   15  C   UNL     1       4.701  34.690  65.593  1.00  0.00     0.037 A 
HETATM   16  C   UNL     1       5.672  34.291  66.508  1.00  0.00     0.068 A 
HETATM   17  C   UNL     1       6.914  33.856  66.037  1.00  0.00     0.037 A 
HETATM   18  C   UNL     1       7.182  33.804  64.666  1.00  0.00     0.010 A 
BRANCH  16  19
HETATM   19  O   UNL     1       5.538  34.283  67.869  1.00  0.00    -0.356 OA
HETATM   20  C   UNL     1       6.730  34.429  68.631  1.00  0.00     0.210 C 
ENDBRANCH  16  19
ENDBRANCH  12  13
ENDBRANCH  11  12
ENDBRANCH   7  11
ENDBRANCH   1   5
BRANCH   2  21
HETATM   21  C   UNL     1       6.900  28.430  56.984  1.00  0.00     0.147 A 
HETATM   22  N   UNL     1       7.688  27.849  57.910  1.00  0.00    -0.169 NA
HETATM   23  N   UNL     1       8.066  26.692  57.331  1.00  0.00    -0.277 N 
HETATM   24  H   UNL     1       8.662  26.063  57.860  1.00  0.00     0.189 HD
HETATM   25  C   UNL     1       7.546  26.486  56.079  1.00  0.00     0.063 A 
HETATM   26  C   UNL     1       6.795  27.615  55.828  1.00  0.00     0.071 A 
BRANCH  25  27
HETATM   27  C   UNL     1       7.753  25.280  55.280  1.00  0.00    -0.008 A 
HETATM   28  C   UNL     1       8.274  24.130  55.884  1.00  0.00     0.016 A 
HETATM   29  C   UNL     1       8.480  22.964  55.142  1.00  0.00     0.037 A 
HETATM   30  C   UNL     1       8.166  22.922  53.784  1.00  0.00     0.068 A 
HETATM   31  C   UNL     1       7.643  24.061  53.173  1.00  0.00     0.037 A 
HETATM   32  C   UNL     1       7.438  25.233  53.917  1.00  0.00     0.016 A 
BRANCH  30  33
HETATM   33  O   UNL     1       8.415  21.721  53.180  1.00  0.00    -0.356 OA
HETATM   34  C   UNL     1       8.010  20.550  53.877  1.00  0.00     0.210 C 
ENDBRANCH  30  33
ENDBRANCH  25  27
ENDBRANCH   2  21
TORSDOF 8
ENDMDL
MODEL 10
REMARK VINA RESULT:      -8.3      4.065     12.110
REMARK  8 active torsions:
REMARK  status: ('A' for Active; 'I' for Inactive)
REMARK    1  A    between atoms: O_2  and  C_3 
REMARK    2  A    between atoms: C_6  and  C_7 
REMARK    3  A    between atoms: C_7  and  C_8 
REMARK    4  A    between atoms: C_8  and  C_9 
REMARK    5  A    between atoms: C_11  and  N_12 
REMARK       I    between atoms: N_12  and  C_13 
REMARK    6  A    between atoms: C_13  and  C_14 
REMARK    7  A    between atoms: C_18  and  C_19 
REMARK    8  A    between atoms: C_22  and  O_23 
ROOT
HETATM    1  N   UNL     1       6.994  30.030  58.378  1.00  0.00    -0.149 N 
HETATM    2  C   UNL     1       6.805  31.341  58.735  1.00  0.00     0.290 C 
HETATM    3  O   UNL     1       6.480  32.272  58.005  1.00  0.00    -0.265 OA
HETATM    4  H   UNL     1       7.279  29.379  59.095  1.00  0.00     0.188 HD
ENDROOT
BRANCH   1   5
HETATM    5  C   UNL     1       6.859  29.537  57.116  1.00  0.00     0.747 A 
HETATM    6  N   UNL     1       5.675  28.943  56.760  1.00  0.00    -0.046 NA
HETATM    7  C   UNL     1       5.871  28.583  55.508  1.00  0.00     0.140 A 
HETATM    8  N   UNL     1       7.128  28.965  55.139  1.00  0.00    -0.248 N 
HETATM    9  N   UNL     1       7.771  29.556  56.146  1.00  0.00     0.020 NA
HETATM   10  H   UNL     1       7.601  28.850  54.249  1.00  0.00     0.191 HD
BRANCH   7  11
HETATM   11  C   UNL     1       4.940  27.898  54.572  1.00  0.00     0.085 C 
BRANCH  11  12
HETATM   12  C   UNL     1       5.680  26.918  53.655  1.00  0.00     0.046 C 
BRANCH  12  13
HETATM   13  C   UNL     1       5.451  27.221  52.194  1.00  0.00    -0.058 A 
HETATM   14  C   UNL     1       5.127  26.190  51.302  1.00  0.00     0.010 A 
HETATM   15  C   UNL     1       4.907  26.457  49.947  1.00  0.00     0.037 A 
HETATM   16  C   UNL     1       5.006  27.761  49.466  1.00  0.00     0.068 A 
HETATM   17  C   UNL     1       5.345  28.789  50.349  1.00  0.00     0.037 A 
HETATM   18  C   UNL     1       5.567  28.525  51.704  1.00  0.00     0.010 A 
BRANCH  16  19
HETATM   19  O   UNL     1       4.805  28.157  48.172  1.00  0.00    -0.356 OA
HETATM   20  C   UNL     1       4.573  29.543  47.955  1.00  0.00     0.210 C 
ENDBRANCH  16  19
ENDBRANCH  12  13
ENDBRANCH  11  12
ENDBRANCH   7  11
ENDBRANCH   1   5
BRANCH   2  21
HETATM   21  C   UNL     1       7.065  31.573  60.167  1.00  0.00     0.147 A 
HETATM   22  N   UNL     1       8.203  31.194  60.782  1.00  0.00    -0.169 NA
HETATM   23  N   UNL     1       8.035  31.610  62.053  1.00  0.00    -0.277 N 
HETATM   24  H   UNL     1       8.789  31.449  62.713  1.00  0.00     0.189 HD
HETATM   25  C   UNL     1       6.849  32.257  62.289  1.00  0.00     0.063 A 
HETATM   26  C   UNL     1       6.195  32.230  61.075  1.00  0.00     0.071 A 
BRANCH  25  27
HETATM   27  C   UNL     1       6.469  32.858  63.565  1.00  0.00    -0.008 A 
HETATM   28  C   UNL     1       7.463  33.256  64.467  1.00  0.00     0.016 A 
HETATM   29  C   UNL     1       7.124  33.834  65.694  1.00  0.00     0.037 A 
HETATM   30  C   UNL     1       5.788  34.031  66.041  1.00  0.00     0.068 A 
HETATM   31  C   UNL     1       4.790  33.642  65.148  1.00  0.00     0.037 A 
HETATM   32  C   UNL     1       5.129  33.058  63.918  1.00  0.00     0.016 A 
BRANCH  30  33
HETATM   33  O   UNL     1       5.599  34.607  67.266  1.00  0.00    -0.356 OA
HETATM   34  C   UNL     1       4.815  35.792  67.310  1.00  0.00     0.210 C 
ENDBRANCH  30  33
ENDBRANCH  25  27
ENDBRANCH   2  21
TORSDOF 8
ENDMDL
