MODEL 1
REMARK VINA RESULT:     -10.5      0.000      0.000
REMARK  6 active torsions:
REMARK  status: ('A' for Active; 'I' for Inactive)
REMARK    1  A    between atoms: C_3  and  C_4 
REMARK    2  A    between atoms: C_4  and  C_5 
REMARK    3  A    between atoms: N_8  and  C_10 
REMARK    4  A    between atoms: C_10  and  C_11 
REMARK    5  A    between atoms: N_24  and  C_25 
REMARK    6  A    between atoms: C_25  and  C_26 
ROOT
HETATM    1  C   UNL     1       6.543  28.105  56.315  1.00  0.00     0.164 C 
HETATM    2  N   UNL     1       7.978  28.138  56.077  1.00  0.00    -0.319 N 
HETATM    3  C   UNL     1       8.569  29.232  56.671  1.00  0.00     0.326 C 
HETATM    4  O   UNL     1       9.724  29.550  56.452  1.00  0.00    -0.247 OA
HETATM    5  N   UNL     1       7.660  29.857  57.460  1.00  0.00    -0.265 N 
HETATM    6  C   UNL     1       6.411  29.369  57.196  1.00  0.00     0.263 C 
HETATM    7  O   UNL     1       5.354  29.826  57.610  1.00  0.00    -0.270 OA
HETATM    8  H   UNL     1       8.327  27.933  55.144  1.00  0.00     0.166 HD
ENDROOT
BRANCH   1   9
HETATM    9  C   UNL     1       5.820  28.232  54.977  1.00  0.00     0.072 A 
HETATM   10  C   UNL     1       4.440  28.375  54.869  1.00  0.00     0.030 A 
HETATM   11  C   UNL     1       3.871  28.481  53.602  1.00  0.00     0.003 A 
HETATM   12  C   UNL     1       4.682  28.430  52.476  1.00  0.00     0.019 A 
HETATM   13  C   UNL     1       6.041  28.258  52.658  1.00  0.00     0.117 A 
HETATM   14  N   UNL     1       6.625  28.137  53.873  1.00  0.00    -0.262 NA
ENDBRANCH   1   9
BRANCH   1  15
HETATM   15  C   UNL     1       6.108  26.839  57.137  1.00  0.00     0.033 C 
HETATM   16  C   UNL     1       7.188  26.293  58.099  1.00  0.00     0.036 C 
HETATM   17  C   UNL     1       8.327  25.531  57.422  1.00  0.00     0.235 C 
HETATM   18  N   UNL     1       7.804  24.473  56.478  1.00  0.00    -0.067 N 
HETATM   19  H   UNL     1       7.409  23.722  57.062  1.00  0.00     0.280 HD
HETATM   20  C   UNL     1       6.718  24.950  55.539  1.00  0.00     0.235 C 
HETATM   21  C   UNL     1       5.609  25.643  56.306  1.00  0.00     0.036 C 
BRANCH  18  22
HETATM   22  C   UNL     1       8.914  23.824  55.651  1.00  0.00     0.278 C 
BRANCH  22  23
HETATM   23  C   UNL     1       8.543  22.610  54.856  1.00  0.00     0.028 A 
HETATM   24  C   UNL     1       8.322  21.350  55.424  1.00  0.00     0.045 A 
HETATM   25 CL   UNL     1       8.516  21.097  57.120  1.00  0.00    -0.084 Cl
HETATM   26  C   UNL     1       7.958  20.262  54.625  1.00  0.00     0.024 A 
HETATM   27  C   UNL     1       7.807  20.418  53.247  1.00  0.00     0.005 A 
HETATM   28  C   UNL     1       8.020  21.666  52.667  1.00  0.00     0.043 A 
HETATM   29  C   UNL     1       8.382  22.740  53.472  1.00  0.00     0.126 A 
HETATM   30  F   UNL     1       8.588  23.932  52.896  1.00  0.00    -0.205 F 
ENDBRANCH  22  23
ENDBRANCH  18  22
ENDBRANCH   1  15
BRANCH   5  31
HETATM   31  C   UNL     1       7.959  31.057  58.227  1.00  0.00     0.168 C 
BRANCH  31  32
HETATM   32  C   UNL     1       7.946  30.837  59.743  1.00  0.00     0.140 C 
HETATM   33  O   UNL     1       9.127  30.128  60.172  1.00  0.00    -0.384 OA
HETATM   34  C   UNL     1       9.262  30.433  61.568  1.00  0.00     0.168 C 
HETATM   35  C   UNL     1       8.905  31.898  61.680  1.00  0.00     0.029 C 
HETATM   36  C   UNL     1       7.933  32.136  60.542  1.00  0.00     0.036 C 
ENDBRANCH  31  32
ENDBRANCH   5  31
TORSDOF 6
ENDMDL
MODEL 2
REMARK VINA RESULT:      -9.7      2.077      3.376
REMARK  6 active torsions:
REMARK  status: ('A' for Active; 'I' for Inactive)
REMARK    1  A    between atoms: C_3  and  C_4 
REMARK    2  A    between atoms: C_4  and  C_5 
REMARK    3  A    between atoms: N_8  and  C_10 
REMARK    4  A    between atoms: C_10  and  C_11 
REMARK    5  A    between atoms: N_24  and  C_25 
REMARK    6  A    between atoms: C_25  and  C_26 
ROOT
HETATM    1  C   UNL     1       5.404  27.845  52.906  1.00  0.00     0.164 C 
HETATM    2  N   UNL     1       6.857  27.902  52.956  1.00  0.00    -0.319 N 
HETATM    3  C   UNL     1       7.314  28.176  54.227  1.00  0.00     0.326 C 
HETATM    4  O   UNL     1       8.479  28.443  54.461  1.00  0.00    -0.247 OA
HETATM    5  N   UNL     1       6.273  28.127  55.095  1.00  0.00    -0.265 N 
HETATM    6  C   UNL     1       5.096  28.099  54.400  1.00  0.00     0.263 C 
HETATM    7  O   UNL     1       3.974  28.218  54.873  1.00  0.00    -0.270 OA
HETATM    8  H   UNL     1       7.356  28.397  52.221  1.00  0.00     0.166 HD
ENDROOT
BRANCH   1   9
HETATM    9  C   UNL     1       4.900  28.961  51.995  1.00  0.00     0.072 A 
HETATM   10  C   UNL     1       3.557  29.308  51.891  1.00  0.00     0.030 A 
HETATM   11  C   UNL     1       3.193  30.341  51.030  1.00  0.00     0.003 A 
HETATM   12  C   UNL     1       4.167  30.992  50.285  1.00  0.00     0.019 A 
HETATM   13  C   UNL     1       5.477  30.575  50.418  1.00  0.00     0.117 A 
HETATM   14  N   UNL     1       5.864  29.567  51.235  1.00  0.00    -0.262 NA
ENDBRANCH   1   9
BRANCH   1  15
HETATM   15  C   UNL     1       4.882  26.423  52.492  1.00  0.00     0.033 C 
HETATM   16  C   UNL     1       4.698  25.437  53.667  1.00  0.00     0.036 C 
HETATM   17  C   UNL     1       5.996  24.858  54.231  1.00  0.00     0.235 C 
HETATM   18  N   UNL     1       6.875  24.297  53.137  1.00  0.00    -0.067 N 
HETATM   19  H   UNL     1       6.423  23.433  52.805  1.00  0.00     0.280 HD
HETATM   20  C   UNL     1       7.057  25.212  51.946  1.00  0.00     0.235 C 
HETATM   21  C   UNL     1       5.716  25.691  51.425  1.00  0.00     0.036 C 
BRANCH  18  22
HETATM   22  C   UNL     1       8.255  23.882  53.649  1.00  0.00     0.278 C 
BRANCH  22  23
HETATM   23  C   UNL     1       8.316  22.654  54.505  1.00  0.00     0.028 A 
HETATM   24  C   UNL     1       8.470  22.687  55.896  1.00  0.00     0.045 A 
HETATM   25 CL   UNL     1       8.654  24.186  56.731  1.00  0.00    -0.084 Cl
HETATM   26  C   UNL     1       8.500  21.502  56.638  1.00  0.00     0.024 A 
HETATM   27  C   UNL     1       8.372  20.268  56.001  1.00  0.00     0.005 A 
HETATM   28  C   UNL     1       8.215  20.218  54.618  1.00  0.00     0.043 A 
HETATM   29  C   UNL     1       8.187  21.402  53.891  1.00  0.00     0.126 A 
HETATM   30  F   UNL     1       8.040  21.336  52.562  1.00  0.00    -0.205 F 
ENDBRANCH  22  23
ENDBRANCH  18  22
ENDBRANCH   1  15
BRANCH   5  31
HETATM   31  C   UNL     1       6.411  28.377  56.523  1.00  0.00     0.168 C 
BRANCH  31  32
HETATM   32  C   UNL     1       6.631  29.853  56.870  1.00  0.00     0.140 C 
HETATM   33  O   UNL     1       5.453  30.421  57.479  1.00  0.00    -0.384 OA
HETATM   34  C   UNL     1       5.920  31.568  58.204  1.00  0.00     0.168 C 
HETATM   35  C   UNL     1       7.226  31.127  58.825  1.00  0.00     0.029 C 
HETATM   36  C   UNL     1       7.759  30.076  57.872  1.00  0.00     0.036 C 
ENDBRANCH  31  32
ENDBRANCH   5  31
TORSDOF 6
ENDMDL
MODEL 3
REMARK VINA RESULT:      -9.6      1.730      2.106
REMARK  6 active torsions:
REMARK  status: ('A' for Active; 'I' for Inactive)
REMARK    1  A    between atoms: C_3  and  C_4 
REMARK    2  A    between atoms: C_4  and  C_5 
REMARK    3  A    between atoms: N_8  and  C_10 
REMARK    4  A    between atoms: C_10  and  C_11 
REMARK    5  A    between atoms: N_24  and  C_25 
REMARK    6  A    between atoms: C_25  and  C_26 
ROOT
HETATM    1  C   UNL     1       5.499  28.932  55.375  1.00  0.00     0.164 C 
HETATM    2  N   UNL     1       6.834  28.819  54.809  1.00  0.00    -0.319 N 
HETATM    3  C   UNL     1       7.811  29.028  55.758  1.00  0.00     0.326 C 
HETATM    4  O   UNL     1       8.987  29.156  55.469  1.00  0.00    -0.247 OA
HETATM    5  N   UNL     1       7.235  29.095  56.984  1.00  0.00    -0.265 N 
HETATM    6  C   UNL     1       5.880  29.209  56.849  1.00  0.00     0.263 C 
HETATM    7  O   UNL     1       5.082  29.454  57.743  1.00  0.00    -0.270 OA
HETATM    8  H   UNL     1       7.027  29.258  53.912  1.00  0.00     0.166 HD
ENDROOT
BRANCH   1   9
HETATM    9  C   UNL     1       4.783  30.106  54.714  1.00  0.00     0.072 A 
HETATM   10  C   UNL     1       4.751  31.384  55.263  1.00  0.00     0.030 A 
HETATM   11  C   UNL     1       4.068  32.392  54.586  1.00  0.00     0.003 A 
HETATM   12  C   UNL     1       3.423  32.103  53.390  1.00  0.00     0.019 A 
HETATM   13  C   UNL     1       3.473  30.805  52.920  1.00  0.00     0.117 A 
HETATM   14  N   UNL     1       4.115  29.800  53.558  1.00  0.00    -0.262 NA
ENDBRANCH   1   9
BRANCH   1  15
HETATM   15  C   UNL     1       4.700  27.584  55.280  1.00  0.00     0.033 C 
HETATM   16  C   UNL     1       5.010  26.569  56.403  1.00  0.00     0.036 C 
HETATM   17  C   UNL     1       6.351  25.849  56.268  1.00  0.00     0.235 C 
HETATM   18  N   UNL     1       6.527  25.256  54.888  1.00  0.00    -0.067 N 
HETATM   19  H   UNL     1       5.885  24.453  54.826  1.00  0.00     0.280 HD
HETATM   20  C   UNL     1       6.200  26.201  53.753  1.00  0.00     0.235 C 
HETATM   21  C   UNL     1       4.832  26.824  53.947  1.00  0.00     0.036 C 
BRANCH  18  22
HETATM   22  C   UNL     1       7.931  24.693  54.666  1.00  0.00     0.278 C 
BRANCH  22  23
HETATM   23  C   UNL     1       8.042  23.211  54.475  1.00  0.00     0.028 A 
HETATM   24  C   UNL     1       8.186  22.302  55.530  1.00  0.00     0.045 A 
HETATM   25 CL   UNL     1       8.297  22.852  57.162  1.00  0.00    -0.084 Cl
HETATM   26  C   UNL     1       8.264  20.929  55.282  1.00  0.00     0.024 A 
HETATM   27  C   UNL     1       8.196  20.444  53.976  1.00  0.00     0.005 A 
HETATM   28  C   UNL     1       8.049  21.334  52.916  1.00  0.00     0.043 A 
HETATM   29  C   UNL     1       7.973  22.697  53.175  1.00  0.00     0.126 A 
HETATM   30  F   UNL     1       7.837  23.540  52.142  1.00  0.00    -0.205 F 
ENDBRANCH  22  23
ENDBRANCH  18  22
ENDBRANCH   1  15
BRANCH   5  31
HETATM   31  C   UNL     1       7.989  29.317  58.210  1.00  0.00     0.168 C 
BRANCH  31  32
HETATM   32  C   UNL     1       8.113  30.793  58.597  1.00  0.00     0.140 C 
HETATM   33  O   UNL     1       7.572  31.030  59.913  1.00  0.00    -0.384 OA
HETATM   34  C   UNL     1       8.187  32.247  60.360  1.00  0.00     0.168 C 
HETATM   35  C   UNL     1       9.622  32.147  59.895  1.00  0.00     0.029 C 
HETATM   36  C   UNL     1       9.556  31.285  58.651  1.00  0.00     0.036 C 
ENDBRANCH  31  32
ENDBRANCH   5  31
TORSDOF 6
ENDMDL
MODEL 4
REMARK VINA RESULT:      -9.5      2.925      4.226
REMARK  6 active torsions:
REMARK  status: ('A' for Active; 'I' for Inactive)
REMARK    1  A    between atoms: C_3  and  C_4 
REMARK    2  A    between atoms: C_4  and  C_5 
REMARK    3  A    between atoms: N_8  and  C_10 
REMARK    4  A    between atoms: C_10  and  C_11 
REMARK    5  A    between atoms: N_24  and  C_25 
REMARK    6  A    between atoms: C_25  and  C_26 
ROOT
HETATM    1  C   UNL     1       5.549  27.709  52.336  1.00  0.00     0.164 C 
HETATM    2  N   UNL     1       6.946  27.717  52.741  1.00  0.00    -0.319 N 
HETATM    3  C   UNL     1       7.108  28.235  54.007  1.00  0.00     0.326 C 
HETATM    4  O   UNL     1       8.203  28.499  54.471  1.00  0.00    -0.247 OA
HETATM    5  N   UNL     1       5.890  28.415  54.575  1.00  0.00    -0.265 N 
HETATM    6  C   UNL     1       4.917  28.287  53.624  1.00  0.00     0.263 C 
HETATM    7  O   UNL     1       3.730  28.549  53.764  1.00  0.00    -0.270 OA
HETATM    8  H   UNL     1       7.650  28.024  52.073  1.00  0.00     0.166 HD
ENDROOT
BRANCH   1   9
HETATM    9  C   UNL     1       5.382  28.626  51.127  1.00  0.00     0.072 A 
HETATM   10  C   UNL     1       4.864  28.193  49.910  1.00  0.00     0.030 A 
HETATM   11  C   UNL     1       4.753  29.105  48.863  1.00  0.00     0.003 A 
HETATM   12  C   UNL     1       5.170  30.417  49.045  1.00  0.00     0.019 A 
HETATM   13  C   UNL     1       5.701  30.768  50.271  1.00  0.00     0.117 A 
HETATM   14  N   UNL     1       5.836  29.906  51.305  1.00  0.00    -0.262 NA
ENDBRANCH   1   9
BRANCH   1  15
HETATM   15  C   UNL     1       5.012  26.254  52.090  1.00  0.00     0.033 C 
HETATM   16  C   UNL     1       4.787  25.424  53.373  1.00  0.00     0.036 C 
HETATM   17  C   UNL     1       6.062  24.902  54.035  1.00  0.00     0.235 C 
HETATM   18  N   UNL     1       6.955  24.198  53.040  1.00  0.00    -0.067 N 
HETATM   19  H   UNL     1       6.496  23.305  52.808  1.00  0.00     0.280 HD
HETATM   20  C   UNL     1       7.178  24.955  51.749  1.00  0.00     0.235 C 
HETATM   21  C   UNL     1       5.857  25.384  51.142  1.00  0.00     0.036 C 
BRANCH  18  22
HETATM   22  C   UNL     1       8.316  23.830  53.631  1.00  0.00     0.278 C 
BRANCH  22  23
HETATM   23  C   UNL     1       8.376  22.590  54.470  1.00  0.00     0.028 A 
HETATM   24  C   UNL     1       8.659  22.595  55.841  1.00  0.00     0.045 A 
HETATM   25 CL   UNL     1       9.017  24.068  56.666  1.00  0.00    -0.084 Cl
HETATM   26  C   UNL     1       8.680  21.402  56.569  1.00  0.00     0.024 A 
HETATM   27  C   UNL     1       8.413  20.187  55.938  1.00  0.00     0.005 A 
HETATM   28  C   UNL     1       8.126  20.165  54.576  1.00  0.00     0.043 A 
HETATM   29  C   UNL     1       8.109  21.358  53.863  1.00  0.00     0.126 A 
HETATM   30  F   UNL     1       7.836  21.318  52.552  1.00  0.00    -0.205 F 
ENDBRANCH  22  23
ENDBRANCH  18  22
ENDBRANCH   1  15
BRANCH   5  31
HETATM   31  C   UNL     1       5.705  28.956  55.914  1.00  0.00     0.168 C 
BRANCH  31  32
HETATM   32  C   UNL     1       5.534  27.883  56.992  1.00  0.00     0.140 C 
HETATM   33  O   UNL     1       4.624  26.853  56.557  1.00  0.00    -0.384 OA
HETATM   34  C   UNL     1       4.936  25.708  57.364  1.00  0.00     0.168 C 
HETATM   35  C   UNL     1       6.444  25.704  57.461  1.00  0.00     0.029 C 
HETATM   36  C   UNL     1       6.833  27.163  57.340  1.00  0.00     0.036 C 
ENDBRANCH  31  32
ENDBRANCH   5  31
TORSDOF 6
ENDMDL
MODEL 5
REMARK VINA RESULT:      -9.4      3.187      7.682
REMARK  6 active torsions:
REMARK  status: ('A' for Active; 'I' for Inactive)
REMARK    1  A    between atoms: C_3  and  C_4 
REMARK    2  A    between atoms: C_4  and  C_5 
REMARK    3  A    between atoms: N_8  and  C_10 
REMARK    4  A    between atoms: C_10  and  C_11 
REMARK    5  A    between atoms: N_24  and  C_25 
REMARK    6  A    between atoms: C_25  and  C_26 
ROOT
HETATM    1  C   UNL     1       6.935  24.506  54.777  1.00  0.00     0.164 C 
HETATM    2  N   UNL     1       8.010  25.358  54.295  1.00  0.00    -0.319 N 
HETATM    3  C   UNL     1       7.612  26.126  53.222  1.00  0.00     0.326 C 
HETATM    4  O   UNL     1       8.397  26.775  52.554  1.00  0.00    -0.247 OA
HETATM    5  N   UNL     1       6.273  25.994  53.052  1.00  0.00    -0.265 N 
HETATM    6  C   UNL     1       5.815  24.951  53.807  1.00  0.00     0.263 C 
HETATM    7  O   UNL     1       4.695  24.460  53.760  1.00  0.00    -0.270 OA
HETATM    8  H   UNL     1       8.944  24.965  54.199  1.00  0.00     0.166 HD
ENDROOT
BRANCH   1   9
HETATM    9  C   UNL     1       7.341  23.048  54.590  1.00  0.00     0.072 A 
HETATM   10  C   UNL     1       7.601  22.484  53.345  1.00  0.00     0.030 A 
HETATM   11  C   UNL     1       7.964  21.141  53.275  1.00  0.00     0.003 A 
HETATM   12  C   UNL     1       8.047  20.389  54.439  1.00  0.00     0.019 A 
HETATM   13  C   UNL     1       7.747  21.007  55.638  1.00  0.00     0.117 A 
HETATM   14  N   UNL     1       7.379  22.305  55.741  1.00  0.00    -0.262 NA
ENDBRANCH   1   9
BRANCH   1  15
HETATM   15  C   UNL     1       6.523  24.852  56.253  1.00  0.00     0.033 C 
HETATM   16  C   UNL     1       5.377  25.880  56.379  1.00  0.00     0.036 C 
HETATM   17  C   UNL     1       5.775  27.327  56.092  1.00  0.00     0.235 C 
HETATM   18  N   UNL     1       7.003  27.731  56.875  1.00  0.00    -0.067 N 
HETATM   19  H   UNL     1       6.713  27.818  57.860  1.00  0.00     0.280 HD
HETATM   20  C   UNL     1       8.143  26.738  56.813  1.00  0.00     0.235 C 
HETATM   21  C   UNL     1       7.663  25.344  57.164  1.00  0.00     0.036 C 
BRANCH  18  22
HETATM   22  C   UNL     1       7.531  29.107  56.469  1.00  0.00     0.278 C 
BRANCH  22  23
HETATM   23  C   UNL     1       7.998  30.005  57.574  1.00  0.00     0.028 A 
HETATM   24  C   UNL     1       9.347  30.245  57.860  1.00  0.00     0.045 A 
HETATM   25 CL   UNL     1      10.595  29.460  56.962  1.00  0.00    -0.084 Cl
HETATM   26  C   UNL     1       9.714  31.110  58.895  1.00  0.00     0.024 A 
HETATM   27  C   UNL     1       8.737  31.752  59.656  1.00  0.00     0.005 A 
HETATM   28  C   UNL     1       7.391  31.527  59.383  1.00  0.00     0.043 A 
HETATM   29  C   UNL     1       7.038  30.663  58.352  1.00  0.00     0.126 A 
HETATM   30  F   UNL     1       5.738  30.454  58.106  1.00  0.00    -0.205 F 
ENDBRANCH  22  23
ENDBRANCH  18  22
ENDBRANCH   1  15
BRANCH   5  31
HETATM   31  C   UNL     1       5.531  26.669  51.997  1.00  0.00     0.168 C 
BRANCH  31  32
HETATM   32  C   UNL     1       5.160  28.116  52.337  1.00  0.00     0.140 C 
HETATM   33  O   UNL     1       5.073  28.921  51.143  1.00  0.00    -0.384 OA
HETATM   34  C   UNL     1       4.250  30.040  51.502  1.00  0.00     0.168 C 
HETATM   35  C   UNL     1       3.158  29.454  52.368  1.00  0.00     0.029 C 
HETATM   36  C   UNL     1       3.802  28.247  53.020  1.00  0.00     0.036 C 
ENDBRANCH  31  32
ENDBRANCH   5  31
TORSDOF 6
ENDMDL
MODEL 6
REMARK VINA RESULT:      -9.4      3.353      4.502
REMARK  6 active torsions:
REMARK  status: ('A' for Active; 'I' for Inactive)
REMARK    1  A    between atoms: C_3  and  C_4 
REMARK    2  A    between atoms: C_4  and  C_5 
REMARK    3  A    between atoms: N_8  and  C_10 
REMARK    4  A    between atoms: C_10  and  C_11 
REMARK    5  A    between atoms: N_24  and  C_25 
REMARK    6  A    between atoms: C_25  and  C_26 
ROOT
HETATM    1  C   UNL     1       5.347  27.618  52.294  1.00  0.00     0.164 C 
HETATM    2  N   UNL     1       6.603  27.776  53.011  1.00  0.00    -0.319 N 
HETATM    3  C   UNL     1       6.403  28.246  54.291  1.00  0.00     0.326 C 
HETATM    4  O   UNL     1       7.320  28.618  55.002  1.00  0.00    -0.247 OA
HETATM    5  N   UNL     1       5.075  28.246  54.565  1.00  0.00    -0.265 N 
HETATM    6  C   UNL     1       4.369  28.047  53.412  1.00  0.00     0.263 C 
HETATM    7  O   UNL     1       3.157  28.154  53.278  1.00  0.00    -0.270 OA
HETATM    8  H   UNL     1       7.393  28.201  52.532  1.00  0.00     0.166 HD
ENDROOT
BRANCH   1   9
HETATM    9  C   UNL     1       5.341  28.567  51.099  1.00  0.00     0.072 A 
HETATM   10  C   UNL     1       5.058  28.153  49.800  1.00  0.00     0.030 A 
HETATM   11  C   UNL     1       5.079  29.094  48.774  1.00  0.00     0.003 A 
HETATM   12  C   UNL     1       5.392  30.417  49.058  1.00  0.00     0.019 A 
HETATM   13  C   UNL     1       5.690  30.749  50.365  1.00  0.00     0.117 A 
HETATM   14  N   UNL     1       5.693  29.859  51.384  1.00  0.00    -0.262 NA
ENDBRANCH   1   9
BRANCH   1  15
HETATM   15  C   UNL     1       5.076  26.122  51.899  1.00  0.00     0.033 C 
HETATM   16  C   UNL     1       4.652  25.212  53.074  1.00  0.00     0.036 C 
HETATM   17  C   UNL     1       5.782  24.816  54.023  1.00  0.00     0.235 C 
HETATM   18  N   UNL     1       6.974  24.270  53.270  1.00  0.00    -0.067 N 
HETATM   19  H   UNL     1       6.703  23.341  52.917  1.00  0.00     0.280 HD
HETATM   20  C   UNL     1       7.407  25.108  52.087  1.00  0.00     0.235 C 
HETATM   21  C   UNL     1       6.231  25.403  51.177  1.00  0.00     0.036 C 
BRANCH  18  22
HETATM   22  C   UNL     1       8.185  24.041  54.175  1.00  0.00     0.278 C 
BRANCH  22  23
HETATM   23  C   UNL     1       8.289  22.701  54.837  1.00  0.00     0.028 A 
HETATM   24  C   UNL     1       8.408  22.528  56.221  1.00  0.00     0.045 A 
HETATM   25 CL   UNL     1       8.495  23.889  57.279  1.00  0.00    -0.084 Cl
HETATM   26  C   UNL     1       8.482  21.247  56.776  1.00  0.00     0.024 A 
HETATM   27  C   UNL     1       8.433  20.120  55.955  1.00  0.00     0.005 A 
HETATM   28  C   UNL     1       8.311  20.274  54.577  1.00  0.00     0.043 A 
HETATM   29  C   UNL     1       8.239  21.553  54.037  1.00  0.00     0.126 A 
HETATM   30  F   UNL     1       8.127  21.684  52.709  1.00  0.00    -0.205 F 
ENDBRANCH  22  23
ENDBRANCH  18  22
ENDBRANCH   1  15
BRANCH   5  31
HETATM   31  C   UNL     1       4.521  28.692  55.835  1.00  0.00     0.168 C 
BRANCH  31  32
HETATM   32  C   UNL     1       4.367  30.212  55.938  1.00  0.00     0.140 C 
HETATM   33  O   UNL     1       4.501  30.834  54.644  1.00  0.00    -0.384 OA
HETATM   34  C   UNL     1       3.847  32.105  54.767  1.00  0.00     0.168 C 
HETATM   35  C   UNL     1       2.613  31.827  55.595  1.00  0.00     0.029 C 
HETATM   36  C   UNL     1       3.002  30.647  56.464  1.00  0.00     0.036 C 
ENDBRANCH  31  32
ENDBRANCH   5  31
TORSDOF 6
ENDMDL
MODEL 7
REMARK VINA RESULT:      -9.3      3.369      8.188
REMARK  6 active torsions:
REMARK  status: ('A' for Active; 'I' for Inactive)
REMARK    1  A    between atoms: C_3  and  C_4 
REMARK    2  A    between atoms: C_4  and  C_5 
REMARK    3  A    between atoms: N_8  and  C_10 
REMARK    4  A    between atoms: C_10  and  C_11 
REMARK    5  A    between atoms: N_24  and  C_25 
REMARK    6  A    between atoms: C_25  and  C_26 
ROOT
HETATM    1  C   UNL     1       6.669  25.530  55.030  1.00  0.00     0.164 C 
HETATM    2  N   UNL     1       7.647  26.538  54.650  1.00  0.00    -0.319 N 
HETATM    3  C   UNL     1       7.177  27.354  53.645  1.00  0.00     0.326 C 
HETATM    4  O   UNL     1       7.891  28.145  53.056  1.00  0.00    -0.247 OA
HETATM    5  N   UNL     1       5.863  27.090  53.434  1.00  0.00    -0.265 N 
HETATM    6  C   UNL     1       5.518  25.936  54.081  1.00  0.00     0.263 C 
HETATM    7  O   UNL     1       4.460  25.331  53.965  1.00  0.00    -0.270 OA
HETATM    8  H   UNL     1       8.620  26.262  54.539  1.00  0.00     0.166 HD
ENDROOT
BRANCH   1   9
HETATM    9  C   UNL     1       7.240  24.150  54.719  1.00  0.00     0.072 A 
HETATM   10  C   UNL     1       7.750  23.801  53.472  1.00  0.00     0.030 A 
HETATM   11  C   UNL     1       8.247  22.514  53.283  1.00  0.00     0.003 A 
HETATM   12  C   UNL     1       8.213  21.602  54.330  1.00  0.00     0.019 A 
HETATM   13  C   UNL     1       7.666  22.009  55.531  1.00  0.00     0.117 A 
HETATM   14  N   UNL     1       7.162  23.247  55.745  1.00  0.00    -0.262 NA
ENDBRANCH   1   9
BRANCH   1  15
HETATM   15  C   UNL     1       6.206  25.688  56.522  1.00  0.00     0.033 C 
HETATM   16  C   UNL     1       5.071  26.714  56.740  1.00  0.00     0.036 C 
HETATM   17  C   UNL     1       5.502  28.178  56.660  1.00  0.00     0.235 C 
HETATM   18  N   UNL     1       6.705  28.452  57.534  1.00  0.00    -0.067 N 
HETATM   19  H   UNL     1       6.378  28.415  58.510  1.00  0.00     0.280 HD
HETATM   20  C   UNL     1       7.831  27.453  57.383  1.00  0.00     0.235 C 
HETATM   21  C   UNL     1       7.316  26.034  57.532  1.00  0.00     0.036 C 
BRANCH  18  22
HETATM   22  C   UNL     1       7.270  29.858  57.332  1.00  0.00     0.278 C 
BRANCH  22  23
HETATM   23  C   UNL     1       7.575  30.648  58.568  1.00  0.00     0.028 A 
HETATM   24  C   UNL     1       6.633  31.439  59.234  1.00  0.00     0.045 A 
HETATM   25 CL   UNL     1       5.024  31.598  58.629  1.00  0.00    -0.084 Cl
HETATM   26  C   UNL     1       6.980  32.136  60.395  1.00  0.00     0.024 A 
HETATM   27  C   UNL     1       8.274  32.048  60.909  1.00  0.00     0.005 A 
HETATM   28  C   UNL     1       9.223  31.263  60.260  1.00  0.00     0.043 A 
HETATM   29  C   UNL     1       8.866  30.576  59.106  1.00  0.00     0.126 A 
HETATM   30  F   UNL     1       9.792  29.829  58.491  1.00  0.00    -0.205 F 
ENDBRANCH  22  23
ENDBRANCH  18  22
ENDBRANCH   1  15
BRANCH   5  31
HETATM   31  C   UNL     1       5.061  27.775  52.431  1.00  0.00     0.168 C 
BRANCH  31  32
HETATM   32  C   UNL     1       5.426  27.399  50.992  1.00  0.00     0.140 C 
HETATM   33  O   UNL     1       4.514  26.411  50.469  1.00  0.00    -0.384 OA
HETATM   34  C   UNL     1       4.612  26.526  49.042  1.00  0.00     0.168 C 
HETATM   35  C   UNL     1       4.700  28.012  48.779  1.00  0.00     0.029 C 
HETATM   36  C   UNL     1       5.356  28.576  50.023  1.00  0.00     0.036 C 
ENDBRANCH  31  32
ENDBRANCH   5  31
TORSDOF 6
ENDMDL
MODEL 8
REMARK VINA RESULT:      -9.2      2.312      5.642
REMARK  6 active torsions:
REMARK  status: ('A' for Active; 'I' for Inactive)
REMARK    1  A    between atoms: C_3  and  C_4 
REMARK    2  A    between atoms: C_4  and  C_5 
REMARK    3  A    between atoms: N_8  and  C_10 
REMARK    4  A    between atoms: C_10  and  C_11 
REMARK    5  A    between atoms: N_24  and  C_25 
REMARK    6  A    between atoms: C_25  and  C_26 
ROOT
HETATM    1  C   UNL     1       6.526  28.283  56.336  1.00  0.00     0.164 C 
HETATM    2  N   UNL     1       5.414  29.169  56.026  1.00  0.00    -0.319 N 
HETATM    3  C   UNL     1       5.259  29.337  54.667  1.00  0.00     0.326 C 
HETATM    4  O   UNL     1       4.508  30.171  54.193  1.00  0.00    -0.247 OA
HETATM    5  N   UNL     1       6.077  28.475  54.014  1.00  0.00    -0.265 N 
HETATM    6  C   UNL     1       6.969  27.932  54.897  1.00  0.00     0.263 C 
HETATM    7  O   UNL     1       7.942  27.247  54.612  1.00  0.00    -0.270 OA
HETATM    8  H   UNL     1       5.301  30.024  56.566  1.00  0.00     0.166 HD
ENDROOT
BRANCH   1   9
HETATM    9  C   UNL     1       7.580  29.070  57.109  1.00  0.00     0.072 A 
HETATM   10  C   UNL     1       8.926  29.088  56.755  1.00  0.00     0.030 A 
HETATM   11  C   UNL     1       9.815  29.835  57.525  1.00  0.00     0.003 A 
HETATM   12  C   UNL     1       9.349  30.533  58.632  1.00  0.00     0.019 A 
HETATM   13  C   UNL     1       8.006  30.445  58.940  1.00  0.00     0.117 A 
HETATM   14  N   UNL     1       7.117  29.719  58.222  1.00  0.00    -0.262 NA
ENDBRANCH   1   9
BRANCH   1  15
HETATM   15  C   UNL     1       6.055  26.981  57.078  1.00  0.00     0.033 C 
HETATM   16  C   UNL     1       7.110  26.359  58.020  1.00  0.00     0.036 C 
HETATM   17  C   UNL     1       8.244  25.616  57.315  1.00  0.00     0.235 C 
HETATM   18  N   UNL     1       7.715  24.624  56.304  1.00  0.00    -0.067 N 
HETATM   19  H   UNL     1       7.298  23.848  56.839  1.00  0.00     0.280 HD
HETATM   20  C   UNL     1       6.652  25.176  55.380  1.00  0.00     0.235 C 
HETATM   21  C   UNL     1       5.545  25.846  56.172  1.00  0.00     0.036 C 
BRANCH  18  22
HETATM   22  C   UNL     1       8.824  24.003  55.456  1.00  0.00     0.278 C 
BRANCH  22  23
HETATM   23  C   UNL     1       8.500  22.717  54.757  1.00  0.00     0.028 A 
HETATM   24  C   UNL     1       8.188  22.633  53.395  1.00  0.00     0.045 A 
HETATM   25 CL   UNL     1       8.105  24.053  52.417  1.00  0.00    -0.084 Cl
HETATM   26  C   UNL     1       7.914  21.398  52.801  1.00  0.00     0.024 A 
HETATM   27  C   UNL     1       7.953  20.227  53.560  1.00  0.00     0.005 A 
HETATM   28  C   UNL     1       8.266  20.293  54.915  1.00  0.00     0.043 A 
HETATM   29  C   UNL     1       8.535  21.528  55.494  1.00  0.00     0.126 A 
HETATM   30  F   UNL     1       8.829  21.573  56.800  1.00  0.00    -0.205 F 
ENDBRANCH  22  23
ENDBRANCH  18  22
ENDBRANCH   1  15
BRANCH   5  31
HETATM   31  C   UNL     1       6.164  28.399  52.563  1.00  0.00     0.168 C 
BRANCH  31  32
HETATM   32  C   UNL     1       5.086  27.515  51.929  1.00  0.00     0.140 C 
HETATM   33  O   UNL     1       5.324  27.343  50.517  1.00  0.00    -0.384 OA
HETATM   34  C   UNL     1       4.618  26.146  50.159  1.00  0.00     0.168 C 
HETATM   35  C   UNL     1       4.853  25.199  51.313  1.00  0.00     0.029 C 
HETATM   36  C   UNL     1       5.039  26.107  52.513  1.00  0.00     0.036 C 
ENDBRANCH  31  32
ENDBRANCH   5  31
TORSDOF 6
ENDMDL
MODEL 9
REMARK VINA RESULT:      -9.2      4.083      7.789
REMARK  6 active torsions:
REMARK  status: ('A' for Active; 'I' for Inactive)
REMARK    1  A    between atoms: C_3  and  C_4 
REMARK    2  A    between atoms: C_4  and  C_5 
REMARK    3  A    between atoms: N_8  and  C_10 
REMARK    4  A    between atoms: C_10  and  C_11 
REMARK    5  A    between atoms: N_24  and  C_25 
REMARK    6  A    between atoms: C_25  and  C_26 
ROOT
HETATM    1  C   UNL     1       6.650  26.977  54.510  1.00  0.00     0.164 C 
HETATM    2  N   UNL     1       7.414  26.860  53.278  1.00  0.00    -0.319 N 
HETATM    3  C   UNL     1       7.726  25.549  52.993  1.00  0.00     0.326 C 
HETATM    4  O   UNL     1       8.507  25.238  52.111  1.00  0.00    -0.247 OA
HETATM    5  N   UNL     1       7.066  24.735  53.854  1.00  0.00    -0.265 N 
HETATM    6  C   UNL     1       6.539  25.478  54.874  1.00  0.00     0.263 C 
HETATM    7  O   UNL     1       6.028  25.042  55.897  1.00  0.00    -0.270 OA
HETATM    8  H   UNL     1       8.174  27.514  53.107  1.00  0.00     0.166 HD
ENDROOT
BRANCH   1   9
HETATM    9  C   UNL     1       7.466  27.776  55.522  1.00  0.00     0.072 A 
HETATM   10  C   UNL     1       7.245  27.719  56.894  1.00  0.00     0.030 A 
HETATM   11  C   UNL     1       8.041  28.488  57.739  1.00  0.00     0.003 A 
HETATM   12  C   UNL     1       9.027  29.304  57.200  1.00  0.00     0.019 A 
HETATM   13  C   UNL     1       9.172  29.333  55.827  1.00  0.00     0.117 A 
HETATM   14  N   UNL     1       8.407  28.609  54.977  1.00  0.00    -0.262 NA
ENDBRANCH   1   9
BRANCH   1  15
HETATM   15  C   UNL     1       5.216  27.569  54.264  1.00  0.00     0.033 C 
HETATM   16  C   UNL     1       4.224  26.595  53.590  1.00  0.00     0.036 C 
HETATM   17  C   UNL     1       4.452  26.376  52.095  1.00  0.00     0.235 C 
HETATM   18  N   UNL     1       4.570  27.687  51.352  1.00  0.00    -0.067 N 
HETATM   19  H   UNL     1       3.627  28.102  51.330  1.00  0.00     0.280 HD
HETATM   20  C   UNL     1       5.504  28.689  51.993  1.00  0.00     0.235 C 
HETATM   21  C   UNL     1       5.167  28.880  53.458  1.00  0.00     0.036 C 
BRANCH  18  22
HETATM   22  C   UNL     1       4.982  27.499  49.892  1.00  0.00     0.278 C 
BRANCH  22  23
HETATM   23  C   UNL     1       3.892  27.575  48.867  1.00  0.00     0.028 A 
HETATM   24  C   UNL     1       3.489  28.766  48.252  1.00  0.00     0.045 A 
HETATM   25 CL   UNL     1       4.210  30.274  48.683  1.00  0.00    -0.084 Cl
HETATM   26  C   UNL     1       2.476  28.763  47.288  1.00  0.00     0.024 A 
HETATM   27  C   UNL     1       1.855  27.569  46.922  1.00  0.00     0.005 A 
HETATM   28  C   UNL     1       2.247  26.375  47.522  1.00  0.00     0.043 A 
HETATM   29  C   UNL     1       3.254  26.391  48.480  1.00  0.00     0.126 A 
HETATM   30  F   UNL     1       3.615  25.234  49.050  1.00  0.00    -0.205 F 
ENDBRANCH  22  23
ENDBRANCH  18  22
ENDBRANCH   1  15
BRANCH   5  31
HETATM   31  C   UNL     1       7.180  23.284  53.831  1.00  0.00     0.168 C 
BRANCH  31  32
HETATM   32  C   UNL     1       8.206  22.733  54.825  1.00  0.00     0.140 C 
HETATM   33  O   UNL     1       7.555  22.190  55.992  1.00  0.00    -0.384 OA
HETATM   34  C   UNL     1       8.505  21.280  56.564  1.00  0.00     0.168 C 
HETATM   35  C   UNL     1       9.132  20.580  55.380  1.00  0.00     0.029 C 
HETATM   36  C   UNL     1       9.047  21.593  54.256  1.00  0.00     0.036 C 
ENDBRANCH  31  32
ENDBRANCH   5  31
TORSDOF 6
ENDMDL
MODEL 10
REMARK VINA RESULT:      -9.1      3.322      7.005
REMARK  6 active torsions:
REMARK  status: ('A' for Active; 'I' for Inactive)
REMARK    1  A    between atoms: C_3  and  C_4 
REMARK    2  A    between atoms: C_4  and  C_5 
REMARK    3  A    between atoms: N_8  and  C_10 
REMARK    4  A    between atoms: C_10  and  C_11 
REMARK    5  A    between atoms: N_24  and  C_25 
REMARK    6  A    between atoms: C_25  and  C_26 
ROOT
HETATM    1  C   UNL     1       7.395  24.415  54.574  1.00  0.00     0.164 C 
HETATM    2  N   UNL     1       5.997  24.630  54.913  1.00  0.00    -0.319 N 
HETATM    3  C   UNL     1       5.855  25.204  56.157  1.00  0.00     0.326 C 
HETATM    4  O   UNL     1       4.776  25.308  56.712  1.00  0.00    -0.247 OA
HETATM    5  N   UNL     1       7.076  25.571  56.621  1.00  0.00    -0.265 N 
HETATM    6  C   UNL     1       8.050  25.011  55.842  1.00  0.00     0.263 C 
HETATM    7  O   UNL     1       9.250  25.005  56.078  1.00  0.00    -0.270 OA
HETATM    8  H   UNL     1       5.324  23.891  54.718  1.00  0.00     0.166 HD
ENDROOT
BRANCH   1   9
HETATM    9  C   UNL     1       7.640  22.916  54.424  1.00  0.00     0.072 A 
HETATM   10  C   UNL     1       7.901  22.307  53.201  1.00  0.00     0.030 A 
HETATM   11  C   UNL     1       8.110  20.930  53.165  1.00  0.00     0.003 A 
HETATM   12  C   UNL     1       8.041  20.192  54.340  1.00  0.00     0.019 A 
HETATM   13  C   UNL     1       7.749  20.860  55.513  1.00  0.00     0.117 A 
HETATM   14  N   UNL     1       7.528  22.194  55.582  1.00  0.00    -0.262 NA
ENDBRANCH   1   9
BRANCH   1  15
HETATM   15  C   UNL     1       7.832  25.244  53.313  1.00  0.00     0.033 C 
HETATM   16  C   UNL     1       7.908  26.770  53.540  1.00  0.00     0.036 C 
HETATM   17  C   UNL     1       6.555  27.479  53.607  1.00  0.00     0.235 C 
HETATM   18  N   UNL     1       5.676  27.112  52.434  1.00  0.00    -0.067 N 
HETATM   19  H   UNL     1       6.079  27.573  51.605  1.00  0.00     0.280 HD
HETATM   20  C   UNL     1       5.598  25.628  52.148  1.00  0.00     0.235 C 
HETATM   21  C   UNL     1       6.985  25.025  52.046  1.00  0.00     0.036 C 
BRANCH  18  22
HETATM   22  C   UNL     1       4.255  27.658  52.571  1.00  0.00     0.278 C 
BRANCH  22  23
HETATM   23  C   UNL     1       4.120  29.108  52.925  1.00  0.00     0.028 A 
HETATM   24  C   UNL     1       4.248  30.147  51.996  1.00  0.00     0.045 A 
HETATM   25 CL   UNL     1       4.629  29.816  50.345  1.00  0.00    -0.084 Cl
HETATM   26  C   UNL     1       4.090  31.479  52.389  1.00  0.00     0.024 A 
HETATM   27  C   UNL     1       3.799  31.792  53.718  1.00  0.00     0.005 A 
HETATM   28  C   UNL     1       3.665  30.770  54.653  1.00  0.00     0.043 A 
HETATM   29  C   UNL     1       3.825  29.449  54.250  1.00  0.00     0.126 A 
HETATM   30  F   UNL     1       3.698  28.479  55.165  1.00  0.00    -0.205 F 
ENDBRANCH  22  23
ENDBRANCH  18  22
ENDBRANCH   1  15
BRANCH   5  31
HETATM   31  C   UNL     1       7.282  26.203  57.916  1.00  0.00     0.168 C 
BRANCH  31  32
HETATM   32  C   UNL     1       7.510  27.715  57.832  1.00  0.00     0.140 C 
HETATM   33  O   UNL     1       8.543  28.030  56.876  1.00  0.00    -0.384 OA
HETATM   34  C   UNL     1       8.313  29.397  56.508  1.00  0.00     0.168 C 
HETATM   35  C   UNL     1       6.810  29.521  56.400  1.00  0.00     0.029 C 
HETATM   36  C   UNL     1       6.277  28.488  57.374  1.00  0.00     0.036 C 
ENDBRANCH  31  32
ENDBRANCH   5  31
TORSDOF 6
ENDMDL
