MODEL 1
REMARK VINA RESULT:      -9.3      0.000      0.000
REMARK  5 active torsions:
REMARK  status: ('A' for Active; 'I' for Inactive)
REMARK    1  A    between atoms: C_3  and  C_4 
REMARK    2  A    between atoms: C_4  and  N_5 
REMARK       I    between atoms: N_5  and  C_6 
REMARK    3  A    between atoms: C_6  and  C_7 
REMARK    4  A    between atoms: C_10  and  N_11 
REMARK       I    between atoms: N_11  and  C_12 
REMARK       I    between atoms: C_12  and  N_13 
REMARK    5  A    between atoms: N_13  and  C_14 
ROOT
HETATM    1  C   UNL     1       7.683  26.947  55.245  1.00  0.00     0.032 A 
HETATM    2  C   UNL     1       7.710  28.301  54.892  1.00  0.00     0.019 A 
HETATM    3  C   UNL     1       7.943  29.279  55.870  1.00  0.00     0.030 A 
HETATM    4  C   UNL     1       8.145  28.918  57.204  1.00  0.00     0.036 A 
HETATM    5  C   UNL     1       8.157  27.560  57.544  1.00  0.00     0.030 A 
HETATM    6  C   UNL     1       7.929  26.583  56.572  1.00  0.00     0.019 A 
ENDROOT
BRANCH   1   7
HETATM    7  C   UNL     1       7.420  25.865  54.255  1.00  0.00     0.251 C 
HETATM    8  N   UNL     1       7.050  24.637  54.763  1.00  0.00    -0.353 N 
HETATM    9  H   UNL     1       7.186  24.453  55.746  1.00  0.00     0.163 HD
HETATM   10  O   UNL     1       7.574  26.080  53.059  1.00  0.00    -0.268 OA
BRANCH   8  11
HETATM   11  C   UNL     1       6.959  23.485  53.888  1.00  0.00     0.164 C 
BRANCH  11  12
HETATM   12  C   UNL     1       7.616  22.277  54.492  1.00  0.00    -0.002 A 
HETATM   13  C   UNL     1       7.732  22.140  55.884  1.00  0.00     0.012 A 
HETATM   14  C   UNL     1       8.305  20.993  56.440  1.00  0.00     0.001 A 
HETATM   15  C   UNL     1       8.759  19.966  55.614  1.00  0.00     0.003 A 
HETATM   16  C   UNL     1       8.641  20.086  54.230  1.00  0.00     0.043 A 
HETATM   17  C   UNL     1       8.071  21.231  53.683  1.00  0.00     0.124 A 
HETATM   18  F   UNL     1       7.959  21.319  52.350  1.00  0.00    -0.205 F 
ENDBRANCH  11  12
ENDBRANCH   8  11
ENDBRANCH   1   7
BRANCH   4  19
HETATM   19  N   UNL     1       8.358  29.842  58.247  1.00  0.00    -0.309 N 
HETATM   20  C   UNL     1       9.408  30.709  58.397  1.00  0.00     0.325 C 
HETATM   21  N   UNL     1       9.409  31.472  59.535  1.00  0.00    -0.306 N 
HETATM   22  O   UNL     1      10.299  30.904  57.573  1.00  0.00    -0.247 OA
HETATM   23  H   UNL     1      10.077  32.231  59.496  1.00  0.00     0.171 HD
HETATM   24  H   UNL     1       7.552  30.054  58.815  1.00  0.00     0.170 HD
BRANCH  21  25
HETATM   25  C   UNL     1       8.737  31.297  60.728  1.00  0.00     0.072 A 
HETATM   26  C   UNL     1       7.498  31.773  61.214  1.00  0.00     0.169 A 
HETATM   27  N   UNL     1       7.240  31.353  62.455  1.00  0.00    -0.185 NA
HETATM   28  N   UNL     1       8.289  30.570  62.750  1.00  0.00    -0.287 N 
HETATM   29  H   UNL     1       8.313  30.117  63.658  1.00  0.00     0.188 HD
HETATM   30  C   UNL     1       9.205  30.490  61.740  1.00  0.00     0.140 A 
ENDBRANCH  21  25
ENDBRANCH   4  19
TORSDOF 5
ENDMDL
MODEL 2
REMARK VINA RESULT:      -9.3      1.858      2.600
REMARK  5 active torsions:
REMARK  status: ('A' for Active; 'I' for Inactive)
REMARK    1  A    between atoms: C_3  and  C_4 
REMARK    2  A    between atoms: C_4  and  N_5 
REMARK       I    between atoms: N_5  and  C_6 
REMARK    3  A    between atoms: C_6  and  C_7 
REMARK    4  A    between atoms: C_10  and  N_11 
REMARK       I    between atoms: N_11  and  C_12 
REMARK       I    between atoms: C_12  and  N_13 
REMARK    5  A    between atoms: N_13  and  C_14 
ROOT
HETATM    1  C   UNL     1       7.399  28.514  56.007  1.00  0.00     0.032 A 
HETATM    2  C   UNL     1       8.186  28.387  57.157  1.00  0.00     0.019 A 
HETATM    3  C   UNL     1       7.962  29.224  58.260  1.00  0.00     0.030 A 
HETATM    4  C   UNL     1       6.959  30.196  58.223  1.00  0.00     0.036 A 
HETATM    5  C   UNL     1       6.150  30.292  57.085  1.00  0.00     0.030 A 
HETATM    6  C   UNL     1       6.367  29.457  55.986  1.00  0.00     0.019 A 
ENDROOT
BRANCH   1   7
HETATM    7  C   UNL     1       7.603  27.668  54.797  1.00  0.00     0.251 C 
HETATM    8  N   UNL     1       7.306  26.327  54.920  1.00  0.00    -0.353 N 
HETATM    9  H   UNL     1       7.187  25.935  55.843  1.00  0.00     0.163 HD
HETATM   10  O   UNL     1       8.052  28.167  53.771  1.00  0.00    -0.268 OA
BRANCH   8  11
HETATM   11  C   UNL     1       7.652  25.404  53.858  1.00  0.00     0.164 C 
BRANCH  11  12
HETATM   12  C   UNL     1       7.820  24.003  54.372  1.00  0.00    -0.002 A 
HETATM   13  C   UNL     1       7.858  23.741  55.750  1.00  0.00     0.012 A 
HETATM   14  C   UNL     1       7.970  22.431  56.222  1.00  0.00     0.001 A 
HETATM   15  C   UNL     1       8.037  21.366  55.324  1.00  0.00     0.003 A 
HETATM   16  C   UNL     1       7.992  21.613  53.952  1.00  0.00     0.043 A 
HETATM   17  C   UNL     1       7.881  22.921  53.490  1.00  0.00     0.124 A 
HETATM   18  F   UNL     1       7.830  23.131  52.167  1.00  0.00    -0.205 F 
ENDBRANCH  11  12
ENDBRANCH   8  11
ENDBRANCH   1   7
BRANCH   4  19
HETATM   19  N   UNL     1       6.691  31.091  59.278  1.00  0.00    -0.309 N 
HETATM   20  C   UNL     1       7.508  32.074  59.771  1.00  0.00     0.325 C 
HETATM   21  N   UNL     1       7.032  32.779  60.845  1.00  0.00    -0.306 N 
HETATM   22  O   UNL     1       8.587  32.415  59.292  1.00  0.00    -0.247 OA
HETATM   23  H   UNL     1       7.569  33.616  61.032  1.00  0.00     0.171 HD
HETATM   24  H   UNL     1       5.722  31.175  59.545  1.00  0.00     0.170 HD
BRANCH  21  25
HETATM   25  C   UNL     1       6.032  32.468  61.745  1.00  0.00     0.072 A 
HETATM   26  C   UNL     1       6.001  31.672  62.911  1.00  0.00     0.169 A 
HETATM   27  N   UNL     1       4.793  31.643  63.480  1.00  0.00    -0.185 NA
HETATM   28  N   UNL     1       4.059  32.459  62.706  1.00  0.00    -0.287 N 
HETATM   29  H   UNL     1       3.086  32.610  62.951  1.00  0.00     0.188 HD
HETATM   30  C   UNL     1       4.762  32.993  61.664  1.00  0.00     0.140 A 
ENDBRANCH  21  25
ENDBRANCH   4  19
TORSDOF 5
ENDMDL
MODEL 3
REMARK VINA RESULT:      -8.8      6.384     10.222
REMARK  5 active torsions:
REMARK  status: ('A' for Active; 'I' for Inactive)
REMARK    1  A    between atoms: C_3  and  C_4 
REMARK    2  A    between atoms: C_4  and  N_5 
REMARK       I    between atoms: N_5  and  C_6 
REMARK    3  A    between atoms: C_6  and  C_7 
REMARK    4  A    between atoms: C_10  and  N_11 
REMARK       I    between atoms: N_11  and  C_12 
REMARK       I    between atoms: C_12  and  N_13 
REMARK    5  A    between atoms: N_13  and  C_14 
ROOT
HETATM    1  C   UNL     1       5.852  33.315  62.880  1.00  0.00     0.032 A 
HETATM    2  C   UNL     1       7.120  33.451  63.457  1.00  0.00     0.019 A 
HETATM    3  C   UNL     1       7.246  33.669  64.836  1.00  0.00     0.030 A 
HETATM    4  C   UNL     1       6.114  33.758  65.650  1.00  0.00     0.036 A 
HETATM    5  C   UNL     1       4.851  33.582  65.073  1.00  0.00     0.030 A 
HETATM    6  C   UNL     1       4.721  33.360  63.700  1.00  0.00     0.019 A 
ENDROOT
BRANCH   1   7
HETATM    7  C   UNL     1       5.653  33.103  61.418  1.00  0.00     0.251 C 
HETATM    8  N   UNL     1       6.195  31.956  60.878  1.00  0.00    -0.353 N 
HETATM    9  H   UNL     1       6.874  31.436  61.415  1.00  0.00     0.163 HD
HETATM   10  O   UNL     1       5.066  33.948  60.753  1.00  0.00    -0.268 OA
BRANCH   8  11
HETATM   11  C   UNL     1       6.212  31.765  59.442  1.00  0.00     0.164 C 
BRANCH  11  12
HETATM   12  C   UNL     1       7.559  31.308  58.958  1.00  0.00    -0.002 A 
HETATM   13  C   UNL     1       8.722  32.024  59.279  1.00  0.00     0.012 A 
HETATM   14  C   UNL     1       9.976  31.569  58.863  1.00  0.00     0.001 A 
HETATM   15  C   UNL     1      10.083  30.387  58.130  1.00  0.00     0.003 A 
HETATM   16  C   UNL     1       8.936  29.661  57.813  1.00  0.00     0.043 A 
HETATM   17  C   UNL     1       7.691  30.122  58.230  1.00  0.00     0.124 A 
HETATM   18  F   UNL     1       6.604  29.401  57.921  1.00  0.00    -0.205 F 
ENDBRANCH  11  12
ENDBRANCH   8  11
ENDBRANCH   1   7
BRANCH   4  19
HETATM   19  N   UNL     1       6.158  34.002  67.037  1.00  0.00    -0.309 N 
HETATM   20  C   UNL     1       5.437  34.923  67.749  1.00  0.00     0.325 C 
HETATM   21  N   UNL     1       5.704  34.999  69.091  1.00  0.00    -0.306 N 
HETATM   22  O   UNL     1       4.535  35.628  67.301  1.00  0.00    -0.247 OA
HETATM   23  H   UNL     1       5.010  35.533  69.598  1.00  0.00     0.171 HD
HETATM   24  H   UNL     1       6.585  33.278  67.595  1.00  0.00     0.170 HD
BRANCH  21  25
HETATM   25  C   UNL     1       6.800  34.565  69.810  1.00  0.00     0.072 A 
HETATM   26  C   UNL     1       8.153  34.971  69.840  1.00  0.00     0.169 A 
HETATM   27  N   UNL     1       8.884  34.253  70.696  1.00  0.00    -0.185 NA
HETATM   28  N   UNL     1       7.992  33.417  71.251  1.00  0.00    -0.287 N 
HETATM   29  H   UNL     1       8.317  32.765  71.957  1.00  0.00     0.188 HD
HETATM   30  C   UNL     1       6.726  33.578  70.765  1.00  0.00     0.140 A 
ENDBRANCH  21  25
ENDBRANCH   4  19
TORSDOF 5
ENDMDL
MODEL 4
REMARK VINA RESULT:      -8.8      3.637      9.982
REMARK  5 active torsions:
REMARK  status: ('A' for Active; 'I' for Inactive)
REMARK    1  A    between atoms: C_3  and  C_4 
REMARK    2  A    between atoms: C_4  and  N_5 
REMARK       I    between atoms: N_5  and  C_6 
REMARK    3  A    between atoms: C_6  and  C_7 
REMARK    4  A    between atoms: C_10  and  N_11 
REMARK       I    between atoms: N_11  and  C_12 
REMARK       I    between atoms: C_12  and  N_13 
REMARK    5  A    between atoms: N_13  and  C_14 
ROOT
HETATM    1  C   UNL     1       9.039  30.178  58.137  1.00  0.00     0.032 A 
HETATM    2  C   UNL     1       7.897  29.399  58.354  1.00  0.00     0.019 A 
HETATM    3  C   UNL     1       7.448  28.516  57.361  1.00  0.00     0.030 A 
HETATM    4  C   UNL     1       8.126  28.407  56.145  1.00  0.00     0.036 A 
HETATM    5  C   UNL     1       9.290  29.160  55.949  1.00  0.00     0.030 A 
HETATM    6  C   UNL     1       9.744  30.037  56.937  1.00  0.00     0.019 A 
ENDROOT
BRANCH   1   7
HETATM    7  C   UNL     1       9.554  31.148  59.144  1.00  0.00     0.251 C 
HETATM    8  N   UNL     1       9.141  30.966  60.448  1.00  0.00    -0.353 N 
HETATM    9  H   UNL     1       8.361  30.353  60.632  1.00  0.00     0.163 HD
HETATM   10  O   UNL     1      10.274  32.074  58.789  1.00  0.00    -0.268 OA
BRANCH   8  11
HETATM   11  C   UNL     1       9.439  31.967  61.452  1.00  0.00     0.164 C 
BRANCH  11  12
HETATM   12  C   UNL     1       8.195  32.449  62.142  1.00  0.00    -0.002 A 
HETATM   13  C   UNL     1       8.137  32.544  63.540  1.00  0.00     0.012 A 
HETATM   14  C   UNL     1       6.992  33.035  64.173  1.00  0.00     0.001 A 
HETATM   15  C   UNL     1       5.896  33.445  63.416  1.00  0.00     0.003 A 
HETATM   16  C   UNL     1       5.944  33.365  62.025  1.00  0.00     0.043 A 
HETATM   17  C   UNL     1       7.088  32.874  61.402  1.00  0.00     0.124 A 
HETATM   18  F   UNL     1       7.114  32.815  60.063  1.00  0.00    -0.205 F 
ENDBRANCH  11  12
ENDBRANCH   8  11
ENDBRANCH   1   7
BRANCH   4  19
HETATM   19  N   UNL     1       7.722  27.565  55.090  1.00  0.00    -0.309 N 
HETATM   20  C   UNL     1       6.653  27.729  54.250  1.00  0.00     0.325 C 
HETATM   21  N   UNL     1       6.442  26.733  53.332  1.00  0.00    -0.306 N 
HETATM   22  O   UNL     1       5.919  28.714  54.207  1.00  0.00    -0.247 OA
HETATM   23  H   UNL     1       5.782  26.999  52.611  1.00  0.00     0.171 HD
HETATM   24  H   UNL     1       8.413  26.903  54.769  1.00  0.00     0.170 HD
BRANCH  21  25
HETATM   25  C   UNL     1       6.894  25.429  53.310  1.00  0.00     0.072 A 
HETATM   26  C   UNL     1       6.550  24.278  54.053  1.00  0.00     0.169 A 
HETATM   27  N   UNL     1       7.263  23.207  53.698  1.00  0.00    -0.185 NA
HETATM   28  N   UNL     1       8.033  23.657  52.694  1.00  0.00    -0.287 N 
HETATM   29  H   UNL     1       8.668  23.005  52.243  1.00  0.00     0.188 HD
HETATM   30  C   UNL     1       7.835  24.978  52.412  1.00  0.00     0.140 A 
ENDBRANCH  21  25
ENDBRANCH   4  19
TORSDOF 5
ENDMDL
MODEL 5
REMARK VINA RESULT:      -8.7      7.075     13.171
REMARK  5 active torsions:
REMARK  status: ('A' for Active; 'I' for Inactive)
REMARK    1  A    between atoms: C_3  and  C_4 
REMARK    2  A    between atoms: C_4  and  N_5 
REMARK       I    between atoms: N_5  and  C_6 
REMARK    3  A    between atoms: C_6  and  C_7 
REMARK    4  A    between atoms: C_10  and  N_11 
REMARK       I    between atoms: N_11  and  C_12 
REMARK       I    between atoms: C_12  and  N_13 
REMARK    5  A    between atoms: N_13  and  C_14 
ROOT
HETATM    1  C   UNL     1       6.163  33.453  64.531  1.00  0.00     0.032 A 
HETATM    2  C   UNL     1       5.202  33.015  63.613  1.00  0.00     0.019 A 
HETATM    3  C   UNL     1       5.587  32.254  62.499  1.00  0.00     0.030 A 
HETATM    4  C   UNL     1       6.929  31.928  62.289  1.00  0.00     0.036 A 
HETATM    5  C   UNL     1       7.880  32.335  63.231  1.00  0.00     0.030 A 
HETATM    6  C   UNL     1       7.501  33.090  64.344  1.00  0.00     0.019 A 
ENDROOT
BRANCH   1   7
HETATM    7  C   UNL     1       5.819  34.281  65.721  1.00  0.00     0.251 C 
HETATM    8  N   UNL     1       6.224  33.801  66.949  1.00  0.00    -0.353 N 
HETATM    9  H   UNL     1       6.523  32.839  67.024  1.00  0.00     0.163 HD
HETATM   10  O   UNL     1       5.172  35.312  65.581  1.00  0.00    -0.268 OA
BRANCH   8  11
HETATM   11  C   UNL     1       5.770  34.442  68.167  1.00  0.00     0.164 C 
BRANCH  11  12
HETATM   12  C   UNL     1       6.708  34.185  69.312  1.00  0.00    -0.002 A 
HETATM   13  C   UNL     1       7.860  34.966  69.489  1.00  0.00     0.012 A 
HETATM   14  C   UNL     1       8.704  34.751  70.581  1.00  0.00     0.001 A 
HETATM   15  C   UNL     1       8.403  33.759  71.514  1.00  0.00     0.003 A 
HETATM   16  C   UNL     1       7.257  32.982  71.354  1.00  0.00     0.043 A 
HETATM   17  C   UNL     1       6.421  33.202  70.263  1.00  0.00     0.124 A 
HETATM   18  F   UNL     1       5.320  32.449  70.136  1.00  0.00    -0.205 F 
ENDBRANCH  11  12
ENDBRANCH   8  11
ENDBRANCH   1   7
BRANCH   4  19
HETATM   19  N   UNL     1       7.396  31.192  61.182  1.00  0.00    -0.309 N 
HETATM   20  C   UNL     1       8.637  31.245  60.604  1.00  0.00     0.325 C 
HETATM   21  N   UNL     1       8.826  30.461  59.496  1.00  0.00    -0.306 N 
HETATM   22  O   UNL     1       9.600  31.875  61.033  1.00  0.00    -0.247 OA
HETATM   23  H   UNL     1       9.801  30.375  59.240  1.00  0.00     0.171 HD
HETATM   24  H   UNL     1       6.849  30.382  60.933  1.00  0.00     0.170 HD
BRANCH  21  25
HETATM   25  C   UNL     1       7.906  29.884  58.643  1.00  0.00     0.072 A 
HETATM   26  C   UNL     1       6.749  30.376  58.000  1.00  0.00     0.169 A 
HETATM   27  N   UNL     1       6.142  29.449  57.256  1.00  0.00    -0.185 NA
HETATM   28  N   UNL     1       6.935  28.373  57.382  1.00  0.00    -0.287 N 
HETATM   29  H   UNL     1       6.681  27.525  56.886  1.00  0.00     0.188 HD
HETATM   30  C   UNL     1       8.015  28.590  58.189  1.00  0.00     0.140 A 
ENDBRANCH  21  25
ENDBRANCH   4  19
TORSDOF 5
ENDMDL
MODEL 6
REMARK VINA RESULT:      -8.6      2.407      2.650
REMARK  5 active torsions:
REMARK  status: ('A' for Active; 'I' for Inactive)
REMARK    1  A    between atoms: C_3  and  C_4 
REMARK    2  A    between atoms: C_4  and  N_5 
REMARK       I    between atoms: N_5  and  C_6 
REMARK    3  A    between atoms: C_6  and  C_7 
REMARK    4  A    between atoms: C_10  and  N_11 
REMARK       I    between atoms: N_11  and  C_12 
REMARK       I    between atoms: C_12  and  N_13 
REMARK    5  A    between atoms: N_13  and  C_14 
ROOT
HETATM    1  C   UNL     1       5.822  27.278  55.722  1.00  0.00     0.032 A 
HETATM    2  C   UNL     1       4.682  28.074  55.560  1.00  0.00     0.019 A 
HETATM    3  C   UNL     1       4.453  29.159  56.418  1.00  0.00     0.030 A 
HETATM    4  C   UNL     1       5.351  29.457  57.445  1.00  0.00     0.036 A 
HETATM    5  C   UNL     1       6.509  28.682  57.578  1.00  0.00     0.030 A 
HETATM    6  C   UNL     1       6.744  27.602  56.722  1.00  0.00     0.019 A 
ENDROOT
BRANCH   1   7
HETATM    7  C   UNL     1       6.110  26.101  54.855  1.00  0.00     0.251 C 
HETATM    8  N   UNL     1       7.374  25.558  54.946  1.00  0.00    -0.353 N 
HETATM    9  H   UNL     1       8.103  26.089  55.402  1.00  0.00     0.163 HD
HETATM   10  O   UNL     1       5.253  25.687  54.083  1.00  0.00    -0.268 OA
BRANCH   8  11
HETATM   11  C   UNL     1       7.797  24.537  54.009  1.00  0.00     0.164 C 
BRANCH  11  12
HETATM   12  C   UNL     1       7.965  23.203  54.679  1.00  0.00    -0.002 A 
HETATM   13  C   UNL     1       8.178  23.114  56.063  1.00  0.00     0.012 A 
HETATM   14  C   UNL     1       8.289  21.869  56.687  1.00  0.00     0.001 A 
HETATM   15  C   UNL     1       8.179  20.698  55.937  1.00  0.00     0.003 A 
HETATM   16  C   UNL     1       7.957  20.773  54.563  1.00  0.00     0.043 A 
HETATM   17  C   UNL     1       7.849  22.017  53.949  1.00  0.00     0.124 A 
HETATM   18  F   UNL     1       7.627  22.063  52.627  1.00  0.00    -0.205 F 
ENDBRANCH  11  12
ENDBRANCH   8  11
ENDBRANCH   1   7
BRANCH   4  19
HETATM   19  N   UNL     1       5.176  30.511  58.363  1.00  0.00    -0.309 N 
HETATM   20  C   UNL     1       5.465  31.838  58.181  1.00  0.00     0.325 C 
HETATM   21  N   UNL     1       5.252  32.660  59.255  1.00  0.00    -0.306 N 
HETATM   22  O   UNL     1       5.829  32.353  57.126  1.00  0.00    -0.247 OA
HETATM   23  H   UNL     1       5.277  33.642  59.008  1.00  0.00     0.171 HD
HETATM   24  H   UNL     1       4.567  30.316  59.143  1.00  0.00     0.170 HD
BRANCH  21  25
HETATM   25  C   UNL     1       5.124  32.362  60.597  1.00  0.00     0.072 A 
HETATM   26  C   UNL     1       4.006  32.206  61.446  1.00  0.00     0.169 A 
HETATM   27  N   UNL     1       4.353  31.921  62.704  1.00  0.00    -0.185 NA
HETATM   28  N   UNL     1       5.692  31.847  62.654  1.00  0.00    -0.287 N 
HETATM   29  H   UNL     1       6.195  31.626  63.507  1.00  0.00     0.188 HD
HETATM   30  C   UNL     1       6.200  32.086  61.409  1.00  0.00     0.140 A 
ENDBRANCH  21  25
ENDBRANCH   4  19
TORSDOF 5
ENDMDL
MODEL 7
REMARK VINA RESULT:      -8.5      5.511      9.010
REMARK  5 active torsions:
REMARK  status: ('A' for Active; 'I' for Inactive)
REMARK    1  A    between atoms: C_3  and  C_4 
REMARK    2  A    between atoms: C_4  and  N_5 
REMARK       I    between atoms: N_5  and  C_6 
REMARK    3  A    between atoms: C_6  and  C_7 
REMARK    4  A    between atoms: C_10  and  N_11 
REMARK       I    between atoms: N_11  and  C_12 
REMARK       I    between atoms: C_12  and  N_13 
REMARK    5  A    between atoms: N_13  and  C_14 
ROOT
HETATM    1  C   UNL     1       5.577  25.933  53.416  1.00  0.00     0.032 A 
HETATM    2  C   UNL     1       4.888  27.149  53.359  1.00  0.00     0.019 A 
HETATM    3  C   UNL     1       4.413  27.633  52.131  1.00  0.00     0.030 A 
HETATM    4  C   UNL     1       4.625  26.913  50.953  1.00  0.00     0.036 A 
HETATM    5  C   UNL     1       5.280  25.679  51.022  1.00  0.00     0.030 A 
HETATM    6  C   UNL     1       5.751  25.191  52.244  1.00  0.00     0.019 A 
ENDROOT
BRANCH   1   7
HETATM    7  C   UNL     1       6.123  25.377  54.687  1.00  0.00     0.251 C 
HETATM    8  N   UNL     1       7.417  24.901  54.650  1.00  0.00    -0.353 N 
HETATM    9  H   UNL     1       7.853  24.738  53.754  1.00  0.00     0.163 HD
HETATM   10  O   UNL     1       5.415  25.326  55.685  1.00  0.00    -0.268 OA
BRANCH   8  11
HETATM   11  C   UNL     1       7.958  24.176  55.782  1.00  0.00     0.164 C 
BRANCH  11  12
HETATM   12  C   UNL     1       8.201  22.731  55.452  1.00  0.00    -0.002 A 
HETATM   13  C   UNL     1       8.290  22.302  54.119  1.00  0.00     0.012 A 
HETATM   14  C   UNL     1       8.560  20.964  53.820  1.00  0.00     0.001 A 
HETATM   15  C   UNL     1       8.753  20.042  54.848  1.00  0.00     0.003 A 
HETATM   16  C   UNL     1       8.677  20.458  56.176  1.00  0.00     0.043 A 
HETATM   17  C   UNL     1       8.406  21.792  56.467  1.00  0.00     0.124 A 
HETATM   18  F   UNL     1       8.347  22.169  57.751  1.00  0.00    -0.205 F 
ENDBRANCH  11  12
ENDBRANCH   8  11
ENDBRANCH   1   7
BRANCH   4  19
HETATM   19  N   UNL     1       4.203  27.345  49.680  1.00  0.00    -0.309 N 
HETATM   20  C   UNL     1       4.746  28.339  48.910  1.00  0.00     0.325 C 
HETATM   21  N   UNL     1       4.114  28.604  47.723  1.00  0.00    -0.306 N 
HETATM   22  O   UNL     1       5.779  28.956  49.160  1.00  0.00    -0.247 OA
HETATM   23  H   UNL     1       4.666  29.187  47.107  1.00  0.00     0.171 HD
HETATM   24  H   UNL     1       3.591  26.714  49.184  1.00  0.00     0.170 HD
BRANCH  21  25
HETATM   25  C   UNL     1       2.834  28.297  47.305  1.00  0.00     0.072 A 
HETATM   26  C   UNL     1       1.674  29.078  47.105  1.00  0.00     0.169 A 
HETATM   27  N   UNL     1       0.632  28.351  46.695  1.00  0.00    -0.185 NA
HETATM   28  N   UNL     1       1.133  27.111  46.586  1.00  0.00    -0.287 N 
HETATM   29  H   UNL     1       0.518  26.367  46.272  1.00  0.00     0.188 HD
HETATM   30  C   UNL     1       2.454  27.031  46.924  1.00  0.00     0.140 A 
ENDBRANCH  21  25
ENDBRANCH   4  19
TORSDOF 5
ENDMDL
MODEL 8
REMARK VINA RESULT:      -8.5      8.607     12.662
REMARK  5 active torsions:
REMARK  status: ('A' for Active; 'I' for Inactive)
REMARK    1  A    between atoms: C_3  and  C_4 
REMARK    2  A    between atoms: C_4  and  N_5 
REMARK       I    between atoms: N_5  and  C_6 
REMARK    3  A    between atoms: C_6  and  C_7 
REMARK    4  A    between atoms: C_10  and  N_11 
REMARK       I    between atoms: N_11  and  C_12 
REMARK       I    between atoms: C_12  and  N_13 
REMARK    5  A    between atoms: N_13  and  C_14 
ROOT
HETATM    1  C   UNL     1       5.328  33.892  65.503  1.00  0.00     0.032 A 
HETATM    2  C   UNL     1       4.277  34.094  66.404  1.00  0.00     0.019 A 
HETATM    3  C   UNL     1       4.546  34.311  67.763  1.00  0.00     0.030 A 
HETATM    4  C   UNL     1       5.860  34.324  68.236  1.00  0.00     0.036 A 
HETATM    5  C   UNL     1       6.909  34.161  67.324  1.00  0.00     0.030 A 
HETATM    6  C   UNL     1       6.646  33.948  65.968  1.00  0.00     0.019 A 
ENDROOT
BRANCH   1   7
HETATM    7  C   UNL     1       5.105  33.635  64.053  1.00  0.00     0.251 C 
HETATM    8  N   UNL     1       5.615  32.458  63.545  1.00  0.00    -0.353 N 
HETATM    9  H   UNL     1       6.290  31.942  64.091  1.00  0.00     0.163 HD
HETATM   10  O   UNL     1       4.528  34.469  63.366  1.00  0.00    -0.268 OA
BRANCH   8  11
HETATM   11  C   UNL     1       5.609  32.219  62.116  1.00  0.00     0.164 C 
BRANCH  11  12
HETATM   12  C   UNL     1       7.002  32.168  61.555  1.00  0.00    -0.002 A 
HETATM   13  C   UNL     1       8.109  31.959  62.392  1.00  0.00     0.012 A 
HETATM   14  C   UNL     1       9.397  31.869  61.859  1.00  0.00     0.001 A 
HETATM   15  C   UNL     1       9.594  31.978  60.483  1.00  0.00     0.003 A 
HETATM   16  C   UNL     1       8.502  32.178  59.640  1.00  0.00     0.043 A 
HETATM   17  C   UNL     1       7.222  32.267  60.178  1.00  0.00     0.124 A 
HETATM   18  F   UNL     1       6.187  32.450  59.346  1.00  0.00    -0.205 F 
ENDBRANCH  11  12
ENDBRANCH   8  11
ENDBRANCH   1   7
BRANCH   4  19
HETATM   19  N   UNL     1       6.209  34.510  69.589  1.00  0.00    -0.309 N 
HETATM   20  C   UNL     1       6.001  33.649  70.633  1.00  0.00     0.325 C 
HETATM   21  N   UNL     1       6.388  34.090  71.871  1.00  0.00    -0.306 N 
HETATM   22  O   UNL     1       5.564  32.504  70.541  1.00  0.00    -0.247 OA
HETATM   23  H   UNL     1       6.408  33.349  72.561  1.00  0.00     0.171 HD
HETATM   24  H   UNL     1       6.883  35.239  69.771  1.00  0.00     0.170 HD
BRANCH  21  25
HETATM   25  C   UNL     1       6.637  35.369  72.326  1.00  0.00     0.072 A 
HETATM   26  C   UNL     1       7.405  36.440  71.816  1.00  0.00     0.169 A 
HETATM   27  N   UNL     1       7.371  37.516  72.606  1.00  0.00    -0.185 NA
HETATM   28  N   UNL     1       6.544  37.155  73.599  1.00  0.00    -0.287 N 
HETATM   29  H   UNL     1       6.348  37.828  74.333  1.00  0.00     0.188 HD
HETATM   30  C   UNL     1       6.064  35.883  73.467  1.00  0.00     0.140 A 
ENDBRANCH  21  25
ENDBRANCH   4  19
TORSDOF 5
ENDMDL
MODEL 9
REMARK VINA RESULT:      -8.1      5.638      8.691
REMARK  5 active torsions:
REMARK  status: ('A' for Active; 'I' for Inactive)
REMARK    1  A    between atoms: C_3  and  C_4 
REMARK    2  A    between atoms: C_4  and  N_5 
REMARK       I    between atoms: N_5  and  C_6 
REMARK    3  A    between atoms: C_6  and  C_7 
REMARK    4  A    between atoms: C_10  and  N_11 
REMARK       I    between atoms: N_11  and  C_12 
REMARK       I    between atoms: C_12  and  N_13 
REMARK    5  A    between atoms: N_13  and  C_14 
ROOT
HETATM    1  C   UNL     1       5.629  26.037  53.206  1.00  0.00     0.032 A 
HETATM    2  C   UNL     1       5.900  25.563  51.917  1.00  0.00     0.019 A 
HETATM    3  C   UNL     1       5.391  26.235  50.797  1.00  0.00     0.030 A 
HETATM    4  C   UNL     1       4.605  27.380  50.950  1.00  0.00     0.036 A 
HETATM    5  C   UNL     1       4.370  27.872  52.239  1.00  0.00     0.030 A 
HETATM    6  C   UNL     1       4.879  27.208  53.358  1.00  0.00     0.019 A 
ENDROOT
BRANCH   1   7
HETATM    7  C   UNL     1       6.124  25.355  54.434  1.00  0.00     0.251 C 
HETATM    8  N   UNL     1       7.400  24.836  54.385  1.00  0.00    -0.353 N 
HETATM    9  H   UNL     1       7.853  24.736  53.487  1.00  0.00     0.163 HD
HETATM   10  O   UNL     1       5.389  25.243  55.409  1.00  0.00    -0.268 OA
BRANCH   8  11
HETATM   11  C   UNL     1       7.888  23.997  55.461  1.00  0.00     0.164 C 
BRANCH  11  12
HETATM   12  C   UNL     1       8.140  22.590  54.998  1.00  0.00    -0.002 A 
HETATM   13  C   UNL     1       8.156  22.274  53.631  1.00  0.00     0.012 A 
HETATM   14  C   UNL     1       8.434  20.972  53.206  1.00  0.00     0.001 A 
HETATM   15  C   UNL     1       8.708  19.974  54.140  1.00  0.00     0.003 A 
HETATM   16  C   UNL     1       8.704  20.278  55.500  1.00  0.00     0.043 A 
HETATM   17  C   UNL     1       8.425  21.576  55.916  1.00  0.00     0.124 A 
HETATM   18  F   UNL     1       8.436  21.846  57.230  1.00  0.00    -0.205 F 
ENDBRANCH  11  12
ENDBRANCH   8  11
ENDBRANCH   1   7
BRANCH   4  19
HETATM   19  N   UNL     1       4.036  28.094  49.877  1.00  0.00    -0.309 N 
HETATM   20  C   UNL     1       3.397  27.586  48.778  1.00  0.00     0.325 C 
HETATM   21  N   UNL     1       2.977  28.496  47.843  1.00  0.00    -0.306 N 
HETATM   22  O   UNL     1       3.112  26.404  48.597  1.00  0.00    -0.247 OA
HETATM   23  H   UNL     1       2.337  28.097  47.169  1.00  0.00     0.171 HD
HETATM   24  H   UNL     1       3.876  29.077  50.041  1.00  0.00     0.170 HD
BRANCH  21  25
HETATM   25  C   UNL     1       3.373  29.801  47.626  1.00  0.00     0.072 A 
HETATM   26  C   UNL     1       2.846  31.047  48.034  1.00  0.00     0.169 A 
HETATM   27  N   UNL     1       3.560  32.079  47.578  1.00  0.00    -0.185 NA
HETATM   28  N   UNL     1       4.573  31.496  46.918  1.00  0.00    -0.287 N 
HETATM   29  H   UNL     1       5.271  32.091  46.483  1.00  0.00     0.188 HD
HETATM   30  C   UNL     1       4.515  30.132  46.934  1.00  0.00     0.140 A 
ENDBRANCH  21  25
ENDBRANCH   4  19
TORSDOF 5
ENDMDL
MODEL 10
REMARK VINA RESULT:      -8.1      3.675      9.729
REMARK  5 active torsions:
REMARK  status: ('A' for Active; 'I' for Inactive)
REMARK    1  A    between atoms: C_3  and  C_4 
REMARK    2  A    between atoms: C_4  and  N_5 
REMARK       I    between atoms: N_5  and  C_6 
REMARK    3  A    between atoms: C_6  and  C_7 
REMARK    4  A    between atoms: C_10  and  N_11 
REMARK       I    between atoms: N_11  and  C_12 
REMARK       I    between atoms: C_12  and  N_13 
REMARK    5  A    between atoms: N_13  and  C_14 
ROOT
HETATM    1  C   UNL     1       6.464  29.279  56.741  1.00  0.00     0.032 A 
HETATM    2  C   UNL     1       7.371  29.135  55.685  1.00  0.00     0.019 A 
HETATM    3  C   UNL     1       7.633  27.865  55.150  1.00  0.00     0.030 A 
HETATM    4  C   UNL     1       6.999  26.732  55.664  1.00  0.00     0.036 A 
HETATM    5  C   UNL     1       6.064  26.887  56.693  1.00  0.00     0.030 A 
HETATM    6  C   UNL     1       5.796  28.151  57.226  1.00  0.00     0.019 A 
ENDROOT
BRANCH   1   7
HETATM    7  C   UNL     1       6.160  30.598  57.365  1.00  0.00     0.251 C 
HETATM    8  N   UNL     1       6.580  30.781  58.666  1.00  0.00    -0.353 N 
HETATM    9  H   UNL     1       6.861  29.975  59.206  1.00  0.00     0.163 HD
HETATM   10  O   UNL     1       5.530  31.441  56.736  1.00  0.00    -0.268 OA
BRANCH   8  11
HETATM   11  C   UNL     1       6.163  31.954  59.407  1.00  0.00     0.164 C 
BRANCH  11  12
HETATM   12  C   UNL     1       6.881  32.063  60.722  1.00  0.00    -0.002 A 
HETATM   13  C   UNL     1       8.246  31.753  60.826  1.00  0.00     0.012 A 
HETATM   14  C   UNL     1       8.918  31.900  62.042  1.00  0.00     0.001 A 
HETATM   15  C   UNL     1       8.238  32.365  63.166  1.00  0.00     0.003 A 
HETATM   16  C   UNL     1       6.884  32.685  63.074  1.00  0.00     0.043 A 
HETATM   17  C   UNL     1       6.221  32.535  61.860  1.00  0.00     0.124 A 
HETATM   18  F   UNL     1       4.921  32.858  61.794  1.00  0.00    -0.205 F 
ENDBRANCH  11  12
ENDBRANCH   8  11
ENDBRANCH   1   7
BRANCH   4  19
HETATM   19  N   UNL     1       7.230  25.421  55.199  1.00  0.00    -0.309 N 
HETATM   20  C   UNL     1       6.469  24.700  54.318  1.00  0.00     0.325 C 
HETATM   21  N   UNL     1       6.882  23.418  54.066  1.00  0.00    -0.306 N 
HETATM   22  O   UNL     1       5.501  25.125  53.691  1.00  0.00    -0.247 OA
HETATM   23  H   UNL     1       6.420  23.008  53.264  1.00  0.00     0.171 HD
HETATM   24  H   UNL     1       8.162  25.064  55.343  1.00  0.00     0.170 HD
BRANCH  21  25
HETATM   25  C   UNL     1       7.723  22.592  54.786  1.00  0.00     0.072 A 
HETATM   26  C   UNL     1       7.599  21.947  56.037  1.00  0.00     0.169 A 
HETATM   27  N   UNL     1       8.684  21.239  56.358  1.00  0.00    -0.185 NA
HETATM   28  N   UNL     1       9.487  21.390  55.293  1.00  0.00    -0.287 N 
HETATM   29  H   UNL     1      10.389  20.923  55.298  1.00  0.00     0.188 HD
HETATM   30  C   UNL     1       8.948  22.178  54.317  1.00  0.00     0.140 A 
ENDBRANCH  21  25
ENDBRANCH   4  19
TORSDOF 5
ENDMDL
