MODEL 1
REMARK VINA RESULT:     -10.3      0.000      0.000
REMARK  6 active torsions:
REMARK  status: ('A' for Active; 'I' for Inactive)
REMARK    1  A    between atoms: N_9  and  C_10 
REMARK    2  A    between atoms: C_10  and  C_11 
REMARK       I    between atoms: C_11  and  N_12 
REMARK    3  A    between atoms: N_12  and  C_13 
REMARK    4  A    between atoms: C_14  and  C_15 
REMARK       I    between atoms: C_15  and  N_16 
REMARK    5  A    between atoms: N_16  and  C_17 
REMARK    6  A    between atoms: C_17  and  C_18 
ROOT
HETATM    1  C   UNL     1       9.685  30.940  58.762  1.00  0.00     0.240 C 
HETATM    2  N   UNL     1       8.845  30.589  59.806  1.00  0.00    -0.325 N 
HETATM    3  O   UNL     1      10.000  32.094  58.474  1.00  0.00    -0.271 OA
HETATM    4  H   UNL     1       9.037  29.677  60.207  1.00  0.00     0.169 HD
ENDROOT
BRANCH   1   5
HETATM    5  C   UNL     1      10.259  29.722  58.033  1.00  0.00     0.240 C 
BRANCH   5   6
HETATM    6  N   UNL     1       9.303  29.275  57.055  1.00  0.00    -0.259 N 
HETATM    7  C   UNL     1       9.468  29.481  55.722  1.00  0.00     0.326 C 
HETATM    8  N   UNL     1       8.452  28.853  55.056  1.00  0.00    -0.320 N 
HETATM    9  O   UNL     1      10.358  30.131  55.200  1.00  0.00    -0.247 OA
HETATM   10  C   UNL     1       7.433  28.346  55.949  1.00  0.00     0.144 C 
HETATM   11  H   UNL     1       8.428  28.816  54.047  1.00  0.00     0.165 HD
HETATM   12  C   UNL     1       7.107  26.894  55.652  1.00  0.00    -0.014 A 
HETATM   13  C   UNL     1       8.143  28.595  57.302  1.00  0.00     0.261 C 
HETATM   14  C   UNL     1       6.194  29.259  55.885  1.00  0.00     0.047 C 
HETATM   15  C   UNL     1       5.926  26.552  54.955  1.00  0.00    -0.049 A 
HETATM   16  C   UNL     1       7.985  25.864  56.037  1.00  0.00     0.011 A 
HETATM   17  C   UNL     1       5.633  25.201  54.704  1.00  0.00     0.007 A 
HETATM   18  C   UNL     1       4.912  27.588  54.529  1.00  0.00     0.039 C 
HETATM   19  C   UNL     1       6.503  24.195  55.118  1.00  0.00     0.001 A 
HETATM   20  C   UNL     1       7.679  24.526  55.780  1.00  0.00     0.001 A 
HETATM   21  C   UNL     1       5.428  29.021  54.588  1.00  0.00     0.008 C 
HETATM   22  O   UNL     1       7.712  28.309  58.412  1.00  0.00    -0.270 OA
ENDBRANCH   5   6
ENDBRANCH   1   5
BRANCH   2  23
HETATM   23  C   UNL     1       8.214  31.505  60.681  1.00  0.00     0.050 A 
HETATM   24  C   UNL     1       7.031  32.229  60.442  1.00  0.00     0.058 A 
HETATM   25  C   UNL     1       6.521  33.059  61.466  1.00  0.00     0.019 A 
HETATM   26  C   UNL     1       7.155  33.172  62.702  1.00  0.00     0.001 A 
HETATM   27  C   UNL     1       8.303  32.434  62.947  1.00  0.00     0.002 A 
HETATM   28  C   UNL     1       8.816  31.599  61.952  1.00  0.00     0.030 A 
BRANCH  24  29
HETATM   29  C   UNL     1       6.089  32.088  59.297  1.00  0.00     0.254 C 
HETATM   30  N   UNL     1       4.772  31.845  59.577  1.00  0.00    -0.351 N 
HETATM   31  H   UNL     1       4.458  31.885  60.545  1.00  0.00     0.163 HD
HETATM   32  O   UNL     1       6.552  32.052  58.159  1.00  0.00    -0.268 OA
BRANCH  30  33
HETATM   33  C   UNL     1       3.871  31.275  58.600  1.00  0.00     0.187 C 
BRANCH  33  34
HETATM   34  C   UNL     1       3.565  32.213  57.491  1.00  0.00     0.070 A 
HETATM   35  O   UNL     1       3.049  33.426  57.853  1.00  0.00    -0.325 OA
HETATM   36  C   UNL     1       2.751  34.093  56.708  1.00  0.00     0.142 A 
HETATM   37  C   UNL     1       3.081  33.334  55.610  1.00  0.00     0.027 A 
HETATM   38  C   UNL     1       3.603  32.119  56.115  1.00  0.00     0.036 A 
ENDBRANCH  33  34
ENDBRANCH  30  33
ENDBRANCH  24  29
ENDBRANCH   2  23
TORSDOF 6
ENDMDL
MODEL 2
REMARK VINA RESULT:     -10.2      3.573      7.161
REMARK  6 active torsions:
REMARK  status: ('A' for Active; 'I' for Inactive)
REMARK    1  A    between atoms: N_9  and  C_10 
REMARK    2  A    between atoms: C_10  and  C_11 
REMARK       I    between atoms: C_11  and  N_12 
REMARK    3  A    between atoms: N_12  and  C_13 
REMARK    4  A    between atoms: C_14  and  C_15 
REMARK       I    between atoms: C_15  and  N_16 
REMARK    5  A    between atoms: N_16  and  C_17 
REMARK    6  A    between atoms: C_17  and  C_18 
ROOT
HETATM    1  C   UNL     1       5.558  27.813  51.877  1.00  0.00     0.240 C 
HETATM    2  N   UNL     1       4.233  28.132  52.128  1.00  0.00    -0.325 N 
HETATM    3  O   UNL     1       6.507  28.575  52.058  1.00  0.00    -0.271 OA
HETATM    4  H   UNL     1       3.655  27.338  52.382  1.00  0.00     0.169 HD
ENDROOT
BRANCH   1   5
HETATM    5  C   UNL     1       5.738  26.364  51.416  1.00  0.00     0.240 C 
BRANCH   5   6
HETATM    6  N   UNL     1       6.106  25.560  52.551  1.00  0.00    -0.259 N 
HETATM    7  C   UNL     1       5.200  25.124  53.464  1.00  0.00     0.326 C 
HETATM    8  N   UNL     1       5.840  24.305  54.354  1.00  0.00    -0.320 N 
HETATM    9  O   UNL     1       4.019  25.423  53.504  1.00  0.00    -0.247 OA
HETATM   10  C   UNL     1       7.275  24.308  54.179  1.00  0.00     0.144 C 
HETATM   11  H   UNL     1       5.331  23.810  55.073  1.00  0.00     0.165 HD
HETATM   12  C   UNL     1       7.829  22.897  54.102  1.00  0.00    -0.014 A 
HETATM   13  C   UNL     1       7.363  25.119  52.863  1.00  0.00     0.261 C 
HETATM   14  C   UNL     1       7.926  25.141  55.298  1.00  0.00     0.047 C 
HETATM   15  C   UNL     1       8.491  22.324  55.211  1.00  0.00    -0.049 A 
HETATM   16  C   UNL     1       7.669  22.122  52.938  1.00  0.00     0.011 A 
HETATM   17  C   UNL     1       9.011  21.023  55.115  1.00  0.00     0.007 A 
HETATM   18  C   UNL     1       8.733  23.091  56.490  1.00  0.00     0.039 C 
HETATM   19  C   UNL     1       8.865  20.282  53.944  1.00  0.00     0.001 A 
HETATM   20  C   UNL     1       8.192  20.830  52.859  1.00  0.00     0.001 A 
HETATM   21  C   UNL     1       7.910  24.368  56.612  1.00  0.00     0.008 C 
HETATM   22  O   UNL     1       8.384  25.393  52.246  1.00  0.00    -0.270 OA
ENDBRANCH   5   6
ENDBRANCH   1   5
BRANCH   2  23
HETATM   23  C   UNL     1       3.778  29.381  52.611  1.00  0.00     0.050 A 
HETATM   24  C   UNL     1       3.849  29.857  53.934  1.00  0.00     0.058 A 
HETATM   25  C   UNL     1       3.391  31.163  54.215  1.00  0.00     0.019 A 
HETATM   26  C   UNL     1       2.878  31.990  53.218  1.00  0.00     0.001 A 
HETATM   27  C   UNL     1       2.838  31.533  51.910  1.00  0.00     0.002 A 
HETATM   28  C   UNL     1       3.298  30.249  51.609  1.00  0.00     0.030 A 
BRANCH  24  29
HETATM   29  C   UNL     1       4.551  29.235  55.092  1.00  0.00     0.254 C 
HETATM   30  N   UNL     1       5.919  29.280  55.111  1.00  0.00    -0.351 N 
HETATM   31  H   UNL     1       6.404  29.830  54.405  1.00  0.00     0.163 HD
HETATM   32  O   UNL     1       3.888  28.587  55.900  1.00  0.00    -0.268 OA
BRANCH  30  33
HETATM   33  C   UNL     1       6.706  28.371  55.915  1.00  0.00     0.187 C 
BRANCH  33  34
HETATM   34  C   UNL     1       8.025  28.940  56.291  1.00  0.00     0.070 A 
HETATM   35  O   UNL     1       8.885  29.201  55.261  1.00  0.00    -0.325 OA
HETATM   36  C   UNL     1      10.054  29.619  55.811  1.00  0.00     0.142 A 
HETATM   37  C   UNL     1       9.958  29.646  57.182  1.00  0.00     0.027 A 
HETATM   38  C   UNL     1       8.649  29.204  57.492  1.00  0.00     0.036 A 
ENDBRANCH  33  34
ENDBRANCH  30  33
ENDBRANCH  24  29
ENDBRANCH   2  23
TORSDOF 6
ENDMDL
MODEL 3
REMARK VINA RESULT:     -10.2      3.512      8.269
REMARK  6 active torsions:
REMARK  status: ('A' for Active; 'I' for Inactive)
REMARK    1  A    between atoms: N_9  and  C_10 
REMARK    2  A    between atoms: C_10  and  C_11 
REMARK       I    between atoms: C_11  and  N_12 
REMARK    3  A    between atoms: N_12  and  C_13 
REMARK    4  A    between atoms: C_14  and  C_15 
REMARK       I    between atoms: C_15  and  N_16 
REMARK    5  A    between atoms: N_16  and  C_17 
REMARK    6  A    between atoms: C_17  and  C_18 
ROOT
HETATM    1  C   UNL     1       5.428  25.949  56.337  1.00  0.00     0.240 C 
HETATM    2  N   UNL     1       6.285  26.065  55.255  1.00  0.00    -0.325 N 
HETATM    3  O   UNL     1       5.080  24.883  56.843  1.00  0.00    -0.271 OA
HETATM    4  H   UNL     1       6.829  26.922  55.244  1.00  0.00     0.169 HD
ENDROOT
BRANCH   1   5
HETATM    5  C   UNL     1       5.008  27.308  56.905  1.00  0.00     0.240 C 
BRANCH   5   6
HETATM    6  N   UNL     1       6.129  28.206  56.834  1.00  0.00    -0.259 N 
HETATM    7  C   UNL     1       6.223  29.188  55.899  1.00  0.00     0.326 C 
HETATM    8  N   UNL     1       7.342  29.929  56.159  1.00  0.00    -0.320 N 
HETATM    9  O   UNL     1       5.454  29.373  54.971  1.00  0.00    -0.247 OA
HETATM   10  C   UNL     1       8.169  29.345  57.192  1.00  0.00     0.144 C 
HETATM   11  H   UNL     1       7.558  30.761  55.627  1.00  0.00     0.165 HD
HETATM   12  C   UNL     1       8.534  30.365  58.254  1.00  0.00    -0.014 A 
HETATM   13  C   UNL     1       7.216  28.220  57.664  1.00  0.00     0.261 C 
HETATM   14  C   UNL     1       9.404  28.686  56.550  1.00  0.00     0.047 C 
HETATM   15  C   UNL     1       9.824  30.942  58.281  1.00  0.00    -0.049 A 
HETATM   16  C   UNL     1       7.591  30.777  59.214  1.00  0.00     0.011 A 
HETATM   17  C   UNL     1      10.148  31.872  59.282  1.00  0.00     0.007 A 
HETATM   18  C   UNL     1      10.908  30.540  57.309  1.00  0.00     0.039 C 
HETATM   19  C   UNL     1       9.208  32.247  60.239  1.00  0.00     0.001 A 
HETATM   20  C   UNL     1       7.930  31.703  60.203  1.00  0.00     0.001 A 
HETATM   21  C   UNL     1      10.402  29.751  56.107  1.00  0.00     0.008 C 
HETATM   22  O   UNL     1       7.425  27.423  58.570  1.00  0.00    -0.270 OA
ENDBRANCH   5   6
ENDBRANCH   1   5
BRANCH   2  23
HETATM   23  C   UNL     1       6.870  24.978  54.565  1.00  0.00     0.050 A 
HETATM   24  C   UNL     1       6.537  24.510  53.280  1.00  0.00     0.058 A 
HETATM   25  C   UNL     1       7.277  23.439  52.731  1.00  0.00     0.019 A 
HETATM   26  C   UNL     1       8.326  22.841  53.425  1.00  0.00     0.001 A 
HETATM   27  C   UNL     1       8.675  23.323  54.678  1.00  0.00     0.002 A 
HETATM   28  C   UNL     1       7.963  24.389  55.233  1.00  0.00     0.030 A 
BRANCH  24  29
HETATM   29  C   UNL     1       5.615  25.135  52.291  1.00  0.00     0.254 C 
HETATM   30  N   UNL     1       5.910  26.396  51.848  1.00  0.00    -0.351 N 
HETATM   31  H   UNL     1       6.799  26.816  52.112  1.00  0.00     0.163 HD
HETATM   32  O   UNL     1       4.562  24.559  52.026  1.00  0.00    -0.268 OA
BRANCH  30  33
HETATM   33  C   UNL     1       4.911  27.255  51.251  1.00  0.00     0.187 C 
BRANCH  33  34
HETATM   34  C   UNL     1       4.886  27.157  49.770  1.00  0.00     0.070 A 
HETATM   35  O   UNL     1       5.473  28.187  49.088  1.00  0.00    -0.325 OA
HETATM   36  C   UNL     1       5.264  27.962  47.766  1.00  0.00     0.142 A 
HETATM   37  C   UNL     1       4.563  26.793  47.581  1.00  0.00     0.027 A 
HETATM   38  C   UNL     1       4.316  26.276  48.875  1.00  0.00     0.036 A 
ENDBRANCH  33  34
ENDBRANCH  30  33
ENDBRANCH  24  29
ENDBRANCH   2  23
TORSDOF 6
ENDMDL
MODEL 4
REMARK VINA RESULT:      -9.8      2.399      8.261
REMARK  6 active torsions:
REMARK  status: ('A' for Active; 'I' for Inactive)
REMARK    1  A    between atoms: N_9  and  C_10 
REMARK    2  A    between atoms: C_10  and  C_11 
REMARK       I    between atoms: C_11  and  N_12 
REMARK    3  A    between atoms: N_12  and  C_13 
REMARK    4  A    between atoms: C_14  and  C_15 
REMARK       I    between atoms: C_15  and  N_16 
REMARK    5  A    between atoms: N_16  and  C_17 
REMARK    6  A    between atoms: C_17  and  C_18 
ROOT
HETATM    1  C   UNL     1       8.919  28.772  55.782  1.00  0.00     0.240 C 
HETATM    2  N   UNL     1       7.780  28.042  56.080  1.00  0.00    -0.325 N 
HETATM    3  O   UNL     1       9.096  29.399  54.738  1.00  0.00    -0.271 OA
HETATM    4  H   UNL     1       7.569  27.985  57.071  1.00  0.00     0.169 HD
ENDROOT
BRANCH   1   5
HETATM    5  C   UNL     1       9.927  28.788  56.935  1.00  0.00     0.240 C 
BRANCH   5   6
HETATM    6  N   UNL     1       9.533  29.797  57.882  1.00  0.00    -0.259 N 
HETATM    7  C   UNL     1      10.187  30.981  58.005  1.00  0.00     0.326 C 
HETATM    8  N   UNL     1       9.513  31.758  58.906  1.00  0.00    -0.320 N 
HETATM    9  O   UNL     1      11.212  31.299  57.428  1.00  0.00    -0.247 OA
HETATM   10  C   UNL     1       8.458  31.036  59.583  1.00  0.00     0.144 C 
HETATM   11  H   UNL     1       9.788  32.713  59.088  1.00  0.00     0.165 HD
HETATM   12  C   UNL     1       7.148  31.800  59.544  1.00  0.00    -0.014 A 
HETATM   13  C   UNL     1       8.480  29.729  58.752  1.00  0.00     0.261 C 
HETATM   14  C   UNL     1       8.906  30.698  61.017  1.00  0.00     0.047 C 
HETATM   15  C   UNL     1       6.687  32.495  60.684  1.00  0.00    -0.049 A 
HETATM   16  C   UNL     1       6.380  31.856  58.365  1.00  0.00     0.011 A 
HETATM   17  C   UNL     1       5.464  33.183  60.633  1.00  0.00     0.007 A 
HETATM   18  C   UNL     1       7.430  32.467  62.000  1.00  0.00     0.039 C 
HETATM   19  C   UNL     1       4.707  33.204  59.465  1.00  0.00     0.001 A 
HETATM   20  C   UNL     1       5.166  32.544  58.331  1.00  0.00     0.001 A 
HETATM   21  C   UNL     1       8.858  31.944  61.895  1.00  0.00     0.008 C 
HETATM   22  O   UNL     1       7.740  28.764  58.897  1.00  0.00    -0.270 OA
ENDBRANCH   5   6
ENDBRANCH   1   5
BRANCH   2  23
HETATM   23  C   UNL     1       6.664  27.898  55.223  1.00  0.00     0.050 A 
HETATM   24  C   UNL     1       6.485  26.928  54.219  1.00  0.00     0.058 A 
HETATM   25  C   UNL     1       5.270  26.908  53.498  1.00  0.00     0.019 A 
HETATM   26  C   UNL     1       4.247  27.817  53.761  1.00  0.00     0.001 A 
HETATM   27  C   UNL     1       4.411  28.751  54.772  1.00  0.00     0.002 A 
HETATM   28  C   UNL     1       5.601  28.780  55.504  1.00  0.00     0.030 A 
BRANCH  24  29
HETATM   29  C   UNL     1       7.342  25.744  53.929  1.00  0.00     0.254 C 
HETATM   30  N   UNL     1       7.481  24.799  54.909  1.00  0.00    -0.351 N 
HETATM   31  H   UNL     1       6.910  24.872  55.750  1.00  0.00     0.163 HD
HETATM   32  O   UNL     1       7.997  25.736  52.889  1.00  0.00    -0.268 OA
BRANCH  30  33
HETATM   33  C   UNL     1       8.583  23.864  54.923  1.00  0.00     0.187 C 
BRANCH  33  34
HETATM   34  C   UNL     1       8.226  22.552  54.327  1.00  0.00     0.070 A 
HETATM   35  O   UNL     1       8.281  21.474  55.166  1.00  0.00    -0.325 OA
HETATM   36  C   UNL     1       8.016  20.371  54.418  1.00  0.00     0.142 A 
HETATM   37  C   UNL     1       7.777  20.722  53.111  1.00  0.00     0.027 A 
HETATM   38  C   UNL     1       7.916  22.130  53.051  1.00  0.00     0.036 A 
ENDBRANCH  33  34
ENDBRANCH  30  33
ENDBRANCH  24  29
ENDBRANCH   2  23
TORSDOF 6
ENDMDL
MODEL 5
REMARK VINA RESULT:      -9.6      2.418      8.375
REMARK  6 active torsions:
REMARK  status: ('A' for Active; 'I' for Inactive)
REMARK    1  A    between atoms: N_9  and  C_10 
REMARK    2  A    between atoms: C_10  and  C_11 
REMARK       I    between atoms: C_11  and  N_12 
REMARK    3  A    between atoms: N_12  and  C_13 
REMARK    4  A    between atoms: C_14  and  C_15 
REMARK       I    between atoms: C_15  and  N_16 
REMARK    5  A    between atoms: N_16  and  C_17 
REMARK    6  A    between atoms: C_17  and  C_18 
ROOT
HETATM    1  C   UNL     1       5.172  31.969  57.982  1.00  0.00     0.240 C 
HETATM    2  N   UNL     1       5.794  30.862  58.535  1.00  0.00    -0.325 N 
HETATM    3  O   UNL     1       5.687  32.721  57.155  1.00  0.00    -0.271 OA
HETATM    4  H   UNL     1       5.159  30.117  58.802  1.00  0.00     0.169 HD
ENDROOT
BRANCH   1   5
HETATM    5  C   UNL     1       3.722  32.127  58.450  1.00  0.00     0.240 C 
BRANCH   5   6
HETATM    6  N   UNL     1       3.715  32.322  59.875  1.00  0.00    -0.259 N 
HETATM    7  C   UNL     1       3.187  31.414  60.736  1.00  0.00     0.326 C 
HETATM    8  N   UNL     1       3.426  31.838  62.015  1.00  0.00    -0.320 N 
HETATM    9  O   UNL     1       2.584  30.399  60.431  1.00  0.00    -0.247 OA
HETATM   10  C   UNL     1       3.972  33.176  62.064  1.00  0.00     0.144 C 
HETATM   11  H   UNL     1       3.183  31.267  62.813  1.00  0.00     0.165 HD
HETATM   12  C   UNL     1       5.210  33.239  62.939  1.00  0.00    -0.014 A 
HETATM   13  C   UNL     1       4.226  33.395  60.552  1.00  0.00     0.261 C 
HETATM   14  C   UNL     1       2.876  34.161  62.512  1.00  0.00     0.047 C 
HETATM   15  C   UNL     1       5.141  33.784  64.241  1.00  0.00    -0.049 A 
HETATM   16  C   UNL     1       6.442  32.732  62.485  1.00  0.00     0.011 A 
HETATM   17  C   UNL     1       6.301  33.849  65.030  1.00  0.00     0.007 A 
HETATM   18  C   UNL     1       3.869  34.377  64.801  1.00  0.00     0.039 C 
HETATM   19  C   UNL     1       7.516  33.365  64.551  1.00  0.00     0.001 A 
HETATM   20  C   UNL     1       7.585  32.803  63.282  1.00  0.00     0.001 A 
HETATM   21  C   UNL     1       2.617  34.021  64.008  1.00  0.00     0.008 C 
HETATM   22  O   UNL     1       4.723  34.388  60.036  1.00  0.00    -0.270 OA
ENDBRANCH   5   6
ENDBRANCH   1   5
BRANCH   2  23
HETATM   23  C   UNL     1       7.114  30.445  58.245  1.00  0.00     0.050 A 
HETATM   24  C   UNL     1       7.505  29.413  57.371  1.00  0.00     0.058 A 
HETATM   25  C   UNL     1       8.883  29.179  57.165  1.00  0.00     0.019 A 
HETATM   26  C   UNL     1       9.859  29.946  57.798  1.00  0.00     0.001 A 
HETATM   27  C   UNL     1       9.473  30.982  58.634  1.00  0.00     0.002 A 
HETATM   28  C   UNL     1       8.116  31.237  58.841  1.00  0.00     0.030 A 
BRANCH  24  29
HETATM   29  C   UNL     1       6.646  28.632  56.438  1.00  0.00     0.254 C 
HETATM   30  N   UNL     1       7.260  27.761  55.579  1.00  0.00    -0.351 N 
HETATM   31  H   UNL     1       8.258  27.588  55.682  1.00  0.00     0.163 HD
HETATM   32  O   UNL     1       5.449  28.904  56.377  1.00  0.00    -0.268 OA
BRANCH  30  33
HETATM   33  C   UNL     1       6.616  27.287  54.374  1.00  0.00     0.187 C 
BRANCH  33  34
HETATM   34  C   UNL     1       7.045  25.916  53.999  1.00  0.00     0.070 A 
HETATM   35  O   UNL     1       6.670  24.914  54.850  1.00  0.00    -0.325 OA
HETATM   36  C   UNL     1       7.232  23.767  54.390  1.00  0.00     0.142 A 
HETATM   37  C   UNL     1       7.954  24.010  53.245  1.00  0.00     0.027 A 
HETATM   38  C   UNL     1       7.836  25.398  52.995  1.00  0.00     0.036 A 
ENDBRANCH  33  34
ENDBRANCH  30  33
ENDBRANCH  24  29
ENDBRANCH   2  23
TORSDOF 6
ENDMDL
MODEL 6
REMARK VINA RESULT:      -9.6      2.091      4.387
REMARK  6 active torsions:
REMARK  status: ('A' for Active; 'I' for Inactive)
REMARK    1  A    between atoms: N_9  and  C_10 
REMARK    2  A    between atoms: C_10  and  C_11 
REMARK       I    between atoms: C_11  and  N_12 
REMARK    3  A    between atoms: N_12  and  C_13 
REMARK    4  A    between atoms: C_14  and  C_15 
REMARK       I    between atoms: C_15  and  N_16 
REMARK    5  A    between atoms: N_16  and  C_17 
REMARK    6  A    between atoms: C_17  and  C_18 
ROOT
HETATM    1  C   UNL     1       7.032  30.724  58.289  1.00  0.00     0.240 C 
HETATM    2  N   UNL     1       5.654  30.752  58.150  1.00  0.00    -0.325 N 
HETATM    3  O   UNL     1       7.733  31.710  58.512  1.00  0.00    -0.271 OA
HETATM    4  H   UNL     1       5.190  29.895  58.431  1.00  0.00     0.169 HD
ENDROOT
BRANCH   1   5
HETATM    5  C   UNL     1       7.604  29.305  58.214  1.00  0.00     0.240 C 
BRANCH   5   6
HETATM    6  N   UNL     1       7.491  28.832  56.860  1.00  0.00    -0.259 N 
HETATM    7  C   UNL     1       8.394  29.149  55.896  1.00  0.00     0.326 C 
HETATM    8  N   UNL     1       8.069  28.467  54.756  1.00  0.00    -0.320 N 
HETATM    9  O   UNL     1       9.328  29.924  56.012  1.00  0.00    -0.247 OA
HETATM   10  C   UNL     1       6.793  27.793  54.855  1.00  0.00     0.144 C 
HETATM   11  H   UNL     1       8.659  28.500  53.936  1.00  0.00     0.165 HD
HETATM   12  C   UNL     1       6.898  26.340  54.431  1.00  0.00    -0.014 A 
HETATM   13  C   UNL     1       6.512  28.017  56.361  1.00  0.00     0.261 C 
HETATM   14  C   UNL     1       5.737  28.573  54.051  1.00  0.00     0.047 C 
HETATM   15  C   UNL     1       6.425  25.926  53.165  1.00  0.00    -0.049 A 
HETATM   16  C   UNL     1       7.492  25.382  55.274  1.00  0.00     0.011 A 
HETATM   17  C   UNL     1       6.516  24.574  52.796  1.00  0.00     0.007 A 
HETATM   18  C   UNL     1       5.748  26.878  52.206  1.00  0.00     0.039 C 
HETATM   19  C   UNL     1       7.083  23.638  53.657  1.00  0.00     0.001 A 
HETATM   20  C   UNL     1       7.575  24.042  54.893  1.00  0.00     0.001 A 
HETATM   21  C   UNL     1       5.938  28.349  52.556  1.00  0.00     0.008 C 
HETATM   22  O   UNL     1       5.542  27.609  56.988  1.00  0.00    -0.270 OA
ENDBRANCH   5   6
ENDBRANCH   1   5
BRANCH   2  23
HETATM   23  C   UNL     1       4.856  31.917  58.227  1.00  0.00     0.050 A 
HETATM   24  C   UNL     1       4.358  32.529  59.392  1.00  0.00     0.058 A 
HETATM   25  C   UNL     1       3.621  33.728  59.271  1.00  0.00     0.019 A 
HETATM   26  C   UNL     1       3.382  34.320  58.032  1.00  0.00     0.001 A 
HETATM   27  C   UNL     1       3.900  33.734  56.888  1.00  0.00     0.002 A 
HETATM   28  C   UNL     1       4.641  32.554  56.987  1.00  0.00     0.030 A 
BRANCH  24  29
HETATM   29  C   UNL     1       4.678  32.194  60.808  1.00  0.00     0.254 C 
HETATM   30  N   UNL     1       5.990  32.231  61.194  1.00  0.00    -0.351 N 
HETATM   31  H   UNL     1       6.685  32.595  60.544  1.00  0.00     0.163 HD
HETATM   32  O   UNL     1       3.778  31.762  61.525  1.00  0.00    -0.268 OA
BRANCH  30  33
HETATM   33  C   UNL     1       6.466  31.533  62.368  1.00  0.00     0.187 C 
BRANCH  33  34
HETATM   34  C   UNL     1       6.662  32.438  63.528  1.00  0.00     0.070 A 
HETATM   35  O   UNL     1       5.529  32.835  64.182  1.00  0.00    -0.325 OA
HETATM   36  C   UNL     1       5.908  33.722  65.138  1.00  0.00     0.142 A 
HETATM   37  C   UNL     1       7.272  33.894  65.122  1.00  0.00     0.027 A 
HETATM   38  C   UNL     1       7.758  33.068  64.080  1.00  0.00     0.036 A 
ENDBRANCH  33  34
ENDBRANCH  30  33
ENDBRANCH  24  29
ENDBRANCH   2  23
TORSDOF 6
ENDMDL
MODEL 7
REMARK VINA RESULT:      -9.5      3.169      8.037
REMARK  6 active torsions:
REMARK  status: ('A' for Active; 'I' for Inactive)
REMARK    1  A    between atoms: N_9  and  C_10 
REMARK    2  A    between atoms: C_10  and  C_11 
REMARK       I    between atoms: C_11  and  N_12 
REMARK    3  A    between atoms: N_12  and  C_13 
REMARK    4  A    between atoms: C_14  and  C_15 
REMARK       I    between atoms: C_15  and  N_16 
REMARK    5  A    between atoms: N_16  and  C_17 
REMARK    6  A    between atoms: C_17  and  C_18 
ROOT
HETATM    1  C   UNL     1       5.748  25.551  52.756  1.00  0.00     0.240 C 
HETATM    2  N   UNL     1       7.085  25.317  53.034  1.00  0.00    -0.325 N 
HETATM    3  O   UNL     1       4.823  24.812  53.089  1.00  0.00    -0.271 OA
HETATM    4  H   UNL     1       7.644  26.158  53.129  1.00  0.00     0.169 HD
ENDROOT
BRANCH   1   5
HETATM    5  C   UNL     1       5.520  26.889  52.045  1.00  0.00     0.240 C 
BRANCH   5   6
HETATM    6  N   UNL     1       5.322  27.912  53.036  1.00  0.00    -0.259 N 
HETATM    7  C   UNL     1       6.350  28.476  53.722  1.00  0.00     0.326 C 
HETATM    8  N   UNL     1       5.850  29.479  54.507  1.00  0.00    -0.320 N 
HETATM    9  O   UNL     1       7.521  28.140  53.668  1.00  0.00    -0.247 OA
HETATM   10  C   UNL     1       4.404  29.504  54.522  1.00  0.00     0.144 C 
HETATM   11  H   UNL     1       6.459  30.081  55.043  1.00  0.00     0.165 HD
HETATM   12  C   UNL     1       3.870  30.896  54.240  1.00  0.00    -0.014 A 
HETATM   13  C   UNL     1       4.127  28.459  53.414  1.00  0.00     0.261 C 
HETATM   14  C   UNL     1       3.895  28.932  55.858  1.00  0.00     0.047 C 
HETATM   15  C   UNL     1       3.373  31.701  55.290  1.00  0.00    -0.049 A 
HETATM   16  C   UNL     1       3.885  31.425  52.936  1.00  0.00     0.011 A 
HETATM   17  C   UNL     1       2.868  32.980  55.007  1.00  0.00     0.007 A 
HETATM   18  C   UNL     1       3.291  31.207  56.715  1.00  0.00     0.039 C 
HETATM   19  C   UNL     1       2.868  33.474  53.704  1.00  0.00     0.001 A 
HETATM   20  C   UNL     1       3.380  32.698  52.671  1.00  0.00     0.001 A 
HETATM   21  C   UNL     1       4.101  29.943  56.980  1.00  0.00     0.008 C 
HETATM   22  O   UNL     1       3.027  28.115  52.999  1.00  0.00    -0.270 OA
ENDBRANCH   5   6
ENDBRANCH   1   5
BRANCH   2  23
HETATM   23  C   UNL     1       7.582  24.187  53.725  1.00  0.00     0.050 A 
HETATM   24  C   UNL     1       7.652  24.008  55.119  1.00  0.00     0.058 A 
HETATM   25  C   UNL     1       8.130  22.779  55.626  1.00  0.00     0.019 A 
HETATM   26  C   UNL     1       8.527  21.743  54.783  1.00  0.00     0.001 A 
HETATM   27  C   UNL     1       8.428  21.908  53.410  1.00  0.00     0.002 A 
HETATM   28  C   UNL     1       7.946  23.112  52.889  1.00  0.00     0.030 A 
BRANCH  24  29
HETATM   29  C   UNL     1       7.083  24.883  56.182  1.00  0.00     0.254 C 
HETATM   30  N   UNL     1       7.565  26.160  56.287  1.00  0.00    -0.351 N 
HETATM   31  H   UNL     1       8.204  26.506  55.574  1.00  0.00     0.163 HD
HETATM   32  O   UNL     1       6.317  24.384  57.004  1.00  0.00    -0.268 OA
BRANCH  30  33
HETATM   33  C   UNL     1       7.424  26.937  57.499  1.00  0.00     0.187 C 
BRANCH  33  34
HETATM   34  C   UNL     1       8.311  28.126  57.519  1.00  0.00     0.070 A 
HETATM   35  O   UNL     1       8.145  28.985  58.570  1.00  0.00    -0.325 OA
HETATM   36  C   UNL     1       8.970  30.042  58.359  1.00  0.00     0.142 A 
HETATM   37  C   UNL     1       9.679  29.873  57.193  1.00  0.00     0.027 A 
HETATM   38  C   UNL     1       9.251  28.639  56.649  1.00  0.00     0.036 A 
ENDBRANCH  33  34
ENDBRANCH  30  33
ENDBRANCH  24  29
ENDBRANCH   2  23
TORSDOF 6
ENDMDL
MODEL 8
REMARK VINA RESULT:      -9.5      5.895      8.338
REMARK  6 active torsions:
REMARK  status: ('A' for Active; 'I' for Inactive)
REMARK    1  A    between atoms: N_9  and  C_10 
REMARK    2  A    between atoms: C_10  and  C_11 
REMARK       I    between atoms: C_11  and  N_12 
REMARK    3  A    between atoms: N_12  and  C_13 
REMARK    4  A    between atoms: C_14  and  C_15 
REMARK       I    between atoms: C_15  and  N_16 
REMARK    5  A    between atoms: N_16  and  C_17 
REMARK    6  A    between atoms: C_17  and  C_18 
ROOT
HETATM    1  C   UNL     1       5.440  27.648  51.529  1.00  0.00     0.240 C 
HETATM    2  N   UNL     1       4.175  27.970  51.994  1.00  0.00    -0.325 N 
HETATM    3  O   UNL     1       6.380  28.438  51.453  1.00  0.00    -0.271 OA
HETATM    4  H   UNL     1       3.682  27.198  52.428  1.00  0.00     0.169 HD
ENDROOT
BRANCH   1   5
HETATM    5  C   UNL     1       5.581  26.162  51.186  1.00  0.00     0.240 C 
BRANCH   5   6
HETATM    6  N   UNL     1       5.988  25.450  52.368  1.00  0.00    -0.259 N 
HETATM    7  C   UNL     1       5.105  25.044  53.317  1.00  0.00     0.326 C 
HETATM    8  N   UNL     1       5.781  24.310  54.253  1.00  0.00    -0.320 N 
HETATM    9  O   UNL     1       3.914  25.301  53.349  1.00  0.00    -0.247 OA
HETATM   10  C   UNL     1       7.215  24.354  54.064  1.00  0.00     0.144 C 
HETATM   11  H   UNL     1       5.297  23.846  55.009  1.00  0.00     0.165 HD
HETATM   12  C   UNL     1       7.819  22.963  54.076  1.00  0.00    -0.014 A 
HETATM   13  C   UNL     1       7.262  25.078  52.696  1.00  0.00     0.261 C 
HETATM   14  C   UNL     1       7.842  25.284  55.119  1.00  0.00     0.047 C 
HETATM   15  C   UNL     1       8.511  22.490  55.214  1.00  0.00    -0.049 A 
HETATM   16  C   UNL     1       7.680  22.105  52.968  1.00  0.00     0.011 A 
HETATM   17  C   UNL     1       9.078  21.206  55.200  1.00  0.00     0.007 A 
HETATM   18  C   UNL     1       8.734  23.350  56.437  1.00  0.00     0.039 C 
HETATM   19  C   UNL     1       8.951  20.383  54.083  1.00  0.00     0.001 A 
HETATM   20  C   UNL     1       8.250  20.831  52.970  1.00  0.00     0.001 A 
HETATM   21  C   UNL     1       7.865  24.601  56.482  1.00  0.00     0.008 C 
HETATM   22  O   UNL     1       8.268  25.347  52.051  1.00  0.00    -0.270 OA
ENDBRANCH   5   6
ENDBRANCH   1   5
BRANCH   2  23
HETATM   23  C   UNL     1       3.776  29.255  52.430  1.00  0.00     0.050 A 
HETATM   24  C   UNL     1       3.291  30.310  51.634  1.00  0.00     0.058 A 
HETATM   25  C   UNL     1       2.886  31.508  52.262  1.00  0.00     0.019 A 
HETATM   26  C   UNL     1       2.950  31.669  53.645  1.00  0.00     0.001 A 
HETATM   27  C   UNL     1       3.398  30.619  54.431  1.00  0.00     0.002 A 
HETATM   28  C   UNL     1       3.792  29.421  53.830  1.00  0.00     0.030 A 
BRANCH  24  29
HETATM   29  C   UNL     1       2.937  30.274  50.187  1.00  0.00     0.254 C 
HETATM   30  N   UNL     1       1.972  29.390  49.786  1.00  0.00    -0.351 N 
HETATM   31  H   UNL     1       1.450  28.876  50.493  1.00  0.00     0.163 HD
HETATM   32  O   UNL     1       3.620  30.927  49.401  1.00  0.00    -0.268 OA
BRANCH  30  33
HETATM   33  C   UNL     1       1.849  28.959  48.411  1.00  0.00     0.187 C 
BRANCH  33  34
HETATM   34  C   UNL     1       2.732  27.809  48.093  1.00  0.00     0.070 A 
HETATM   35  O   UNL     1       2.172  26.567  48.218  1.00  0.00    -0.325 OA
HETATM   36  C   UNL     1       3.154  25.660  47.980  1.00  0.00     0.142 A 
HETATM   37  C   UNL     1       4.338  26.296  47.689  1.00  0.00     0.027 A 
HETATM   38  C   UNL     1       4.066  27.683  47.766  1.00  0.00     0.036 A 
ENDBRANCH  33  34
ENDBRANCH  30  33
ENDBRANCH  24  29
ENDBRANCH   2  23
TORSDOF 6
ENDMDL
MODEL 9
REMARK VINA RESULT:      -9.4      2.569      4.758
REMARK  6 active torsions:
REMARK  status: ('A' for Active; 'I' for Inactive)
REMARK    1  A    between atoms: N_9  and  C_10 
REMARK    2  A    between atoms: C_10  and  C_11 
REMARK       I    between atoms: C_11  and  N_12 
REMARK    3  A    between atoms: N_12  and  C_13 
REMARK    4  A    between atoms: C_14  and  C_15 
REMARK       I    between atoms: C_15  and  N_16 
REMARK    5  A    between atoms: N_16  and  C_17 
REMARK    6  A    between atoms: C_17  and  C_18 
ROOT
HETATM    1  C   UNL     1       6.033  29.548  57.202  1.00  0.00     0.240 C 
HETATM    2  N   UNL     1       7.028  29.323  58.139  1.00  0.00    -0.325 N 
HETATM    3  O   UNL     1       5.924  30.572  56.528  1.00  0.00    -0.271 OA
HETATM    4  H   UNL     1       7.273  28.346  58.259  1.00  0.00     0.169 HD
ENDROOT
BRANCH   1   5
HETATM    5  C   UNL     1       5.105  28.342  57.025  1.00  0.00     0.240 C 
BRANCH   5   6
HETATM    6  N   UNL     1       5.744  27.391  56.154  1.00  0.00    -0.259 N 
HETATM    7  C   UNL     1       6.751  27.733  55.310  1.00  0.00     0.326 C 
HETATM    8  N   UNL     1       7.212  26.598  54.701  1.00  0.00    -0.320 N 
HETATM    9  O   UNL     1       7.169  28.860  55.108  1.00  0.00    -0.247 OA
HETATM   10  C   UNL     1       6.385  25.444  54.978  1.00  0.00     0.144 C 
HETATM   11  H   UNL     1       8.015  26.618  54.089  1.00  0.00     0.165 HD
HETATM   12  C   UNL     1       7.217  24.263  55.442  1.00  0.00    -0.014 A 
HETATM   13  C   UNL     1       5.459  26.057  56.057  1.00  0.00     0.261 C 
HETATM   14  C   UNL     1       5.527  25.118  53.741  1.00  0.00     0.047 C 
HETATM   15  C   UNL     1       7.499  23.195  54.561  1.00  0.00    -0.049 A 
HETATM   16  C   UNL     1       7.748  24.221  56.745  1.00  0.00     0.011 A 
HETATM   17  C   UNL     1       8.258  22.102  55.014  1.00  0.00     0.007 A 
HETATM   18  C   UNL     1       6.949  23.140  53.155  1.00  0.00     0.039 C 
HETATM   19  C   UNL     1       8.751  22.068  56.316  1.00  0.00     0.001 A 
HETATM   20  C   UNL     1       8.500  23.128  57.179  1.00  0.00     0.001 A 
HETATM   21  C   UNL     1       6.383  24.467  52.660  1.00  0.00     0.008 C 
HETATM   22  O   UNL     1       4.568  25.476  56.664  1.00  0.00    -0.270 OA
ENDBRANCH   5   6
ENDBRANCH   1   5
BRANCH   2  23
HETATM   23  C   UNL     1       8.051  30.242  58.470  1.00  0.00     0.050 A 
HETATM   24  C   UNL     1       7.954  31.343  59.340  1.00  0.00     0.058 A 
HETATM   25  C   UNL     1       9.108  32.118  59.591  1.00  0.00     0.019 A 
HETATM   26  C   UNL     1      10.336  31.816  59.005  1.00  0.00     0.001 A 
HETATM   27  C   UNL     1      10.438  30.712  58.173  1.00  0.00     0.002 A 
HETATM   28  C   UNL     1       9.311  29.926  57.921  1.00  0.00     0.030 A 
BRANCH  24  29
HETATM   29  C   UNL     1       6.816  31.707  60.230  1.00  0.00     0.254 C 
HETATM   30  N   UNL     1       7.026  31.679  61.583  1.00  0.00    -0.351 N 
HETATM   31  H   UNL     1       7.970  31.528  61.932  1.00  0.00     0.163 HD
HETATM   32  O   UNL     1       5.708  31.873  59.725  1.00  0.00    -0.268 OA
BRANCH  30  33
HETATM   33  C   UNL     1       5.935  31.585  62.527  1.00  0.00     0.187 C 
BRANCH  33  34
HETATM   34  C   UNL     1       6.126  32.464  63.708  1.00  0.00     0.070 A 
HETATM   35  O   UNL     1       5.003  32.755  64.432  1.00  0.00    -0.325 OA
HETATM   36  C   UNL     1       5.366  33.636  65.398  1.00  0.00     0.142 A 
HETATM   37  C   UNL     1       6.711  33.910  65.320  1.00  0.00     0.027 A 
HETATM   38  C   UNL     1       7.201  33.156  64.226  1.00  0.00     0.036 A 
ENDBRANCH  33  34
ENDBRANCH  30  33
ENDBRANCH  24  29
ENDBRANCH   2  23
TORSDOF 6
ENDMDL
MODEL 10
REMARK VINA RESULT:      -9.3      5.166      8.580
REMARK  6 active torsions:
REMARK  status: ('A' for Active; 'I' for Inactive)
REMARK    1  A    between atoms: N_9  and  C_10 
REMARK    2  A    between atoms: C_10  and  C_11 
REMARK       I    between atoms: C_11  and  N_12 
REMARK    3  A    between atoms: N_12  and  C_13 
REMARK    4  A    between atoms: C_14  and  C_15 
REMARK       I    between atoms: C_15  and  N_16 
REMARK    5  A    between atoms: N_16  and  C_17 
REMARK    6  A    between atoms: C_17  and  C_18 
ROOT
HETATM    1  C   UNL     1       4.721  28.971  53.240  1.00  0.00     0.240 C 
HETATM    2  N   UNL     1       5.584  28.582  52.229  1.00  0.00    -0.325 N 
HETATM    3  O   UNL     1       3.496  29.014  53.137  1.00  0.00    -0.271 OA
HETATM    4  H   UNL     1       6.445  28.158  52.557  1.00  0.00     0.169 HD
ENDROOT
BRANCH   1   5
HETATM    5  C   UNL     1       5.450  29.274  54.553  1.00  0.00     0.240 C 
BRANCH   5   6
HETATM    6  N   UNL     1       5.938  28.040  55.107  1.00  0.00    -0.259 N 
HETATM    7  C   UNL     1       5.206  27.284  55.967  1.00  0.00     0.326 C 
HETATM    8  N   UNL     1       5.897  26.132  56.228  1.00  0.00    -0.320 N 
HETATM    9  O   UNL     1       4.125  27.581  56.445  1.00  0.00    -0.247 OA
HETATM   10  C   UNL     1       7.239  26.155  55.689  1.00  0.00     0.144 C 
HETATM   11  H   UNL     1       5.495  25.392  56.787  1.00  0.00     0.165 HD
HETATM   12  C   UNL     1       7.538  24.900  54.889  1.00  0.00    -0.014 A 
HETATM   13  C   UNL     1       7.149  27.457  54.856  1.00  0.00     0.261 C 
HETATM   14  C   UNL     1       8.247  26.386  56.830  1.00  0.00     0.047 C 
HETATM   15  C   UNL     1       8.338  23.873  55.437  1.00  0.00    -0.049 A 
HETATM   16  C   UNL     1       7.001  24.721  53.600  1.00  0.00     0.011 A 
HETATM   17  C   UNL     1       8.617  22.727  54.675  1.00  0.00     0.007 A 
HETATM   18  C   UNL     1       8.979  23.990  56.801  1.00  0.00     0.039 C 
HETATM   19  C   UNL     1       8.098  22.582  53.391  1.00  0.00     0.001 A 
HETATM   20  C   UNL     1       7.288  23.576  52.856  1.00  0.00     0.001 A 
HETATM   21  C   UNL     1       8.411  25.116  57.658  1.00  0.00     0.008 C 
HETATM   22  O   UNL     1       8.034  27.934  54.156  1.00  0.00    -0.270 OA
ENDBRANCH   5   6
ENDBRANCH   1   5
BRANCH   2  23
HETATM   23  C   UNL     1       5.185  28.195  50.928  1.00  0.00     0.050 A 
HETATM   24  C   UNL     1       5.019  29.031  49.807  1.00  0.00     0.058 A 
HETATM   25  C   UNL     1       4.668  28.449  48.569  1.00  0.00     0.019 A 
HETATM   26  C   UNL     1       4.488  27.074  48.430  1.00  0.00     0.001 A 
HETATM   27  C   UNL     1       4.682  26.249  49.526  1.00  0.00     0.002 A 
HETATM   28  C   UNL     1       5.041  26.803  50.757  1.00  0.00     0.030 A 
BRANCH  24  29
HETATM   29  C   UNL     1       5.372  30.473  49.683  1.00  0.00     0.254 C 
HETATM   30  N   UNL     1       4.426  31.323  49.177  1.00  0.00    -0.351 N 
HETATM   31  H   UNL     1       3.485  30.971  49.014  1.00  0.00     0.163 HD
HETATM   32  O   UNL     1       6.534  30.812  49.901  1.00  0.00    -0.268 OA
BRANCH  30  33
HETATM   33  C   UNL     1       4.772  32.610  48.617  1.00  0.00     0.187 C 
BRANCH  33  34
HETATM   34  C   UNL     1       5.004  32.550  47.152  1.00  0.00     0.070 A 
HETATM   35  O   UNL     1       6.020  33.328  46.670  1.00  0.00    -0.325 OA
HETATM   36  C   UNL     1       6.009  33.209  45.317  1.00  0.00     0.142 A 
HETATM   37  C   UNL     1       5.010  32.352  44.918  1.00  0.00     0.027 A 
HETATM   38  C   UNL     1       4.359  31.930  46.102  1.00  0.00     0.036 A 
ENDBRANCH  33  34
ENDBRANCH  30  33
ENDBRANCH  24  29
ENDBRANCH   2  23
TORSDOF 6
ENDMDL
