MODEL 1
REMARK VINA RESULT:      -9.3      0.000      0.000
REMARK  7 active torsions:
REMARK  status: ('A' for Active; 'I' for Inactive)
REMARK    1  A    between atoms: O_2  and  C_3 
REMARK    2  A    between atoms: C_5  and  N_6 
REMARK    3  A    between atoms: C_7  and  O_8 
REMARK    4  A    between atoms: C_7  and  C_9 
REMARK       I    between atoms: C_9  and  N_10 
REMARK    5  A    between atoms: N_10  and  C_11 
REMARK    6  A    between atoms: C_11  and  C_12 
REMARK    7  A    between atoms: C_12  and  C_13 
ROOT
HETATM    1  N   UNL     1       6.182  27.901  54.497  1.00  0.00    -0.254 N 
HETATM    2  C   UNL     1       5.326  27.915  55.693  1.00  0.00     0.256 C 
HETATM    3  C   UNL     1       5.526  29.148  56.554  1.00  0.00     0.034 A 
HETATM    4  C   UNL     1       6.749  29.803  56.488  1.00  0.00     0.048 A 
HETATM    5  N   UNL     1       7.687  29.364  55.563  1.00  0.00    -0.308 N 
HETATM    6  C   UNL     1       7.437  28.493  54.542  1.00  0.00     0.330 C 
HETATM    7  O   UNL     1       8.348  28.303  53.735  1.00  0.00    -0.246 OA
HETATM    8  C   UNL     1       4.576  29.592  57.488  1.00  0.00     0.015 A 
HETATM    9  C   UNL     1       4.859  30.673  58.326  1.00  0.00     0.001 A 
HETATM   10  C   UNL     1       6.096  31.309  58.251  1.00  0.00     0.002 A 
HETATM   11  C   UNL     1       7.049  30.872  57.332  1.00  0.00     0.030 A 
HETATM   12  H   UNL     1       8.583  29.831  55.495  1.00  0.00     0.170 HD
ENDROOT
BRANCH   2  13
HETATM   13  O   UNL     1       3.957  27.963  55.276  1.00  0.00    -0.359 OA
HETATM   14  H   UNL     1       3.462  28.292  56.050  1.00  0.00     0.213 HD
ENDBRANCH   2  13
BRANCH   2  15
HETATM   15  C   UNL     1       5.589  26.630  56.583  1.00  0.00     0.279 C 
HETATM   16  N   UNL     1       6.899  26.212  56.725  1.00  0.00    -0.356 N 
HETATM   17  H   UNL     1       7.634  26.863  56.468  1.00  0.00     0.162 HD
HETATM   18  O   UNL     1       4.650  26.041  57.130  1.00  0.00    -0.268 OA
BRANCH  16  19
HETATM   19  C   UNL     1       7.229  25.138  57.642  1.00  0.00     0.127 C 
BRANCH  19  20
HETATM   20  C   UNL     1       8.534  24.423  57.282  1.00  0.00     0.058 C 
BRANCH  20  21
HETATM   21  C   UNL     1       8.389  23.412  56.165  1.00  0.00    -0.057 A 
HETATM   22  C   UNL     1       8.382  23.821  54.823  1.00  0.00     0.009 A 
HETATM   23  C   UNL     1       8.258  22.883  53.795  1.00  0.00     0.024 A 
HETATM   24  C   UNL     1       8.152  21.529  54.102  1.00  0.00     0.034 A 
HETATM   25 CL   UNL     1       8.005  20.373  52.838  1.00  0.00    -0.084 Cl
HETATM   26  C   UNL     1       8.171  21.106  55.429  1.00  0.00     0.024 A 
HETATM   27  C   UNL     1       8.289  22.044  56.458  1.00  0.00     0.009 A 
ENDBRANCH  20  21
ENDBRANCH  19  20
ENDBRANCH  16  19
ENDBRANCH   2  15
BRANCH   1  28
HETATM   28  C   UNL     1       5.802  27.152  53.326  1.00  0.00     0.045 A 
HETATM   29  C   UNL     1       5.499  27.763  52.097  1.00  0.00     0.066 A 
HETATM   30  C   UNL     1       5.159  27.001  50.973  1.00  0.00     0.070 A 
HETATM   31  C   UNL     1       5.159  25.609  51.059  1.00  0.00     0.037 A 
HETATM   32  C   UNL     1       5.452  24.983  52.265  1.00  0.00     0.005 A 
HETATM   33  C   UNL     1       5.760  25.751  53.390  1.00  0.00     0.030 A 
BRANCH  30  34
HETATM   34  O   UNL     1       4.824  27.497  49.741  1.00  0.00    -0.356 OA
HETATM   35  C   UNL     1       4.326  26.563  48.789  1.00  0.00     0.210 C 
ENDBRANCH  30  34
ENDBRANCH   1  28
TORSDOF 7
ENDMDL
MODEL 2
REMARK VINA RESULT:      -9.3      2.358      3.622
REMARK  7 active torsions:
REMARK  status: ('A' for Active; 'I' for Inactive)
REMARK    1  A    between atoms: O_2  and  C_3 
REMARK    2  A    between atoms: C_5  and  N_6 
REMARK    3  A    between atoms: C_7  and  O_8 
REMARK    4  A    between atoms: C_7  and  C_9 
REMARK       I    between atoms: C_9  and  N_10 
REMARK    5  A    between atoms: N_10  and  C_11 
REMARK    6  A    between atoms: C_11  and  C_12 
REMARK    7  A    between atoms: C_12  and  C_13 
ROOT
HETATM    1  N   UNL     1       4.213  29.015  51.671  1.00  0.00    -0.254 N 
HETATM    2  C   UNL     1       4.486  28.332  52.945  1.00  0.00     0.256 C 
HETATM    3  C   UNL     1       4.225  29.208  54.156  1.00  0.00     0.034 A 
HETATM    4  C   UNL     1       4.306  30.586  54.001  1.00  0.00     0.048 A 
HETATM    5  N   UNL     1       4.514  31.097  52.727  1.00  0.00    -0.308 N 
HETATM    6  C   UNL     1       4.415  30.385  51.566  1.00  0.00     0.330 C 
HETATM    7  O   UNL     1       4.509  31.017  50.514  1.00  0.00    -0.246 OA
HETATM    8  C   UNL     1       4.012  28.689  55.444  1.00  0.00     0.015 A 
HETATM    9  C   UNL     1       3.880  29.545  56.539  1.00  0.00     0.001 A 
HETATM   10  C   UNL     1       3.975  30.924  56.362  1.00  0.00     0.002 A 
HETATM   11  C   UNL     1       4.193  31.449  55.089  1.00  0.00     0.030 A 
HETATM   12  H   UNL     1       4.571  32.099  52.590  1.00  0.00     0.170 HD
ENDROOT
BRANCH   2  13
HETATM   13  O   UNL     1       3.585  27.228  53.075  1.00  0.00    -0.359 OA
HETATM   14  H   UNL     1       3.035  27.247  52.270  1.00  0.00     0.213 HD
ENDBRANCH   2  13
BRANCH   2  15
HETATM   15  C   UNL     1       5.989  27.831  53.000  1.00  0.00     0.279 C 
HETATM   16  N   UNL     1       6.204  26.466  53.029  1.00  0.00    -0.356 N 
HETATM   17  H   UNL     1       5.430  25.860  52.773  1.00  0.00     0.162 HD
HETATM   18  O   UNL     1       6.922  28.642  53.007  1.00  0.00    -0.268 OA
BRANCH  16  19
HETATM   19  C   UNL     1       7.549  25.935  52.931  1.00  0.00     0.127 C 
BRANCH  19  20
HETATM   20  C   UNL     1       7.601  24.554  52.269  1.00  0.00     0.058 C 
BRANCH  20  21
HETATM   21  C   UNL     1       7.701  23.410  53.254  1.00  0.00    -0.057 A 
HETATM   22  C   UNL     1       7.926  22.098  52.811  1.00  0.00     0.009 A 
HETATM   23  C   UNL     1       8.028  21.047  53.725  1.00  0.00     0.024 A 
HETATM   24  C   UNL     1       7.917  21.302  55.089  1.00  0.00     0.034 A 
HETATM   25 CL   UNL     1       8.048  20.009  56.216  1.00  0.00    -0.084 Cl
HETATM   26  C   UNL     1       7.708  22.600  55.547  1.00  0.00     0.024 A 
HETATM   27  C   UNL     1       7.600  23.652  54.632  1.00  0.00     0.009 A 
ENDBRANCH  20  21
ENDBRANCH  19  20
ENDBRANCH  16  19
ENDBRANCH   2  15
BRANCH   1  28
HETATM   28  C   UNL     1       3.886  28.263  50.486  1.00  0.00     0.045 A 
HETATM   29  C   UNL     1       2.612  28.293  49.894  1.00  0.00     0.066 A 
HETATM   30  C   UNL     1       2.337  27.570  48.727  1.00  0.00     0.070 A 
HETATM   31  C   UNL     1       3.354  26.836  48.116  1.00  0.00     0.037 A 
HETATM   32  C   UNL     1       4.621  26.789  48.686  1.00  0.00     0.005 A 
HETATM   33  C   UNL     1       4.880  27.488  49.867  1.00  0.00     0.030 A 
BRANCH  30  34
HETATM   34  O   UNL     1       1.128  27.511  48.087  1.00  0.00    -0.356 OA
HETATM   35  C   UNL     1       1.148  27.142  46.713  1.00  0.00     0.210 C 
ENDBRANCH  30  34
ENDBRANCH   1  28
TORSDOF 7
ENDMDL
MODEL 3
REMARK VINA RESULT:      -9.2      1.874      5.577
REMARK  7 active torsions:
REMARK  status: ('A' for Active; 'I' for Inactive)
REMARK    1  A    between atoms: O_2  and  C_3 
REMARK    2  A    between atoms: C_5  and  N_6 
REMARK    3  A    between atoms: C_7  and  O_8 
REMARK    4  A    between atoms: C_7  and  C_9 
REMARK       I    between atoms: C_9  and  N_10 
REMARK    5  A    between atoms: N_10  and  C_11 
REMARK    6  A    between atoms: C_11  and  C_12 
REMARK    7  A    between atoms: C_12  and  C_13 
ROOT
HETATM    1  N   UNL     1       5.713  28.891  56.003  1.00  0.00    -0.254 N 
HETATM    2  C   UNL     1       6.964  28.248  55.573  1.00  0.00     0.256 C 
HETATM    3  C   UNL     1       6.784  27.347  54.366  1.00  0.00     0.034 A 
HETATM    4  C   UNL     1       5.530  26.796  54.138  1.00  0.00     0.048 A 
HETATM    5  N   UNL     1       4.479  27.179  54.960  1.00  0.00    -0.308 N 
HETATM    6  C   UNL     1       4.504  28.230  55.832  1.00  0.00     0.330 C 
HETATM    7  O   UNL     1       3.447  28.511  56.397  1.00  0.00    -0.246 OA
HETATM    8  C   UNL     1       7.848  26.961  53.533  1.00  0.00     0.015 A 
HETATM    9  C   UNL     1       7.641  26.048  52.498  1.00  0.00     0.001 A 
HETATM   10  C   UNL     1       6.377  25.499  52.293  1.00  0.00     0.002 A 
HETATM   11  C   UNL     1       5.316  25.869  53.118  1.00  0.00     0.030 A 
HETATM   12  H   UNL     1       3.555  26.793  54.809  1.00  0.00     0.170 HD
ENDROOT
BRANCH   2  13
HETATM   13  O   UNL     1       7.881  29.264  55.153  1.00  0.00    -0.359 OA
HETATM   14  H   UNL     1       8.648  28.786  54.789  1.00  0.00     0.213 HD
ENDBRANCH   2  13
BRANCH   2  15
HETATM   15  C   UNL     1       7.587  27.392  56.752  1.00  0.00     0.279 C 
HETATM   16  N   UNL     1       7.110  26.106  56.926  1.00  0.00    -0.356 N 
HETATM   17  H   UNL     1       6.579  25.692  56.166  1.00  0.00     0.162 HD
HETATM   18  O   UNL     1       8.471  27.867  57.475  1.00  0.00    -0.268 OA
BRANCH  16  19
HETATM   19  C   UNL     1       7.736  25.217  57.886  1.00  0.00     0.127 C 
BRANCH  19  20
HETATM   20  C   UNL     1       8.955  24.485  57.319  1.00  0.00     0.058 C 
BRANCH  20  21
HETATM   21  C   UNL     1       8.611  23.437  56.284  1.00  0.00    -0.057 A 
HETATM   22  C   UNL     1       8.599  23.752  54.917  1.00  0.00     0.009 A 
HETATM   23  C   UNL     1       8.290  22.778  53.965  1.00  0.00     0.024 A 
HETATM   24  C   UNL     1       8.003  21.478  54.373  1.00  0.00     0.034 A 
HETATM   25 CL   UNL     1       7.629  20.276  53.201  1.00  0.00    -0.084 Cl
HETATM   26  C   UNL     1       8.024  21.145  55.725  1.00  0.00     0.024 A 
HETATM   27  C   UNL     1       8.327  22.121  56.678  1.00  0.00     0.009 A 
ENDBRANCH  20  21
ENDBRANCH  19  20
ENDBRANCH  16  19
ENDBRANCH   2  15
BRANCH   1  28
HETATM   28  C   UNL     1       5.735  30.130  56.738  1.00  0.00     0.045 A 
HETATM   29  C   UNL     1       6.355  30.260  57.993  1.00  0.00     0.066 A 
HETATM   30  C   UNL     1       6.379  31.487  58.666  1.00  0.00     0.070 A 
HETATM   31  C   UNL     1       5.813  32.612  58.068  1.00  0.00     0.037 A 
HETATM   32  C   UNL     1       5.191  32.507  56.829  1.00  0.00     0.005 A 
HETATM   33  C   UNL     1       5.144  31.273  56.177  1.00  0.00     0.030 A 
BRANCH  30  34
HETATM   34  O   UNL     1       6.933  31.713  59.898  1.00  0.00    -0.356 OA
HETATM   35  C   UNL     1       8.287  32.151  59.921  1.00  0.00     0.210 C 
ENDBRANCH  30  34
ENDBRANCH   1  28
TORSDOF 7
ENDMDL
MODEL 4
REMARK VINA RESULT:      -9.1      3.527      6.996
REMARK  7 active torsions:
REMARK  status: ('A' for Active; 'I' for Inactive)
REMARK    1  A    between atoms: O_2  and  C_3 
REMARK    2  A    between atoms: C_5  and  N_6 
REMARK    3  A    between atoms: C_7  and  O_8 
REMARK    4  A    between atoms: C_7  and  C_9 
REMARK       I    between atoms: C_9  and  N_10 
REMARK    5  A    between atoms: N_10  and  C_11 
REMARK    6  A    between atoms: C_11  and  C_12 
REMARK    7  A    between atoms: C_12  and  C_13 
ROOT
HETATM    1  N   UNL     1       6.745  25.496  53.604  1.00  0.00    -0.254 N 
HETATM    2  C   UNL     1       5.936  26.584  54.174  1.00  0.00     0.256 C 
HETATM    3  C   UNL     1       5.032  27.249  53.155  1.00  0.00     0.034 A 
HETATM    4  C   UNL     1       5.401  27.200  51.816  1.00  0.00     0.048 A 
HETATM    5  N   UNL     1       6.518  26.455  51.466  1.00  0.00    -0.308 N 
HETATM    6  C   UNL     1       7.162  25.568  52.281  1.00  0.00     0.330 C 
HETATM    7  O   UNL     1       8.061  24.897  51.776  1.00  0.00    -0.246 OA
HETATM    8  C   UNL     1       3.900  28.002  53.511  1.00  0.00     0.015 A 
HETATM    9  C   UNL     1       3.164  28.678  52.536  1.00  0.00     0.001 A 
HETATM   10  C   UNL     1       3.558  28.623  51.201  1.00  0.00     0.002 A 
HETATM   11  C   UNL     1       4.684  27.885  50.837  1.00  0.00     0.030 A 
HETATM   12  H   UNL     1       6.803  26.401  50.495  1.00  0.00     0.170 HD
ENDROOT
BRANCH   2  13
HETATM   13  O   UNL     1       5.055  26.032  55.158  1.00  0.00    -0.359 OA
HETATM   14  H   UNL     1       5.168  26.592  55.949  1.00  0.00     0.213 HD
ENDBRANCH   2  13
BRANCH   2  15
HETATM   15  C   UNL     1       6.866  27.692  54.822  1.00  0.00     0.279 C 
HETATM   16  N   UNL     1       6.614  28.047  56.134  1.00  0.00    -0.356 N 
HETATM   17  H   UNL     1       6.026  27.430  56.686  1.00  0.00     0.162 HD
HETATM   18  O   UNL     1       7.783  28.203  54.169  1.00  0.00    -0.268 OA
BRANCH  16  19
HETATM   19  C   UNL     1       7.514  28.942  56.835  1.00  0.00     0.127 C 
BRANCH  19  20
HETATM   20  C   UNL     1       6.860  30.273  57.215  1.00  0.00     0.058 C 
BRANCH  20  21
HETATM   21  C   UNL     1       7.264  30.784  58.581  1.00  0.00    -0.057 A 
HETATM   22  C   UNL     1       6.569  31.841  59.188  1.00  0.00     0.009 A 
HETATM   23  C   UNL     1       6.940  32.301  60.454  1.00  0.00     0.024 A 
HETATM   24  C   UNL     1       8.000  31.699  61.126  1.00  0.00     0.034 A 
HETATM   25 CL   UNL     1       8.453  32.261  62.687  1.00  0.00    -0.084 Cl
HETATM   26  C   UNL     1       8.691  30.640  60.544  1.00  0.00     0.024 A 
HETATM   27  C   UNL     1       8.324  30.182  59.275  1.00  0.00     0.009 A 
ENDBRANCH  20  21
ENDBRANCH  19  20
ENDBRANCH  16  19
ENDBRANCH   2  15
BRANCH   1  28
HETATM   28  C   UNL     1       7.241  24.430  54.436  1.00  0.00     0.045 A 
HETATM   29  C   UNL     1       7.242  23.084  54.030  1.00  0.00     0.066 A 
HETATM   30  C   UNL     1       7.756  22.078  54.856  1.00  0.00     0.070 A 
HETATM   31  C   UNL     1       8.314  22.416  56.089  1.00  0.00     0.037 A 
HETATM   32  C   UNL     1       8.321  23.741  56.513  1.00  0.00     0.005 A 
HETATM   33  C   UNL     1       7.779  24.735  55.697  1.00  0.00     0.030 A 
BRANCH  30  34
HETATM   34  O   UNL     1       7.781  20.740  54.567  1.00  0.00    -0.356 OA
HETATM   35  C   UNL     1       8.026  20.383  53.211  1.00  0.00     0.210 C 
ENDBRANCH  30  34
ENDBRANCH   1  28
TORSDOF 7
ENDMDL
MODEL 5
REMARK VINA RESULT:      -9.1      2.274      5.458
REMARK  7 active torsions:
REMARK  status: ('A' for Active; 'I' for Inactive)
REMARK    1  A    between atoms: O_2  and  C_3 
REMARK    2  A    between atoms: C_5  and  N_6 
REMARK    3  A    between atoms: C_7  and  O_8 
REMARK    4  A    between atoms: C_7  and  C_9 
REMARK       I    between atoms: C_9  and  N_10 
REMARK    5  A    between atoms: N_10  and  C_11 
REMARK    6  A    between atoms: C_11  and  C_12 
REMARK    7  A    between atoms: C_12  and  C_13 
ROOT
HETATM    1  N   UNL     1       5.305  28.823  54.521  1.00  0.00    -0.254 N 
HETATM    2  C   UNL     1       5.704  28.501  53.142  1.00  0.00     0.256 C 
HETATM    3  C   UNL     1       4.946  29.304  52.102  1.00  0.00     0.034 A 
HETATM    4  C   UNL     1       3.687  29.788  52.434  1.00  0.00     0.048 A 
HETATM    5  N   UNL     1       3.231  29.608  53.733  1.00  0.00    -0.308 N 
HETATM    6  C   UNL     1       3.998  29.205  54.788  1.00  0.00     0.330 C 
HETATM    7  O   UNL     1       3.467  29.214  55.899  1.00  0.00    -0.246 OA
HETATM    8  C   UNL     1       5.410  29.487  50.788  1.00  0.00     0.015 A 
HETATM    9  C   UNL     1       4.621  30.147  49.844  1.00  0.00     0.001 A 
HETATM   10  C   UNL     1       3.357  30.615  50.196  1.00  0.00     0.002 A 
HETATM   11  C   UNL     1       2.884  30.433  51.495  1.00  0.00     0.030 A 
HETATM   12  H   UNL     1       2.318  29.958  53.998  1.00  0.00     0.170 HD
ENDROOT
BRANCH   2  13
HETATM   13  O   UNL     1       7.080  28.860  52.968  1.00  0.00    -0.359 OA
HETATM   14  H   UNL     1       7.533  28.546  53.772  1.00  0.00     0.213 HD
ENDBRANCH   2  13
BRANCH   2  15
HETATM   15  C   UNL     1       5.491  26.960  52.843  1.00  0.00     0.279 C 
HETATM   16  N   UNL     1       6.454  26.319  52.087  1.00  0.00    -0.356 N 
HETATM   17  H   UNL     1       7.349  26.784  51.967  1.00  0.00     0.162 HD
HETATM   18  O   UNL     1       4.501  26.365  53.284  1.00  0.00    -0.268 OA
BRANCH  16  19
HETATM   19  C   UNL     1       6.402  24.882  51.899  1.00  0.00     0.127 C 
BRANCH  19  20
HETATM   20  C   UNL     1       7.763  24.204  52.077  1.00  0.00     0.058 C 
BRANCH  20  21
HETATM   21  C   UNL     1       7.801  23.199  53.208  1.00  0.00    -0.057 A 
HETATM   22  C   UNL     1       7.656  23.612  54.542  1.00  0.00     0.009 A 
HETATM   23  C   UNL     1       7.680  22.679  55.581  1.00  0.00     0.024 A 
HETATM   24  C   UNL     1       7.838  21.326  55.293  1.00  0.00     0.034 A 
HETATM   25 CL   UNL     1       7.862  20.176  56.572  1.00  0.00    -0.084 Cl
HETATM   26  C   UNL     1       7.969  20.899  53.975  1.00  0.00     0.024 A 
HETATM   27  C   UNL     1       7.950  21.832  52.934  1.00  0.00     0.009 A 
ENDBRANCH  20  21
ENDBRANCH  19  20
ENDBRANCH  16  19
ENDBRANCH   2  15
BRANCH   1  28
HETATM   28  C   UNL     1       6.209  28.602  55.621  1.00  0.00     0.045 A 
HETATM   29  C   UNL     1       6.870  29.649  56.285  1.00  0.00     0.066 A 
HETATM   30  C   UNL     1       7.721  29.398  57.368  1.00  0.00     0.070 A 
HETATM   31  C   UNL     1       7.888  28.091  57.825  1.00  0.00     0.037 A 
HETATM   32  C   UNL     1       7.247  27.039  57.181  1.00  0.00     0.005 A 
HETATM   33  C   UNL     1       6.424  27.293  56.083  1.00  0.00     0.030 A 
BRANCH  30  34
HETATM   34  O   UNL     1       8.429  30.341  58.065  1.00  0.00    -0.356 OA
HETATM   35  C   UNL     1       8.396  30.247  59.485  1.00  0.00     0.210 C 
ENDBRANCH  30  34
ENDBRANCH   1  28
TORSDOF 7
ENDMDL
MODEL 6
REMARK VINA RESULT:      -9.0      3.967      7.401
REMARK  7 active torsions:
REMARK  status: ('A' for Active; 'I' for Inactive)
REMARK    1  A    between atoms: O_2  and  C_3 
REMARK    2  A    between atoms: C_5  and  N_6 
REMARK    3  A    between atoms: C_7  and  O_8 
REMARK    4  A    between atoms: C_7  and  C_9 
REMARK       I    between atoms: C_9  and  N_10 
REMARK    5  A    between atoms: N_10  and  C_11 
REMARK    6  A    between atoms: C_11  and  C_12 
REMARK    7  A    between atoms: C_12  and  C_13 
ROOT
HETATM    1  N   UNL     1       6.850  26.695  55.172  1.00  0.00    -0.254 N 
HETATM    2  C   UNL     1       6.171  27.717  55.983  1.00  0.00     0.256 C 
HETATM    3  C   UNL     1       5.188  28.552  55.184  1.00  0.00     0.034 A 
HETATM    4  C   UNL     1       5.394  28.681  53.816  1.00  0.00     0.048 A 
HETATM    5  N   UNL     1       6.423  27.956  53.231  1.00  0.00    -0.308 N 
HETATM    6  C   UNL     1       7.111  26.941  53.831  1.00  0.00     0.330 C 
HETATM    7  O   UNL     1       7.910  26.318  53.131  1.00  0.00    -0.246 OA
HETATM    8  C   UNL     1       4.145  29.284  55.777  1.00  0.00     0.015 A 
HETATM    9  C   UNL     1       3.335  30.117  55.003  1.00  0.00     0.001 A 
HETATM   10  C   UNL     1       3.567  30.240  53.635  1.00  0.00     0.002 A 
HETATM   11  C   UNL     1       4.603  29.524  53.037  1.00  0.00     0.030 A 
HETATM   12  H   UNL     1       6.588  28.032  52.234  1.00  0.00     0.170 HD
ENDROOT
BRANCH   2  13
HETATM   13  O   UNL     1       5.384  27.061  56.983  1.00  0.00    -0.359 OA
HETATM   14  H   UNL     1       4.459  27.165  56.693  1.00  0.00     0.213 HD
ENDBRANCH   2  13
BRANCH   2  15
HETATM   15  C   UNL     1       7.226  28.689  56.657  1.00  0.00     0.279 C 
HETATM   16  N   UNL     1       7.060  28.975  57.999  1.00  0.00    -0.356 N 
HETATM   17  H   UNL     1       6.439  28.379  58.537  1.00  0.00     0.162 HD
HETATM   18  O   UNL     1       8.160  29.157  55.996  1.00  0.00    -0.268 OA
BRANCH  16  19
HETATM   19  C   UNL     1       8.067  29.735  58.714  1.00  0.00     0.127 C 
BRANCH  19  20
HETATM   20  C   UNL     1       7.708  31.216  58.864  1.00  0.00     0.058 C 
BRANCH  20  21
HETATM   21  C   UNL     1       7.662  31.690  60.300  1.00  0.00    -0.057 A 
HETATM   22  C   UNL     1       8.544  31.167  61.258  1.00  0.00     0.009 A 
HETATM   23  C   UNL     1       8.505  31.616  62.580  1.00  0.00     0.024 A 
HETATM   24  C   UNL     1       7.592  32.600  62.951  1.00  0.00     0.034 A 
HETATM   25 CL   UNL     1       7.547  33.158  64.576  1.00  0.00    -0.084 Cl
HETATM   26  C   UNL     1       6.720  33.139  62.009  1.00  0.00     0.024 A 
HETATM   27  C   UNL     1       6.754  32.687  60.687  1.00  0.00     0.009 A 
ENDBRANCH  20  21
ENDBRANCH  19  20
ENDBRANCH  16  19
ENDBRANCH   2  15
BRANCH   1  28
HETATM   28  C   UNL     1       7.385  25.504  55.783  1.00  0.00     0.045 A 
HETATM   29  C   UNL     1       7.112  24.213  55.300  1.00  0.00     0.066 A 
HETATM   30  C   UNL     1       7.671  23.080  55.903  1.00  0.00     0.070 A 
HETATM   31  C   UNL     1       8.546  23.233  56.979  1.00  0.00     0.037 A 
HETATM   32  C   UNL     1       8.828  24.501  57.475  1.00  0.00     0.005 A 
HETATM   33  C   UNL     1       8.242  25.624  56.888  1.00  0.00     0.030 A 
BRANCH  30  34
HETATM   34  O   UNL     1       7.450  21.782  55.527  1.00  0.00    -0.356 OA
HETATM   35  C   UNL     1       7.876  20.772  56.435  1.00  0.00     0.210 C 
ENDBRANCH  30  34
ENDBRANCH   1  28
TORSDOF 7
ENDMDL
MODEL 7
REMARK VINA RESULT:      -9.0      3.069      4.490
REMARK  7 active torsions:
REMARK  status: ('A' for Active; 'I' for Inactive)
REMARK    1  A    between atoms: O_2  and  C_3 
REMARK    2  A    between atoms: C_5  and  N_6 
REMARK    3  A    between atoms: C_7  and  O_8 
REMARK    4  A    between atoms: C_7  and  C_9 
REMARK       I    between atoms: C_9  and  N_10 
REMARK    5  A    between atoms: N_10  and  C_11 
REMARK    6  A    between atoms: C_11  and  C_12 
REMARK    7  A    between atoms: C_12  and  C_13 
ROOT
HETATM    1  N   UNL     1       3.697  29.205  50.319  1.00  0.00    -0.254 N 
HETATM    2  C   UNL     1       3.809  28.967  51.766  1.00  0.00     0.256 C 
HETATM    3  C   UNL     1       3.757  30.244  52.584  1.00  0.00     0.034 A 
HETATM    4  C   UNL     1       4.150  31.430  51.977  1.00  0.00     0.048 A 
HETATM    5  N   UNL     1       4.467  31.409  50.625  1.00  0.00    -0.308 N 
HETATM    6  C   UNL     1       4.205  30.376  49.771  1.00  0.00     0.330 C 
HETATM    7  O   UNL     1       4.439  30.566  48.578  1.00  0.00    -0.246 OA
HETATM    8  C   UNL     1       3.434  30.265  53.951  1.00  0.00     0.015 A 
HETATM    9  C   UNL     1       3.503  31.456  54.677  1.00  0.00     0.001 A 
HETATM   10  C   UNL     1       3.909  32.632  54.050  1.00  0.00     0.002 A 
HETATM   11  C   UNL     1       4.239  32.621  52.696  1.00  0.00     0.030 A 
HETATM   12  H   UNL     1       4.751  32.263  50.161  1.00  0.00     0.170 HD
ENDROOT
BRANCH   2  13
HETATM   13  O   UNL     1       2.680  28.198  52.193  1.00  0.00    -0.359 OA
HETATM   14  H   UNL     1       3.047  27.486  52.749  1.00  0.00     0.213 HD
ENDBRANCH   2  13
BRANCH   2  15
HETATM   15  C   UNL     1       5.158  28.207  52.104  1.00  0.00     0.279 C 
HETATM   16  N   UNL     1       5.062  26.883  52.489  1.00  0.00    -0.356 N 
HETATM   17  H   UNL     1       4.189  26.399  52.305  1.00  0.00     0.162 HD
HETATM   18  O   UNL     1       6.246  28.787  52.016  1.00  0.00    -0.268 OA
BRANCH  16  19
HETATM   19  C   UNL     1       6.260  26.085  52.669  1.00  0.00     0.127 C 
BRANCH  19  20
HETATM   20  C   UNL     1       6.428  25.572  54.102  1.00  0.00     0.058 C 
BRANCH  20  21
HETATM   21  C   UNL     1       6.998  24.173  54.186  1.00  0.00    -0.057 A 
HETATM   22  C   UNL     1       7.426  23.500  53.031  1.00  0.00     0.009 A 
HETATM   23  C   UNL     1       7.962  22.214  53.115  1.00  0.00     0.024 A 
HETATM   24  C   UNL     1       8.085  21.595  54.356  1.00  0.00     0.034 A 
HETATM   25 CL   UNL     1       8.751  20.012  54.461  1.00  0.00    -0.084 Cl
HETATM   26  C   UNL     1       7.678  22.253  55.513  1.00  0.00     0.024 A 
HETATM   27  C   UNL     1       7.137  23.539  55.430  1.00  0.00     0.009 A 
ENDBRANCH  20  21
ENDBRANCH  19  20
ENDBRANCH  16  19
ENDBRANCH   2  15
BRANCH   1  28
HETATM   28  C   UNL     1       3.204  28.177  49.438  1.00  0.00     0.045 A 
HETATM   29  C   UNL     1       1.908  28.196  48.895  1.00  0.00     0.066 A 
HETATM   30  C   UNL     1       1.472  27.193  48.022  1.00  0.00     0.070 A 
HETATM   31  C   UNL     1       2.350  26.175  47.649  1.00  0.00     0.037 A 
HETATM   32  C   UNL     1       3.636  26.134  48.176  1.00  0.00     0.005 A 
HETATM   33  C   UNL     1       4.054  27.121  49.071  1.00  0.00     0.030 A 
BRANCH  30  34
HETATM   34  O   UNL     1       0.226  27.106  47.460  1.00  0.00    -0.356 OA
HETATM   35  C   UNL     1       0.019  27.823  46.249  1.00  0.00     0.210 C 
ENDBRANCH  30  34
ENDBRANCH   1  28
TORSDOF 7
ENDMDL
MODEL 8
REMARK VINA RESULT:      -8.9      2.052      5.840
REMARK  7 active torsions:
REMARK  status: ('A' for Active; 'I' for Inactive)
REMARK    1  A    between atoms: O_2  and  C_3 
REMARK    2  A    between atoms: C_5  and  N_6 
REMARK    3  A    between atoms: C_7  and  O_8 
REMARK    4  A    between atoms: C_7  and  C_9 
REMARK       I    between atoms: C_9  and  N_10 
REMARK    5  A    between atoms: N_10  and  C_11 
REMARK    6  A    between atoms: C_11  and  C_12 
REMARK    7  A    between atoms: C_12  and  C_13 
ROOT
HETATM    1  N   UNL     1       6.130  29.060  56.847  1.00  0.00    -0.254 N 
HETATM    2  C   UNL     1       5.689  27.877  56.092  1.00  0.00     0.256 C 
HETATM    3  C   UNL     1       6.410  26.607  56.502  1.00  0.00     0.034 A 
HETATM    4  C   UNL     1       7.676  26.722  57.062  1.00  0.00     0.048 A 
HETATM    5  N   UNL     1       8.174  27.992  57.317  1.00  0.00    -0.308 N 
HETATM    6  C   UNL     1       7.443  29.146  57.288  1.00  0.00     0.330 C 
HETATM    7  O   UNL     1       8.009  30.174  57.659  1.00  0.00    -0.246 OA
HETATM    8  C   UNL     1       5.904  25.322  56.245  1.00  0.00     0.015 A 
HETATM    9  C   UNL     1       6.660  24.189  56.553  1.00  0.00     0.001 A 
HETATM   10  C   UNL     1       7.932  24.327  57.104  1.00  0.00     0.002 A 
HETATM   11  C   UNL     1       8.446  25.598  57.357  1.00  0.00     0.030 A 
HETATM   12  H   UNL     1       9.094  28.099  57.729  1.00  0.00     0.170 HD
ENDROOT
BRANCH   2  13
HETATM   13  O   UNL     1       4.307  27.638  56.381  1.00  0.00    -0.359 OA
HETATM   14  H   UNL     1       3.842  28.451  56.109  1.00  0.00     0.213 HD
ENDBRANCH   2  13
BRANCH   2  15
HETATM   15  C   UNL     1       5.900  28.096  54.536  1.00  0.00     0.279 C 
HETATM   16  N   UNL     1       4.814  27.879  53.710  1.00  0.00    -0.356 N 
HETATM   17  H   UNL     1       3.894  27.831  54.139  1.00  0.00     0.162 HD
HETATM   18  O   UNL     1       6.998  28.456  54.096  1.00  0.00    -0.268 OA
BRANCH  16  19
HETATM   19  C   UNL     1       4.891  28.202  52.299  1.00  0.00     0.127 C 
BRANCH  19  20
HETATM   20  C   UNL     1       4.947  26.961  51.402  1.00  0.00     0.058 C 
BRANCH  20  21
HETATM   21  C   UNL     1       5.834  25.860  51.939  1.00  0.00    -0.057 A 
HETATM   22  C   UNL     1       7.232  25.972  51.887  1.00  0.00     0.009 A 
HETATM   23  C   UNL     1       8.046  24.957  52.395  1.00  0.00     0.024 A 
HETATM   24  C   UNL     1       7.469  23.828  52.968  1.00  0.00     0.034 A 
HETATM   25 CL   UNL     1       8.470  22.580  53.598  1.00  0.00    -0.084 Cl
HETATM   26  C   UNL     1       6.083  23.706  53.040  1.00  0.00     0.024 A 
HETATM   27  C   UNL     1       5.267  24.719  52.528  1.00  0.00     0.009 A 
ENDBRANCH  20  21
ENDBRANCH  19  20
ENDBRANCH  16  19
ENDBRANCH   2  15
BRANCH   1  28
HETATM   28  C   UNL     1       5.263  30.200  57.006  1.00  0.00     0.045 A 
HETATM   29  C   UNL     1       4.540  30.448  58.186  1.00  0.00     0.066 A 
HETATM   30  C   UNL     1       3.727  31.580  58.313  1.00  0.00     0.070 A 
HETATM   31  C   UNL     1       3.660  32.502  57.269  1.00  0.00     0.037 A 
HETATM   32  C   UNL     1       4.364  32.275  56.091  1.00  0.00     0.005 A 
HETATM   33  C   UNL     1       5.148  31.128  55.959  1.00  0.00     0.030 A 
BRANCH  30  34
HETATM   34  O   UNL     1       2.965  31.900  59.406  1.00  0.00    -0.356 OA
HETATM   35  C   UNL     1       3.666  32.218  60.603  1.00  0.00     0.210 C 
ENDBRANCH  30  34
ENDBRANCH   1  28
TORSDOF 7
ENDMDL
MODEL 9
REMARK VINA RESULT:      -8.8      2.844      6.399
REMARK  7 active torsions:
REMARK  status: ('A' for Active; 'I' for Inactive)
REMARK    1  A    between atoms: O_2  and  C_3 
REMARK    2  A    between atoms: C_5  and  N_6 
REMARK    3  A    between atoms: C_7  and  O_8 
REMARK    4  A    between atoms: C_7  and  C_9 
REMARK       I    between atoms: C_9  and  N_10 
REMARK    5  A    between atoms: N_10  and  C_11 
REMARK    6  A    between atoms: C_11  and  C_12 
REMARK    7  A    between atoms: C_12  and  C_13 
ROOT
HETATM    1  N   UNL     1       6.142  25.917  55.645  1.00  0.00    -0.254 N 
HETATM    2  C   UNL     1       6.227  27.132  54.820  1.00  0.00     0.256 C 
HETATM    3  C   UNL     1       5.743  28.376  55.542  1.00  0.00     0.034 A 
HETATM    4  C   UNL     1       4.827  28.222  56.574  1.00  0.00     0.048 A 
HETATM    5  N   UNL     1       4.481  26.936  56.966  1.00  0.00    -0.308 N 
HETATM    6  C   UNL     1       5.132  25.797  56.591  1.00  0.00     0.330 C 
HETATM    7  O   UNL     1       4.774  24.747  57.126  1.00  0.00    -0.246 OA
HETATM    8  C   UNL     1       6.096  29.677  55.145  1.00  0.00     0.015 A 
HETATM    9  C   UNL     1       5.538  30.787  55.782  1.00  0.00     0.001 A 
HETATM   10  C   UNL     1       4.612  30.610  56.809  1.00  0.00     0.002 A 
HETATM   11  C   UNL     1       4.250  29.323  57.205  1.00  0.00     0.030 A 
HETATM   12  H   UNL     1       3.818  26.801  57.720  1.00  0.00     0.170 HD
ENDROOT
BRANCH   2  13
HETATM   13  O   UNL     1       7.603  27.383  54.515  1.00  0.00    -0.359 OA
HETATM   14  H   UNL     1       7.674  27.290  53.547  1.00  0.00     0.213 HD
ENDBRANCH   2  13
BRANCH   2  15
HETATM   15  C   UNL     1       5.385  26.963  53.488  1.00  0.00     0.279 C 
HETATM   16  N   UNL     1       6.080  26.668  52.330  1.00  0.00    -0.356 N 
HETATM   17  H   UNL     1       7.036  26.338  52.422  1.00  0.00     0.162 HD
HETATM   18  O   UNL     1       4.155  27.085  53.502  1.00  0.00    -0.268 OA
BRANCH  16  19
HETATM   19  C   UNL     1       5.365  26.354  51.108  1.00  0.00     0.127 C 
BRANCH  19  20
HETATM   20  C   UNL     1       5.251  27.548  50.156  1.00  0.00     0.058 C 
BRANCH  20  21
HETATM   21  C   UNL     1       4.088  27.451  49.193  1.00  0.00    -0.057 A 
HETATM   22  C   UNL     1       4.102  26.524  48.139  1.00  0.00     0.009 A 
HETATM   23  C   UNL     1       3.021  26.431  47.260  1.00  0.00     0.024 A 
HETATM   24  C   UNL     1       1.914  27.256  47.434  1.00  0.00     0.034 A 
HETATM   25 CL   UNL     1       0.580  27.139  46.355  1.00  0.00    -0.084 Cl
HETATM   26  C   UNL     1       1.878  28.172  48.483  1.00  0.00     0.024 A 
HETATM   27  C   UNL     1       2.961  28.269  49.361  1.00  0.00     0.009 A 
ENDBRANCH  20  21
ENDBRANCH  19  20
ENDBRANCH  16  19
ENDBRANCH   2  15
BRANCH   1  28
HETATM   28  C   UNL     1       6.996  24.787  55.385  1.00  0.00     0.045 A 
HETATM   29  C   UNL     1       6.784  23.904  54.312  1.00  0.00     0.066 A 
HETATM   30  C   UNL     1       7.651  22.831  54.074  1.00  0.00     0.070 A 
HETATM   31  C   UNL     1       8.767  22.652  54.891  1.00  0.00     0.037 A 
HETATM   32  C   UNL     1       8.995  23.511  55.961  1.00  0.00     0.005 A 
HETATM   33  C   UNL     1       8.109  24.562  56.210  1.00  0.00     0.030 A 
BRANCH  30  34
HETATM   34  O   UNL     1       7.520  21.902  53.076  1.00  0.00    -0.356 OA
HETATM   35  C   UNL     1       8.194  20.663  53.263  1.00  0.00     0.210 C 
ENDBRANCH  30  34
ENDBRANCH   1  28
TORSDOF 7
ENDMDL
MODEL 10
REMARK VINA RESULT:      -8.4      3.556      6.713
REMARK  7 active torsions:
REMARK  status: ('A' for Active; 'I' for Inactive)
REMARK    1  A    between atoms: O_2  and  C_3 
REMARK    2  A    between atoms: C_5  and  N_6 
REMARK    3  A    between atoms: C_7  and  O_8 
REMARK    4  A    between atoms: C_7  and  C_9 
REMARK       I    between atoms: C_9  and  N_10 
REMARK    5  A    between atoms: N_10  and  C_11 
REMARK    6  A    between atoms: C_11  and  C_12 
REMARK    7  A    between atoms: C_12  and  C_13 
ROOT
HETATM    1  N   UNL     1       7.160  25.274  54.248  1.00  0.00    -0.254 N 
HETATM    2  C   UNL     1       6.583  25.888  55.453  1.00  0.00     0.256 C 
HETATM    3  C   UNL     1       5.680  27.067  55.145  1.00  0.00     0.034 A 
HETATM    4  C   UNL     1       5.893  27.767  53.963  1.00  0.00     0.048 A 
HETATM    5  N   UNL     1       6.847  27.290  53.075  1.00  0.00    -0.308 N 
HETATM    6  C   UNL     1       7.438  26.061  53.139  1.00  0.00     0.330 C 
HETATM    7  O   UNL     1       8.172  25.746  52.202  1.00  0.00    -0.246 OA
HETATM    8  C   UNL     1       4.713  27.548  56.044  1.00  0.00     0.015 A 
HETATM    9  C   UNL     1       3.983  28.700  55.750  1.00  0.00     0.001 A 
HETATM   10  C   UNL     1       4.220  29.392  54.564  1.00  0.00     0.002 A 
HETATM   11  C   UNL     1       5.181  28.929  53.667  1.00  0.00     0.030 A 
HETATM   12  H   UNL     1       7.015  27.782  52.205  1.00  0.00     0.170 HD
ENDROOT
BRANCH   2  13
HETATM   13  O   UNL     1       5.742  24.926  56.099  1.00  0.00    -0.359 OA
HETATM   14  H   UNL     1       5.187  24.551  55.391  1.00  0.00     0.213 HD
ENDBRANCH   2  13
BRANCH   2  15
HETATM   15  C   UNL     1       7.728  26.373  56.436  1.00  0.00     0.279 C 
HETATM   16  N   UNL     1       8.212  27.656  56.265  1.00  0.00    -0.356 N 
HETATM   17  H   UNL     1       7.664  28.297  55.699  1.00  0.00     0.162 HD
HETATM   18  O   UNL     1       8.154  25.624  57.322  1.00  0.00    -0.268 OA
BRANCH  16  19
HETATM   19  C   UNL     1       9.150  28.217  57.217  1.00  0.00     0.127 C 
BRANCH  19  20
HETATM   20  C   UNL     1       9.395  29.714  57.007  1.00  0.00     0.058 C 
BRANCH  20  21
HETATM   21  C   UNL     1       8.873  30.582  58.131  1.00  0.00    -0.057 A 
HETATM   22  C   UNL     1       7.497  30.659  58.399  1.00  0.00     0.009 A 
HETATM   23  C   UNL     1       7.021  31.453  59.445  1.00  0.00     0.024 A 
HETATM   24  C   UNL     1       7.917  32.166  60.237  1.00  0.00     0.034 A 
HETATM   25 CL   UNL     1       7.332  33.139  61.528  1.00  0.00    -0.084 Cl
HETATM   26  C   UNL     1       9.286  32.089  59.992  1.00  0.00     0.024 A 
HETATM   27  C   UNL     1       9.763  31.299  58.943  1.00  0.00     0.009 A 
ENDBRANCH  20  21
ENDBRANCH  19  20
ENDBRANCH  16  19
ENDBRANCH   2  15
BRANCH   1  28
HETATM   28  C   UNL     1       7.583  23.896  54.251  1.00  0.00     0.045 A 
HETATM   29  C   UNL     1       8.080  23.256  55.400  1.00  0.00     0.066 A 
HETATM   30  C   UNL     1       8.457  21.908  55.372  1.00  0.00     0.070 A 
HETATM   31  C   UNL     1       8.302  21.173  54.197  1.00  0.00     0.037 A 
HETATM   32  C   UNL     1       7.816  21.786  53.048  1.00  0.00     0.005 A 
HETATM   33  C   UNL     1       7.471  23.139  53.074  1.00  0.00     0.030 A 
BRANCH  30  34
HETATM   34  O   UNL     1       8.974  21.199  56.424  1.00  0.00    -0.356 OA
HETATM   35  C   UNL     1       8.369  21.408  57.695  1.00  0.00     0.210 C 
ENDBRANCH  30  34
ENDBRANCH   1  28
TORSDOF 7
ENDMDL
