MODEL 1
REMARK VINA RESULT:      -9.6      0.000      0.000
REMARK  5 active torsions:
REMARK  status: ('A' for Active; 'I' for Inactive)
REMARK    1  A    between atoms: O_2  and  C_3 
REMARK    2  A    between atoms: C_4  and  C_5 
REMARK    3  A    between atoms: C_9  and  N_10 
REMARK       I    between atoms: N_10  and  C_11 
REMARK    4  A    between atoms: C_11  and  C_12 
REMARK    5  A    between atoms: C_12  and  C_13 
ROOT
HETATM    1  C   UNL     1       7.660  29.573  57.141  1.00  0.00     0.093 A 
HETATM    2  N   UNL     1       6.727  30.104  56.334  1.00  0.00    -0.172 NA
HETATM    3  N   UNL     1       6.326  29.075  55.567  1.00  0.00    -0.262 N 
HETATM    4  H   UNL     1       5.608  29.223  54.862  1.00  0.00     0.191 HD
HETATM    5  C   UNL     1       6.927  27.887  55.884  1.00  0.00     0.126 A 
HETATM    6  C   UNL     1       7.824  28.183  56.879  1.00  0.00     0.084 A 
ENDROOT
BRANCH   5   7
HETATM    7  N   UNL     1       6.619  26.673  55.307  1.00  0.00    -0.311 N 
HETATM    8  C   UNL     1       7.013  26.357  54.022  1.00  0.00     0.236 C 
HETATM    9  O   UNL     1       7.755  27.029  53.313  1.00  0.00    -0.272 OA
HETATM   10  H   UNL     1       5.999  26.046  55.803  1.00  0.00     0.170 HD
BRANCH   8  11
HETATM   11  C   UNL     1       6.389  25.088  53.498  1.00  0.00     0.068 A 
HETATM   12  C   UNL     1       4.868  25.050  53.376  1.00  0.00     0.026 A 
HETATM   13  C   UNL     1       5.701  25.132  52.137  1.00  0.00     0.026 A 
BRANCH  11  14
HETATM   14  C   UNL     1       7.087  23.801  53.935  1.00  0.00    -0.040 A 
HETATM   15  C   UNL     1       7.648  22.931  52.981  1.00  0.00     0.010 A 
HETATM   16  C   UNL     1       8.245  21.723  53.355  1.00  0.00     0.024 A 
HETATM   17  C   UNL     1       8.289  21.364  54.698  1.00  0.00     0.034 A 
HETATM   18 CL   UNL     1       9.011  19.874  55.164  1.00  0.00    -0.084 Cl
HETATM   19  C   UNL     1       7.744  22.202  55.666  1.00  0.00     0.024 A 
HETATM   20  C   UNL     1       7.149  23.408  55.284  1.00  0.00     0.010 A 
ENDBRANCH  11  14
ENDBRANCH   8  11
ENDBRANCH   5   7
BRANCH   1  21
HETATM   21  C   UNL     1       8.318  30.348  58.191  1.00  0.00     0.029 A 
HETATM   22  C   UNL     1       9.597  30.907  58.034  1.00  0.00     0.081 A 
HETATM   23  C   UNL     1      10.197  31.621  59.077  1.00  0.00     0.039 A 
HETATM   24  C   UNL     1       9.511  31.812  60.277  1.00  0.00     0.026 A 
HETATM   25  C   UNL     1       8.236  31.275  60.433  1.00  0.00     0.035 A 
HETATM   26  C   UNL     1       7.640  30.546  59.405  1.00  0.00     0.040 A 
HETATM   27 CL   UNL     1       7.391  31.503  61.916  1.00  0.00    -0.084 Cl
BRANCH  22  28
HETATM   28  O   UNL     1      10.333  30.684  56.898  1.00  0.00    -0.355 OA
HETATM   29  C   UNL     1      11.330  29.690  57.141  1.00  0.00     0.210 C 
ENDBRANCH  22  28
ENDBRANCH   1  21
TORSDOF 5
ENDMDL
MODEL 2
REMARK VINA RESULT:      -9.5      1.524      2.116
REMARK  5 active torsions:
REMARK  status: ('A' for Active; 'I' for Inactive)
REMARK    1  A    between atoms: O_2  and  C_3 
REMARK    2  A    between atoms: C_4  and  C_5 
REMARK    3  A    between atoms: C_9  and  N_10 
REMARK       I    between atoms: N_10  and  C_11 
REMARK    4  A    between atoms: C_11  and  C_12 
REMARK    5  A    between atoms: C_12  and  C_13 
ROOT
HETATM    1  C   UNL     1       7.729  29.345  57.420  1.00  0.00     0.093 A 
HETATM    2  N   UNL     1       8.568  29.541  56.391  1.00  0.00    -0.172 NA
HETATM    3  N   UNL     1       8.417  28.446  55.625  1.00  0.00    -0.262 N 
HETATM    4  H   UNL     1       8.954  28.354  54.766  1.00  0.00     0.191 HD
HETATM    5  C   UNL     1       7.472  27.574  56.095  1.00  0.00     0.126 A 
HETATM    6  C   UNL     1       7.031  28.112  57.277  1.00  0.00     0.084 A 
ENDROOT
BRANCH   5   7
HETATM    7  N   UNL     1       7.068  26.429  55.443  1.00  0.00    -0.311 N 
HETATM    8  C   UNL     1       7.097  26.326  54.066  1.00  0.00     0.236 C 
HETATM    9  O   UNL     1       7.578  27.150  53.295  1.00  0.00    -0.272 OA
HETATM   10  H   UNL     1       6.641  25.689  55.985  1.00  0.00     0.170 HD
BRANCH   8  11
HETATM   11  C   UNL     1       6.408  25.091  53.541  1.00  0.00     0.068 A 
HETATM   12  C   UNL     1       4.882  25.105  53.492  1.00  0.00     0.026 A 
HETATM   13  C   UNL     1       5.657  25.194  52.216  1.00  0.00     0.026 A 
BRANCH  11  14
HETATM   14  C   UNL     1       7.084  23.772  53.910  1.00  0.00    -0.040 A 
HETATM   15  C   UNL     1       7.646  22.952  52.914  1.00  0.00     0.010 A 
HETATM   16  C   UNL     1       8.224  21.716  53.225  1.00  0.00     0.024 A 
HETATM   17  C   UNL     1       8.245  21.279  54.545  1.00  0.00     0.034 A 
HETATM   18 CL   UNL     1       8.943  19.755  54.932  1.00  0.00    -0.084 Cl
HETATM   19  C   UNL     1       7.698  22.067  55.553  1.00  0.00     0.024 A 
HETATM   20  C   UNL     1       7.124  23.301  55.235  1.00  0.00     0.010 A 
ENDBRANCH  11  14
ENDBRANCH   8  11
ENDBRANCH   5   7
BRANCH   1  21
HETATM   21  C   UNL     1       7.534  30.342  58.471  1.00  0.00     0.029 A 
HETATM   22  C   UNL     1       6.472  31.260  58.459  1.00  0.00     0.081 A 
HETATM   23  C   UNL     1       6.340  32.212  59.477  1.00  0.00     0.039 A 
HETATM   24  C   UNL     1       7.251  32.236  60.533  1.00  0.00     0.026 A 
HETATM   25  C   UNL     1       8.297  31.318  60.560  1.00  0.00     0.035 A 
HETATM   26  C   UNL     1       8.446  30.379  59.540  1.00  0.00     0.040 A 
HETATM   27 CL   UNL     1       9.427  31.349  61.858  1.00  0.00    -0.084 Cl
BRANCH  22  28
HETATM   28  O   UNL     1       5.595  31.316  57.406  1.00  0.00    -0.355 OA
HETATM   29  C   UNL     1       4.312  30.831  57.804  1.00  0.00     0.210 C 
ENDBRANCH  22  28
ENDBRANCH   1  21
TORSDOF 5
ENDMDL
MODEL 3
REMARK VINA RESULT:      -9.4      5.243      8.946
REMARK  5 active torsions:
REMARK  status: ('A' for Active; 'I' for Inactive)
REMARK    1  A    between atoms: O_2  and  C_3 
REMARK    2  A    between atoms: C_4  and  C_5 
REMARK    3  A    between atoms: C_9  and  N_10 
REMARK       I    between atoms: N_10  and  C_11 
REMARK    4  A    between atoms: C_11  and  C_12 
REMARK    5  A    between atoms: C_12  and  C_13 
ROOT
HETATM    1  C   UNL     1       6.310  24.679  52.921  1.00  0.00     0.093 A 
HETATM    2  N   UNL     1       4.986  24.825  53.088  1.00  0.00    -0.172 NA
HETATM    3  N   UNL     1       4.611  25.633  52.079  1.00  0.00    -0.262 N 
HETATM    4  H   UNL     1       3.634  25.897  51.983  1.00  0.00     0.191 HD
HETATM    5  C   UNL     1       5.636  25.971  51.237  1.00  0.00     0.126 A 
HETATM    6  C   UNL     1       6.759  25.396  51.775  1.00  0.00     0.084 A 
ENDROOT
BRANCH   5   7
HETATM    7  N   UNL     1       5.491  26.708  50.082  1.00  0.00    -0.311 N 
HETATM    8  C   UNL     1       4.576  27.738  49.986  1.00  0.00     0.236 C 
HETATM    9  O   UNL     1       3.901  28.186  50.907  1.00  0.00    -0.272 OA
HETATM   10  H   UNL     1       5.994  26.415  49.254  1.00  0.00     0.170 HD
BRANCH   8  11
HETATM   11  C   UNL     1       4.412  28.267  48.583  1.00  0.00     0.068 A 
HETATM   12  C   UNL     1       5.227  29.500  48.197  1.00  0.00     0.026 A 
HETATM   13  C   UNL     1       5.602  28.167  47.632  1.00  0.00     0.026 A 
BRANCH  11  14
HETATM   14  C   UNL     1       2.998  28.157  48.016  1.00  0.00    -0.040 A 
HETATM   15  C   UNL     1       2.538  26.944  47.470  1.00  0.00     0.010 A 
HETATM   16  C   UNL     1       1.266  26.836  46.898  1.00  0.00     0.024 A 
HETATM   17  C   UNL     1       0.431  27.948  46.861  1.00  0.00     0.034 A 
HETATM   18 CL   UNL     1      -1.129  27.825  46.149  1.00  0.00    -0.084 Cl
HETATM   19  C   UNL     1       0.857  29.161  47.393  1.00  0.00     0.024 A 
HETATM   20  C   UNL     1       2.129  29.261  47.964  1.00  0.00     0.010 A 
ENDBRANCH  11  14
ENDBRANCH   8  11
ENDBRANCH   5   7
BRANCH   1  21
HETATM   21  C   UNL     1       7.116  23.814  53.781  1.00  0.00     0.029 A 
HETATM   22  C   UNL     1       7.449  24.152  55.102  1.00  0.00     0.081 A 
HETATM   23  C   UNL     1       8.243  23.300  55.879  1.00  0.00     0.039 A 
HETATM   24  C   UNL     1       8.685  22.086  55.353  1.00  0.00     0.026 A 
HETATM   25  C   UNL     1       8.344  21.736  54.049  1.00  0.00     0.035 A 
HETATM   26  C   UNL     1       7.569  22.588  53.263  1.00  0.00     0.040 A 
HETATM   27 CL   UNL     1       8.894  20.241  53.396  1.00  0.00    -0.084 Cl
BRANCH  22  28
HETATM   28  O   UNL     1       7.093  25.365  55.634  1.00  0.00    -0.355 OA
HETATM   29  C   UNL     1       6.210  25.181  56.741  1.00  0.00     0.210 C 
ENDBRANCH  22  28
ENDBRANCH   1  21
TORSDOF 5
ENDMDL
MODEL 4
REMARK VINA RESULT:      -9.4      5.474      8.701
REMARK  5 active torsions:
REMARK  status: ('A' for Active; 'I' for Inactive)
REMARK    1  A    between atoms: O_2  and  C_3 
REMARK    2  A    between atoms: C_4  and  C_5 
REMARK    3  A    between atoms: C_9  and  N_10 
REMARK       I    between atoms: N_10  and  C_11 
REMARK    4  A    between atoms: C_11  and  C_12 
REMARK    5  A    between atoms: C_12  and  C_13 
ROOT
HETATM    1  C   UNL     1       6.275  24.825  53.018  1.00  0.00     0.093 A 
HETATM    2  N   UNL     1       4.957  24.581  52.940  1.00  0.00    -0.172 NA
HETATM    3  N   UNL     1       4.563  25.235  51.832  1.00  0.00    -0.262 N 
HETATM    4  H   UNL     1       3.587  25.203  51.549  1.00  0.00     0.191 HD
HETATM    5  C   UNL     1       5.588  25.849  51.164  1.00  0.00     0.126 A 
HETATM    6  C   UNL     1       6.708  25.631  51.927  1.00  0.00     0.084 A 
ENDROOT
BRANCH   5   7
HETATM    7  N   UNL     1       5.458  26.503  49.958  1.00  0.00    -0.311 N 
HETATM    8  C   UNL     1       4.574  27.550  49.789  1.00  0.00     0.236 C 
HETATM    9  O   UNL     1       3.919  28.087  50.677  1.00  0.00    -0.272 OA
HETATM   10  H   UNL     1       5.945  26.133  49.152  1.00  0.00     0.170 HD
BRANCH   8  11
HETATM   11  C   UNL     1       4.417  27.978  48.351  1.00  0.00     0.068 A 
HETATM   12  C   UNL     1       5.346  29.075  47.838  1.00  0.00     0.026 A 
HETATM   13  C   UNL     1       5.552  27.667  47.379  1.00  0.00     0.026 A 
BRANCH  11  14
HETATM   14  C   UNL     1       2.979  27.980  47.835  1.00  0.00    -0.040 A 
HETATM   15  C   UNL     1       2.432  26.832  47.233  1.00  0.00     0.010 A 
HETATM   16  C   UNL     1       1.136  26.830  46.707  1.00  0.00     0.024 A 
HETATM   17  C   UNL     1       0.363  27.985  46.774  1.00  0.00     0.034 A 
HETATM   18 CL   UNL     1      -1.227  27.993  46.119  1.00  0.00    -0.084 Cl
HETATM   19  C   UNL     1       0.875  29.136  47.365  1.00  0.00     0.024 A 
HETATM   20  C   UNL     1       2.171  29.131  47.889  1.00  0.00     0.010 A 
ENDBRANCH  11  14
ENDBRANCH   8  11
ENDBRANCH   5   7
BRANCH   1  21
HETATM   21  C   UNL     1       7.118  24.239  54.059  1.00  0.00     0.029 A 
HETATM   22  C   UNL     1       7.751  22.994  53.911  1.00  0.00     0.081 A 
HETATM   23  C   UNL     1       8.530  22.463  54.946  1.00  0.00     0.039 A 
HETATM   24  C   UNL     1       8.710  23.185  56.126  1.00  0.00     0.026 A 
HETATM   25  C   UNL     1       8.099  24.427  56.272  1.00  0.00     0.035 A 
HETATM   26  C   UNL     1       7.306  24.954  55.253  1.00  0.00     0.040 A 
HETATM   27 CL   UNL     1       8.314  25.317  57.730  1.00  0.00    -0.084 Cl
BRANCH  22  28
HETATM   28  O   UNL     1       7.545  22.221  52.797  1.00  0.00    -0.355 OA
HETATM   29  C   UNL     1       7.987  20.884  53.035  1.00  0.00     0.210 C 
ENDBRANCH  22  28
ENDBRANCH   1  21
TORSDOF 5
ENDMDL
MODEL 5
REMARK VINA RESULT:      -9.1      2.692      9.681
REMARK  5 active torsions:
REMARK  status: ('A' for Active; 'I' for Inactive)
REMARK    1  A    between atoms: O_2  and  C_3 
REMARK    2  A    between atoms: C_4  and  C_5 
REMARK    3  A    between atoms: C_9  and  N_10 
REMARK       I    between atoms: N_10  and  C_11 
REMARK    4  A    between atoms: C_11  and  C_12 
REMARK    5  A    between atoms: C_12  and  C_13 
ROOT
HETATM    1  C   UNL     1       7.111  28.231  56.479  1.00  0.00     0.093 A 
HETATM    2  N   UNL     1       7.584  29.405  56.031  1.00  0.00    -0.172 NA
HETATM    3  N   UNL     1       7.882  30.092  57.149  1.00  0.00    -0.262 N 
HETATM    4  H   UNL     1       8.267  31.030  57.076  1.00  0.00     0.191 HD
HETATM    5  C   UNL     1       7.667  29.383  58.301  1.00  0.00     0.126 A 
HETATM    6  C   UNL     1       7.135  28.184  57.902  1.00  0.00     0.084 A 
ENDROOT
BRANCH   5   7
HETATM    7  N   UNL     1       7.981  29.831  59.566  1.00  0.00    -0.311 N 
HETATM    8  C   UNL     1       8.044  31.177  59.867  1.00  0.00     0.236 C 
HETATM    9  O   UNL     1       7.723  32.096  59.121  1.00  0.00    -0.272 OA
HETATM   10  H   UNL     1       8.276  29.155  60.259  1.00  0.00     0.170 HD
BRANCH   8  11
HETATM   11  C   UNL     1       8.621  31.460  61.233  1.00  0.00     0.068 A 
HETATM   12  C   UNL     1       9.714  30.524  61.743  1.00  0.00     0.026 A 
HETATM   13  C   UNL     1      10.076  31.912  61.320  1.00  0.00     0.026 A 
BRANCH  11  14
HETATM   14  C   UNL     1       7.618  31.988  62.257  1.00  0.00    -0.040 A 
HETATM   15  C   UNL     1       6.234  31.856  62.038  1.00  0.00     0.010 A 
HETATM   16  C   UNL     1       5.298  32.379  62.937  1.00  0.00     0.024 A 
HETATM   17  C   UNL     1       5.737  33.047  64.075  1.00  0.00     0.034 A 
HETATM   18 CL   UNL     1       4.592  33.702  65.180  1.00  0.00    -0.084 Cl
HETATM   19  C   UNL     1       7.099  33.193  64.321  1.00  0.00     0.024 A 
HETATM   20  C   UNL     1       8.028  32.668  63.418  1.00  0.00     0.010 A 
ENDBRANCH  11  14
ENDBRANCH   8  11
ENDBRANCH   5   7
BRANCH   1  21
HETATM   21  C   UNL     1       6.724  27.149  55.576  1.00  0.00     0.029 A 
HETATM   22  C   UNL     1       5.526  27.163  54.843  1.00  0.00     0.081 A 
HETATM   23  C   UNL     1       5.188  26.091  54.008  1.00  0.00     0.039 A 
HETATM   24  C   UNL     1       6.059  25.010  53.872  1.00  0.00     0.026 A 
HETATM   25  C   UNL     1       7.256  24.998  54.583  1.00  0.00     0.035 A 
HETATM   26  C   UNL     1       7.591  26.053  55.431  1.00  0.00     0.040 A 
HETATM   27 CL   UNL     1       8.329  23.661  54.423  1.00  0.00    -0.084 Cl
BRANCH  22  28
HETATM   28  O   UNL     1       4.611  28.172  54.999  1.00  0.00    -0.355 OA
HETATM   29  C   UNL     1       4.007  28.491  53.744  1.00  0.00     0.210 C 
ENDBRANCH  22  28
ENDBRANCH   1  21
TORSDOF 5
ENDMDL
MODEL 6
REMARK VINA RESULT:      -9.0      3.257      9.619
REMARK  5 active torsions:
REMARK  status: ('A' for Active; 'I' for Inactive)
REMARK    1  A    between atoms: O_2  and  C_3 
REMARK    2  A    between atoms: C_4  and  C_5 
REMARK    3  A    between atoms: C_9  and  N_10 
REMARK       I    between atoms: N_10  and  C_11 
REMARK    4  A    between atoms: C_11  and  C_12 
REMARK    5  A    between atoms: C_12  and  C_13 
ROOT
HETATM    1  C   UNL     1       7.004  28.758  56.279  1.00  0.00     0.093 A 
HETATM    2  N   UNL     1       8.174  29.344  55.982  1.00  0.00    -0.172 NA
HETATM    3  N   UNL     1       8.584  29.879  57.147  1.00  0.00    -0.262 N 
HETATM    4  H   UNL     1       9.465  30.385  57.186  1.00  0.00     0.191 HD
HETATM    5  C   UNL     1       7.745  29.613  58.196  1.00  0.00     0.126 A 
HETATM    6  C   UNL     1       6.692  28.917  57.659  1.00  0.00     0.084 A 
ENDROOT
BRANCH   5   7
HETATM    7  N   UNL     1       7.990  29.970  59.505  1.00  0.00    -0.311 N 
HETATM    8  C   UNL     1       8.138  31.289  59.884  1.00  0.00     0.236 C 
HETATM    9  O   UNL     1       7.955  32.268  59.167  1.00  0.00    -0.272 OA
HETATM   10  H   UNL     1       8.171  29.238  60.180  1.00  0.00     0.170 HD
BRANCH   8  11
HETATM   11  C   UNL     1       8.622  31.456  61.303  1.00  0.00     0.068 A 
HETATM   12  C   UNL     1       9.572  30.393  61.851  1.00  0.00     0.026 A 
HETATM   13  C   UNL     1      10.102  31.753  61.529  1.00  0.00     0.026 A 
BRANCH  11  14
HETATM   14  C   UNL     1       7.592  32.038  62.269  1.00  0.00    -0.040 A 
HETATM   15  C   UNL     1       8.003  32.707  63.437  1.00  0.00     0.010 A 
HETATM   16  C   UNL     1       7.077  33.202  64.361  1.00  0.00     0.024 A 
HETATM   17  C   UNL     1       5.716  33.032  64.129  1.00  0.00     0.034 A 
HETATM   18 CL   UNL     1       4.571  33.628  65.267  1.00  0.00    -0.084 Cl
HETATM   19  C   UNL     1       5.277  32.376  62.984  1.00  0.00     0.024 A 
HETATM   20  C   UNL     1       6.209  31.884  62.065  1.00  0.00     0.010 A 
ENDBRANCH  11  14
ENDBRANCH   8  11
ENDBRANCH   5   7
BRANCH   1  21
HETATM   21  C   UNL     1       6.240  27.995  55.294  1.00  0.00     0.029 A 
HETATM   22  C   UNL     1       6.467  26.631  55.048  1.00  0.00     0.081 A 
HETATM   23  C   UNL     1       5.725  25.948  54.076  1.00  0.00     0.039 A 
HETATM   24  C   UNL     1       4.727  26.613  53.364  1.00  0.00     0.026 A 
HETATM   25  C   UNL     1       4.485  27.961  53.615  1.00  0.00     0.035 A 
HETATM   26  C   UNL     1       5.233  28.653  54.567  1.00  0.00     0.040 A 
HETATM   27 CL   UNL     1       3.259  28.787  52.733  1.00  0.00    -0.084 Cl
BRANCH  22  28
HETATM   28  O   UNL     1       7.483  25.957  55.675  1.00  0.00    -0.355 OA
HETATM   29  C   UNL     1       7.400  24.559  55.389  1.00  0.00     0.210 C 
ENDBRANCH  22  28
ENDBRANCH   1  21
TORSDOF 5
ENDMDL
MODEL 7
REMARK VINA RESULT:      -8.9      5.358      9.076
REMARK  5 active torsions:
REMARK  status: ('A' for Active; 'I' for Inactive)
REMARK    1  A    between atoms: O_2  and  C_3 
REMARK    2  A    between atoms: C_4  and  C_5 
REMARK    3  A    between atoms: C_9  and  N_10 
REMARK       I    between atoms: N_10  and  C_11 
REMARK    4  A    between atoms: C_11  and  C_12 
REMARK    5  A    between atoms: C_12  and  C_13 
ROOT
HETATM    1  C   UNL     1       6.307  24.673  52.834  1.00  0.00     0.093 A 
HETATM    2  N   UNL     1       4.970  24.775  52.899  1.00  0.00    -0.172 NA
HETATM    3  N   UNL     1       4.655  25.656  51.931  1.00  0.00    -0.262 N 
HETATM    4  H   UNL     1       3.682  25.905  51.774  1.00  0.00     0.191 HD
HETATM    5  C   UNL     1       5.736  26.086  51.210  1.00  0.00     0.126 A 
HETATM    6  C   UNL     1       6.828  25.493  51.792  1.00  0.00     0.084 A 
ENDROOT
BRANCH   5   7
HETATM    7  N   UNL     1       5.666  26.915  50.111  1.00  0.00    -0.311 N 
HETATM    8  C   UNL     1       4.631  27.813  49.942  1.00  0.00     0.236 C 
HETATM    9  O   UNL     1       3.757  28.065  50.765  1.00  0.00    -0.272 OA
HETATM   10  H   UNL     1       6.332  26.782  49.362  1.00  0.00     0.170 HD
BRANCH   8  11
HETATM   11  C   UNL     1       4.613  28.460  48.579  1.00  0.00     0.068 A 
HETATM   12  C   UNL     1       5.072  27.614  47.394  1.00  0.00     0.026 A 
HETATM   13  C   UNL     1       3.619  27.935  47.546  1.00  0.00     0.026 A 
BRANCH  11  14
HETATM   14  C   UNL     1       4.983  29.942  48.566  1.00  0.00    -0.040 A 
HETATM   15  C   UNL     1       4.521  30.787  47.541  1.00  0.00     0.010 A 
HETATM   16  C   UNL     1       4.891  32.135  47.481  1.00  0.00     0.024 A 
HETATM   17  C   UNL     1       5.737  32.659  48.452  1.00  0.00     0.034 A 
HETATM   18 CL   UNL     1       6.206  34.313  48.379  1.00  0.00    -0.084 Cl
HETATM   19  C   UNL     1       6.211  31.850  49.480  1.00  0.00     0.024 A 
HETATM   20  C   UNL     1       5.836  30.504  49.534  1.00  0.00     0.010 A 
ENDBRANCH  11  14
ENDBRANCH   8  11
ENDBRANCH   5   7
BRANCH   1  21
HETATM   21  C   UNL     1       7.063  23.757  53.685  1.00  0.00     0.029 A 
HETATM   22  C   UNL     1       7.338  24.026  55.035  1.00  0.00     0.081 A 
HETATM   23  C   UNL     1       8.087  23.127  55.804  1.00  0.00     0.039 A 
HETATM   24  C   UNL     1       8.542  21.935  55.239  1.00  0.00     0.026 A 
HETATM   25  C   UNL     1       8.258  21.654  53.905  1.00  0.00     0.035 A 
HETATM   26  C   UNL     1       7.529  22.554  53.128  1.00  0.00     0.040 A 
HETATM   27 CL   UNL     1       8.824  20.188  53.204  1.00  0.00    -0.084 Cl
BRANCH  22  28
HETATM   28  O   UNL     1       6.970  25.215  55.610  1.00  0.00    -0.355 OA
HETATM   29  C   UNL     1       5.891  25.010  56.523  1.00  0.00     0.210 C 
ENDBRANCH  22  28
ENDBRANCH   1  21
TORSDOF 5
ENDMDL
MODEL 8
REMARK VINA RESULT:      -8.5      4.677      7.642
REMARK  5 active torsions:
REMARK  status: ('A' for Active; 'I' for Inactive)
REMARK    1  A    between atoms: O_2  and  C_3 
REMARK    2  A    between atoms: C_4  and  C_5 
REMARK    3  A    between atoms: C_9  and  N_10 
REMARK       I    between atoms: N_10  and  C_11 
REMARK    4  A    between atoms: C_11  and  C_12 
REMARK    5  A    between atoms: C_12  and  C_13 
ROOT
HETATM    1  C   UNL     1       4.310  28.748  51.169  1.00  0.00     0.093 A 
HETATM    2  N   UNL     1       5.395  29.495  51.427  1.00  0.00    -0.172 NA
HETATM    3  N   UNL     1       5.931  28.935  52.526  1.00  0.00    -0.262 N 
HETATM    4  H   UNL     1       6.780  29.326  52.928  1.00  0.00     0.191 HD
HETATM    5  C   UNL     1       5.261  27.821  52.957  1.00  0.00     0.126 A 
HETATM    6  C   UNL     1       4.183  27.693  52.117  1.00  0.00     0.084 A 
ENDROOT
BRANCH   5   7
HETATM    7  N   UNL     1       5.663  27.019  54.003  1.00  0.00    -0.311 N 
HETATM    8  C   UNL     1       6.996  26.861  54.327  1.00  0.00     0.236 C 
HETATM    9  O   UNL     1       7.934  27.479  53.834  1.00  0.00    -0.272 OA
HETATM   10  H   UNL     1       4.970  26.452  54.472  1.00  0.00     0.170 HD
BRANCH   8  11
HETATM   11  C   UNL     1       7.241  25.776  55.346  1.00  0.00     0.068 A 
HETATM   12  C   UNL     1       7.975  26.167  56.627  1.00  0.00     0.026 A 
HETATM   13  C   UNL     1       6.512  25.866  56.684  1.00  0.00     0.026 A 
BRANCH  11  14
HETATM   14  C   UNL     1       7.545  24.399  54.758  1.00  0.00    -0.040 A 
HETATM   15  C   UNL     1       7.813  24.249  53.385  1.00  0.00     0.010 A 
HETATM   16  C   UNL     1       8.042  22.991  52.818  1.00  0.00     0.024 A 
HETATM   17  C   UNL     1       8.002  21.857  53.621  1.00  0.00     0.034 A 
HETATM   18 CL   UNL     1       8.271  20.306  52.928  1.00  0.00    -0.084 Cl
HETATM   19  C   UNL     1       7.741  21.971  54.983  1.00  0.00     0.024 A 
HETATM   20  C   UNL     1       7.514  23.232  55.543  1.00  0.00     0.010 A 
ENDBRANCH  11  14
ENDBRANCH   8  11
ENDBRANCH   5   7
BRANCH   1  21
HETATM   21  C   UNL     1       3.461  28.980  50.002  1.00  0.00     0.029 A 
HETATM   22  C   UNL     1       3.679  28.350  48.767  1.00  0.00     0.081 A 
HETATM   23  C   UNL     1       2.851  28.623  47.671  1.00  0.00     0.039 A 
HETATM   24  C   UNL     1       1.778  29.503  47.808  1.00  0.00     0.026 A 
HETATM   25  C   UNL     1       1.546  30.118  49.035  1.00  0.00     0.035 A 
HETATM   26  C   UNL     1       2.377  29.866  50.126  1.00  0.00     0.040 A 
HETATM   27 CL   UNL     1       0.226  31.210  49.205  1.00  0.00    -0.084 Cl
BRANCH  22  28
HETATM   28  O   UNL     1       4.762  27.533  48.569  1.00  0.00    -0.355 OA
HETATM   29  C   UNL     1       5.419  27.869  47.346  1.00  0.00     0.210 C 
ENDBRANCH  22  28
ENDBRANCH   1  21
TORSDOF 5
ENDMDL
MODEL 9
REMARK VINA RESULT:      -8.4      2.170      8.521
REMARK  5 active torsions:
REMARK  status: ('A' for Active; 'I' for Inactive)
REMARK    1  A    between atoms: O_2  and  C_3 
REMARK    2  A    between atoms: C_4  and  C_5 
REMARK    3  A    between atoms: C_9  and  N_10 
REMARK       I    between atoms: N_10  and  C_11 
REMARK    4  A    between atoms: C_11  and  C_12 
REMARK    5  A    between atoms: C_12  and  C_13 
ROOT
HETATM    1  C   UNL     1       6.034  25.568  55.907  1.00  0.00     0.093 A 
HETATM    2  N   UNL     1       4.922  25.222  56.575  1.00  0.00    -0.172 NA
HETATM    3  N   UNL     1       4.582  26.332  57.254  1.00  0.00    -0.262 N 
HETATM    4  H   UNL     1       3.755  26.326  57.846  1.00  0.00     0.191 HD
HETATM    5  C   UNL     1       5.405  27.399  57.008  1.00  0.00     0.126 A 
HETATM    6  C   UNL     1       6.378  26.926  56.165  1.00  0.00     0.084 A 
ENDROOT
BRANCH   5   7
HETATM    7  N   UNL     1       5.213  28.668  57.509  1.00  0.00    -0.311 N 
HETATM    8  C   UNL     1       5.450  29.795  56.747  1.00  0.00     0.236 C 
HETATM    9  O   UNL     1       5.726  29.808  55.551  1.00  0.00    -0.272 OA
HETATM   10  H   UNL     1       4.996  28.772  58.491  1.00  0.00     0.170 HD
BRANCH   8  11
HETATM   11  C   UNL     1       5.401  31.077  57.539  1.00  0.00     0.068 A 
HETATM   12  C   UNL     1       4.885  32.325  56.826  1.00  0.00     0.026 A 
HETATM   13  C   UNL     1       4.032  31.670  57.865  1.00  0.00     0.026 A 
BRANCH  11  14
HETATM   14  C   UNL     1       6.545  31.263  58.534  1.00  0.00    -0.040 A 
HETATM   15  C   UNL     1       6.346  31.977  59.730  1.00  0.00     0.010 A 
HETATM   16  C   UNL     1       7.393  32.203  60.630  1.00  0.00     0.024 A 
HETATM   17  C   UNL     1       8.664  31.717  60.342  1.00  0.00     0.034 A 
HETATM   18 CL   UNL     1       9.959  32.001  61.438  1.00  0.00    -0.084 Cl
HETATM   19  C   UNL     1       8.893  31.006  59.168  1.00  0.00     0.024 A 
HETATM   20  C   UNL     1       7.842  30.783  58.275  1.00  0.00     0.010 A 
ENDBRANCH  11  14
ENDBRANCH   8  11
ENDBRANCH   5   7
BRANCH   1  21
HETATM   21  C   UNL     1       6.707  24.657  54.983  1.00  0.00     0.029 A 
HETATM   22  C   UNL     1       6.472  24.669  53.599  1.00  0.00     0.081 A 
HETATM   23  C   UNL     1       7.124  23.760  52.757  1.00  0.00     0.039 A 
HETATM   24  C   UNL     1       8.041  22.852  53.286  1.00  0.00     0.026 A 
HETATM   25  C   UNL     1       8.292  22.846  54.655  1.00  0.00     0.035 A 
HETATM   26  C   UNL     1       7.632  23.736  55.503  1.00  0.00     0.040 A 
HETATM   27 CL   UNL     1       9.418  21.722  55.312  1.00  0.00    -0.084 Cl
BRANCH  22  28
HETATM   28  O   UNL     1       5.528  25.496  53.047  1.00  0.00    -0.355 OA
HETATM   29  C   UNL     1       6.120  26.319  52.040  1.00  0.00     0.210 C 
ENDBRANCH  22  28
ENDBRANCH   1  21
TORSDOF 5
ENDMDL
MODEL 10
REMARK VINA RESULT:      -8.1      2.782      9.310
REMARK  5 active torsions:
REMARK  status: ('A' for Active; 'I' for Inactive)
REMARK    1  A    between atoms: O_2  and  C_3 
REMARK    2  A    between atoms: C_4  and  C_5 
REMARK    3  A    between atoms: C_9  and  N_10 
REMARK       I    between atoms: N_10  and  C_11 
REMARK    4  A    between atoms: C_11  and  C_12 
REMARK    5  A    between atoms: C_12  and  C_13 
ROOT
HETATM    1  C   UNL     1       7.383  27.941  56.547  1.00  0.00     0.093 A 
HETATM    2  N   UNL     1       8.369  28.358  57.355  1.00  0.00    -0.172 NA
HETATM    3  N   UNL     1       7.827  29.379  58.043  1.00  0.00    -0.262 N 
HETATM    4  H   UNL     1       8.385  29.872  58.736  1.00  0.00     0.191 HD
HETATM    5  C   UNL     1       6.509  29.602  57.745  1.00  0.00     0.126 A 
HETATM    6  C   UNL     1       6.200  28.707  56.752  1.00  0.00     0.084 A 
ENDROOT
BRANCH   5   7
HETATM    7  N   UNL     1       5.708  30.527  58.379  1.00  0.00    -0.311 N 
HETATM    8  C   UNL     1       6.197  31.748  58.798  1.00  0.00     0.236 C 
HETATM    9  O   UNL     1       7.315  32.194  58.561  1.00  0.00    -0.272 OA
HETATM   10  H   UNL     1       4.768  30.256  58.636  1.00  0.00     0.170 HD
BRANCH   8  11
HETATM   11  C   UNL     1       5.230  32.517  59.665  1.00  0.00     0.068 A 
HETATM   12  C   UNL     1       4.413  33.620  58.997  1.00  0.00     0.026 A 
HETATM   13  C   UNL     1       3.736  32.349  59.400  1.00  0.00     0.026 A 
BRANCH  11  14
HETATM   14  C   UNL     1       5.706  32.766  61.094  1.00  0.00    -0.040 A 
HETATM   15  C   UNL     1       7.079  32.873  61.384  1.00  0.00     0.010 A 
HETATM   16  C   UNL     1       7.539  33.049  62.693  1.00  0.00     0.024 A 
HETATM   17  C   UNL     1       6.626  33.119  63.739  1.00  0.00     0.034 A 
HETATM   18 CL   UNL     1       7.184  33.323  65.353  1.00  0.00    -0.084 Cl
HETATM   19  C   UNL     1       5.261  33.017  63.486  1.00  0.00     0.024 A 
HETATM   20  C   UNL     1       4.809  32.842  62.175  1.00  0.00     0.010 A 
ENDBRANCH  11  14
ENDBRANCH   8  11
ENDBRANCH   5   7
BRANCH   1  21
HETATM   21  C   UNL     1       7.533  26.789  55.660  1.00  0.00     0.029 A 
HETATM   22  C   UNL     1       7.477  26.895  54.261  1.00  0.00     0.081 A 
HETATM   23  C   UNL     1       7.603  25.758  53.453  1.00  0.00     0.039 A 
HETATM   24  C   UNL     1       7.820  24.509  54.035  1.00  0.00     0.026 A 
HETATM   25  C   UNL     1       7.894  24.399  55.421  1.00  0.00     0.035 A 
HETATM   26  C   UNL     1       7.750  25.524  56.233  1.00  0.00     0.040 A 
HETATM   27 CL   UNL     1       8.154  22.858  56.142  1.00  0.00    -0.084 Cl
BRANCH  22  28
HETATM   28  O   UNL     1       7.197  28.091  53.651  1.00  0.00    -0.355 OA
HETATM   29  C   UNL     1       6.155  27.923  52.688  1.00  0.00     0.210 C 
ENDBRANCH  22  28
ENDBRANCH   1  21
TORSDOF 5
ENDMDL
