MODEL 1
REMARK VINA RESULT:      -8.5      0.000      0.000
REMARK  5 active torsions:
REMARK  status: ('A' for Active; 'I' for Inactive)
REMARK    1  A    between atoms: C_8  and  N_9 
REMARK       I    between atoms: N_9  and  C_10 
REMARK    2  A    between atoms: C_10  and  C_11 
REMARK    3  A    between atoms: C_11  and  N_12 
REMARK    4  A    between atoms: N_12  and  C_13 
REMARK    5  A    between atoms: C_13  and  C_14 
ROOT
HETATM    1  C   UNL     1       6.890  27.150  56.981  1.00  0.00     0.372 C 
ENDROOT
BRANCH   1   2
HETATM    2  C   UNL     1       7.456  28.582  56.907  1.00  0.00     0.250 C 
HETATM    3  N   UNL     1       8.180  28.916  58.036  1.00  0.00    -0.322 N 
HETATM    4  H   UNL     1       8.318  28.196  58.732  1.00  0.00     0.169 HD
HETATM    5  O   UNL     1       7.315  29.270  55.901  1.00  0.00    -0.271 OA
BRANCH   3   6
HETATM    6  C   UNL     1       8.829  30.115  58.286  1.00  0.00     0.085 A 
HETATM    7  C   UNL     1      10.086  30.377  57.771  1.00  0.00     0.052 A 
HETATM    8  C   UNL     1      11.001  29.591  56.908  1.00  0.00     0.072 C 
HETATM    9  N   UNL     1      10.415  31.628  58.203  1.00  0.00    -0.280 N 
HETATM   10  H   UNL     1      11.261  32.157  58.016  1.00  0.00     0.189 HD
HETATM   11  N   UNL     1       9.481  32.200  58.967  1.00  0.00    -0.177 NA
HETATM   12  C   UNL     1       8.501  31.283  59.035  1.00  0.00     0.079 A 
HETATM   13  C   UNL     1       7.311  31.602  59.864  1.00  0.00     0.075 C 
ENDBRANCH   3   6
ENDBRANCH   1   2
BRANCH   1  14
HETATM   14  N   UNL     1       7.713  26.248  56.171  1.00  0.00     0.101 N 
HETATM   15  H   UNL     1       7.952  25.428  56.741  1.00  0.00     0.317 HD
BRANCH  14  16
HETATM   16  C   UNL     1       7.091  25.815  54.912  1.00  0.00     0.254 C 
HETATM   17  C   UNL     1       5.563  25.956  54.904  1.00  0.00     0.048 C 
BRANCH  16  18
HETATM   18  C   UNL     1       7.451  24.368  54.594  1.00  0.00     0.035 A 
HETATM   19  C   UNL     1       7.796  23.935  53.302  1.00  0.00     0.045 A 
HETATM   20 CL   UNL     1       7.849  25.010  51.947  1.00  0.00    -0.084 Cl
HETATM   21  C   UNL     1       8.083  22.586  53.045  1.00  0.00     0.024 A 
HETATM   22  C   UNL     1       8.026  21.642  54.068  1.00  0.00     0.005 A 
HETATM   23  C   UNL     1       7.669  22.045  55.348  1.00  0.00     0.043 A 
HETATM   24  C   UNL     1       7.378  23.385  55.596  1.00  0.00     0.126 A 
HETATM   25  F   UNL     1       6.994  23.719  56.837  1.00  0.00    -0.205 F 
ENDBRANCH  16  18
ENDBRANCH  14  16
ENDBRANCH   1  14
TORSDOF 5
ENDMDL
MODEL 2
REMARK VINA RESULT:      -8.4      1.704      1.918
REMARK  5 active torsions:
REMARK  status: ('A' for Active; 'I' for Inactive)
REMARK    1  A    between atoms: C_8  and  N_9 
REMARK       I    between atoms: N_9  and  C_10 
REMARK    2  A    between atoms: C_10  and  C_11 
REMARK    3  A    between atoms: C_11  and  N_12 
REMARK    4  A    between atoms: N_12  and  C_13 
REMARK    5  A    between atoms: C_13  and  C_14 
ROOT
HETATM    1  C   UNL     1       6.239  27.746  57.106  1.00  0.00     0.372 C 
ENDROOT
BRANCH   1   2
HETATM    2  C   UNL     1       6.933  29.122  57.093  1.00  0.00     0.250 C 
HETATM    3  N   UNL     1       7.860  29.248  58.111  1.00  0.00    -0.322 N 
HETATM    4  H   UNL     1       8.032  28.437  58.689  1.00  0.00     0.169 HD
HETATM    5  O   UNL     1       6.705  29.941  56.209  1.00  0.00    -0.271 OA
BRANCH   3   6
HETATM    6  C   UNL     1       8.664  30.347  58.376  1.00  0.00     0.085 A 
HETATM    7  C   UNL     1       9.934  30.459  57.838  1.00  0.00     0.052 A 
HETATM    8  C   UNL     1      10.722  29.587  56.935  1.00  0.00     0.072 C 
HETATM    9  N   UNL     1      10.429  31.645  58.294  1.00  0.00    -0.280 N 
HETATM   10  H   UNL     1      11.333  32.066  58.101  1.00  0.00     0.189 HD
HETATM   11  N   UNL     1       9.592  32.310  59.093  1.00  0.00    -0.177 NA
HETATM   12  C   UNL     1       8.504  31.526  59.161  1.00  0.00     0.079 A 
HETATM   13  C   UNL     1       7.381  31.972  60.025  1.00  0.00     0.075 C 
ENDBRANCH   3   6
ENDBRANCH   1   2
BRANCH   1  14
HETATM   14  N   UNL     1       6.711  26.941  55.976  1.00  0.00     0.101 N 
HETATM   15  H   UNL     1       7.708  26.739  56.116  1.00  0.00     0.317 HD
BRANCH  14  16
HETATM   16  C   UNL     1       5.973  25.688  55.765  1.00  0.00     0.254 C 
HETATM   17  C   UNL     1       5.270  25.172  57.028  1.00  0.00     0.048 C 
BRANCH  16  18
HETATM   18  C   UNL     1       6.894  24.594  55.236  1.00  0.00     0.035 A 
HETATM   19  C   UNL     1       8.057  24.184  55.911  1.00  0.00     0.045 A 
HETATM   20 CL   UNL     1       8.551  24.883  57.415  1.00  0.00    -0.084 Cl
HETATM   21  C   UNL     1       8.897  23.200  55.370  1.00  0.00     0.024 A 
HETATM   22  C   UNL     1       8.599  22.609  54.143  1.00  0.00     0.005 A 
HETATM   23  C   UNL     1       7.465  23.013  53.450  1.00  0.00     0.043 A 
HETATM   24  C   UNL     1       6.637  23.996  53.990  1.00  0.00     0.126 A 
HETATM   25  F   UNL     1       5.579  24.386  53.263  1.00  0.00    -0.205 F 
ENDBRANCH  16  18
ENDBRANCH  14  16
ENDBRANCH   1  14
TORSDOF 5
ENDMDL
MODEL 3
REMARK VINA RESULT:      -8.2      4.012      5.139
REMARK  5 active torsions:
REMARK  status: ('A' for Active; 'I' for Inactive)
REMARK    1  A    between atoms: C_8  and  N_9 
REMARK       I    between atoms: N_9  and  C_10 
REMARK    2  A    between atoms: C_10  and  C_11 
REMARK    3  A    between atoms: C_11  and  N_12 
REMARK    4  A    between atoms: N_12  and  C_13 
REMARK    5  A    between atoms: C_13  and  C_14 
ROOT
HETATM    1  C   UNL     1       6.941  26.007  57.180  1.00  0.00     0.372 C 
ENDROOT
BRANCH   1   2
HETATM    2  C   UNL     1       6.524  26.984  56.064  1.00  0.00     0.250 C 
HETATM    3  N   UNL     1       5.398  26.555  55.388  1.00  0.00    -0.322 N 
HETATM    4  H   UNL     1       4.942  25.718  55.724  1.00  0.00     0.169 HD
HETATM    5  O   UNL     1       7.117  28.045  55.894  1.00  0.00    -0.271 OA
BRANCH   3   6
HETATM    6  C   UNL     1       4.756  27.200  54.342  1.00  0.00     0.085 A 
HETATM    7  C   UNL     1       4.610  26.600  53.104  1.00  0.00     0.052 A 
HETATM    8  C   UNL     1       5.014  25.275  52.577  1.00  0.00     0.072 C 
HETATM    9  N   UNL     1       3.939  27.500  52.329  1.00  0.00    -0.280 N 
HETATM   10  H   UNL     1       3.647  27.403  51.361  1.00  0.00     0.189 HD
HETATM   11  N   UNL     1       3.646  28.641  52.955  1.00  0.00    -0.177 NA
HETATM   12  C   UNL     1       4.145  28.480  54.192  1.00  0.00     0.079 A 
HETATM   13  C   UNL     1       4.019  29.613  55.143  1.00  0.00     0.075 C 
ENDBRANCH   3   6
ENDBRANCH   1   2
BRANCH   1  14
HETATM   14  N   UNL     1       6.625  24.632  56.780  1.00  0.00     0.101 N 
HETATM   15  H   UNL     1       6.165  24.659  55.862  1.00  0.00     0.317 HD
BRANCH  14  16
HETATM   16  C   UNL     1       7.781  23.727  56.732  1.00  0.00     0.254 C 
HETATM   17  C   UNL     1       9.122  24.433  56.971  1.00  0.00     0.048 C 
BRANCH  16  18
HETATM   18  C   UNL     1       7.846  22.994  55.397  1.00  0.00     0.035 A 
HETATM   19  C   UNL     1       7.875  21.592  55.297  1.00  0.00     0.045 A 
HETATM   20 CL   UNL     1       7.836  20.563  56.688  1.00  0.00    -0.084 Cl
HETATM   21  C   UNL     1       7.973  20.958  54.050  1.00  0.00     0.024 A 
HETATM   22  C   UNL     1       8.050  21.708  52.878  1.00  0.00     0.005 A 
HETATM   23  C   UNL     1       8.042  23.094  52.954  1.00  0.00     0.043 A 
HETATM   24  C   UNL     1       7.950  23.718  54.197  1.00  0.00     0.126 A 
HETATM   25  F   UNL     1       7.992  25.060  54.224  1.00  0.00    -0.205 F 
ENDBRANCH  16  18
ENDBRANCH  14  16
ENDBRANCH   1  14
TORSDOF 5
ENDMDL
MODEL 4
REMARK VINA RESULT:      -8.1      1.241      2.190
REMARK  5 active torsions:
REMARK  status: ('A' for Active; 'I' for Inactive)
REMARK    1  A    between atoms: C_8  and  N_9 
REMARK       I    between atoms: N_9  and  C_10 
REMARK    2  A    between atoms: C_10  and  C_11 
REMARK    3  A    between atoms: C_11  and  N_12 
REMARK    4  A    between atoms: N_12  and  C_13 
REMARK    5  A    between atoms: C_13  and  C_14 
ROOT
HETATM    1  C   UNL     1       5.958  28.030  57.109  1.00  0.00     0.372 C 
ENDROOT
BRANCH   1   2
HETATM    2  C   UNL     1       6.728  29.364  57.164  1.00  0.00     0.250 C 
HETATM    3  N   UNL     1       7.759  29.334  58.084  1.00  0.00    -0.322 N 
HETATM    4  H   UNL     1       7.939  28.458  58.554  1.00  0.00     0.169 HD
HETATM    5  O   UNL     1       6.461  30.285  56.398  1.00  0.00    -0.271 OA
BRANCH   3   6
HETATM    6  C   UNL     1       8.649  30.357  58.372  1.00  0.00     0.085 A 
HETATM    7  C   UNL     1       8.308  31.391  59.226  1.00  0.00     0.052 A 
HETATM    8  C   UNL     1       7.080  31.691  59.999  1.00  0.00     0.072 C 
HETATM    9  N   UNL     1       9.403  32.203  59.286  1.00  0.00    -0.280 N 
HETATM   10  H   UNL     1       9.524  33.058  59.820  1.00  0.00     0.189 HD
HETATM   11  N   UNL     1      10.425  31.790  58.534  1.00  0.00    -0.177 NA
HETATM   12  C   UNL     1       9.980  30.660  57.959  1.00  0.00     0.079 A 
HETATM   13  C   UNL     1      10.884  29.964  57.009  1.00  0.00     0.075 C 
ENDBRANCH   3   6
ENDBRANCH   1   2
BRANCH   1  14
HETATM   14  N   UNL     1       6.579  27.138  56.126  1.00  0.00     0.101 N 
HETATM   15  H   UNL     1       7.505  26.864  56.476  1.00  0.00     0.317 HD
BRANCH  14  16
HETATM   16  C   UNL     1       5.793  25.938  55.805  1.00  0.00     0.254 C 
HETATM   17  C   UNL     1       5.171  25.266  57.037  1.00  0.00     0.048 C 
BRANCH  16  18
HETATM   18  C   UNL     1       6.642  24.911  55.064  1.00  0.00     0.035 A 
HETATM   19  C   UNL     1       6.295  24.406  53.799  1.00  0.00     0.045 A 
HETATM   20 CL   UNL     1       4.867  24.909  52.959  1.00  0.00    -0.084 Cl
HETATM   21  C   UNL     1       7.084  23.433  53.168  1.00  0.00     0.024 A 
HETATM   22  C   UNL     1       8.231  22.940  53.787  1.00  0.00     0.005 A 
HETATM   23  C   UNL     1       8.582  23.412  55.045  1.00  0.00     0.043 A 
HETATM   24  C   UNL     1       7.790  24.374  55.670  1.00  0.00     0.126 A 
HETATM   25  F   UNL     1       8.144  24.765  56.904  1.00  0.00    -0.205 F 
ENDBRANCH  16  18
ENDBRANCH  14  16
ENDBRANCH   1  14
TORSDOF 5
ENDMDL
MODEL 5
REMARK VINA RESULT:      -7.7      2.771      3.987
REMARK  5 active torsions:
REMARK  status: ('A' for Active; 'I' for Inactive)
REMARK    1  A    between atoms: C_8  and  N_9 
REMARK       I    between atoms: N_9  and  C_10 
REMARK    2  A    between atoms: C_10  and  C_11 
REMARK    3  A    between atoms: C_11  and  N_12 
REMARK    4  A    between atoms: N_12  and  C_13 
REMARK    5  A    between atoms: C_13  and  C_14 
ROOT
HETATM    1  C   UNL     1       5.647  25.605  53.406  1.00  0.00     0.372 C 
ENDROOT
BRANCH   1   2
HETATM    2  C   UNL     1       6.067  26.914  54.103  1.00  0.00     0.250 C 
HETATM    3  N   UNL     1       5.830  26.880  55.464  1.00  0.00    -0.322 N 
HETATM    4  H   UNL     1       5.486  26.014  55.857  1.00  0.00     0.169 HD
HETATM    5  O   UNL     1       6.617  27.817  53.480  1.00  0.00    -0.271 OA
BRANCH   3   6
HETATM    6  C   UNL     1       6.101  27.882  56.383  1.00  0.00     0.085 A 
HETATM    7  C   UNL     1       5.155  28.838  56.708  1.00  0.00     0.052 A 
HETATM    8  C   UNL     1       3.760  29.062  56.262  1.00  0.00     0.072 C 
HETATM    9  N   UNL     1       5.747  29.651  57.630  1.00  0.00    -0.280 N 
HETATM   10  H   UNL     1       5.353  30.458  58.102  1.00  0.00     0.189 HD
HETATM   11  N   UNL     1       7.003  29.310  57.925  1.00  0.00    -0.177 NA
HETATM   12  C   UNL     1       7.242  28.229  57.164  1.00  0.00     0.079 A 
HETATM   13  C   UNL     1       8.595  27.621  57.228  1.00  0.00     0.075 C 
ENDBRANCH   3   6
ENDBRANCH   1   2
BRANCH   1  14
HETATM   14  N   UNL     1       6.078  24.455  54.207  1.00  0.00     0.101 N 
HETATM   15  H   UNL     1       5.565  23.625  53.885  1.00  0.00     0.317 HD
BRANCH  14  16
HETATM   16  C   UNL     1       7.524  24.192  54.172  1.00  0.00     0.254 C 
HETATM   17  C   UNL     1       8.130  24.290  52.765  1.00  0.00     0.048 C 
BRANCH  16  18
HETATM   18  C   UNL     1       7.842  22.816  54.747  1.00  0.00     0.035 A 
HETATM   19  C   UNL     1       8.281  22.625  56.068  1.00  0.00     0.045 A 
HETATM   20 CL   UNL     1       8.496  23.941  57.173  1.00  0.00    -0.084 Cl
HETATM   21  C   UNL     1       8.600  21.346  56.546  1.00  0.00     0.024 A 
HETATM   22  C   UNL     1       8.494  20.232  55.716  1.00  0.00     0.005 A 
HETATM   23  C   UNL     1       8.081  20.400  54.400  1.00  0.00     0.043 A 
HETATM   24  C   UNL     1       7.772  21.675  53.929  1.00  0.00     0.126 A 
HETATM   25  F   UNL     1       7.422  21.793  52.639  1.00  0.00    -0.205 F 
ENDBRANCH  16  18
ENDBRANCH  14  16
ENDBRANCH   1  14
TORSDOF 5
ENDMDL
MODEL 6
REMARK VINA RESULT:      -7.6      5.081      7.562
REMARK  5 active torsions:
REMARK  status: ('A' for Active; 'I' for Inactive)
REMARK    1  A    between atoms: C_8  and  N_9 
REMARK       I    between atoms: N_9  and  C_10 
REMARK    2  A    between atoms: C_10  and  C_11 
REMARK    3  A    between atoms: C_11  and  N_12 
REMARK    4  A    between atoms: N_12  and  C_13 
REMARK    5  A    between atoms: C_13  and  C_14 
ROOT
HETATM    1  C   UNL     1       4.251  27.522  53.178  1.00  0.00     0.372 C 
ENDROOT
BRANCH   1   2
HETATM    2  C   UNL     1       3.977  27.952  51.723  1.00  0.00     0.250 C 
HETATM    3  N   UNL     1       4.671  27.178  50.812  1.00  0.00    -0.322 N 
HETATM    4  H   UNL     1       5.207  26.400  51.172  1.00  0.00     0.169 HD
HETATM    5  O   UNL     1       3.166  28.834  51.463  1.00  0.00    -0.271 OA
BRANCH   3   6
HETATM    6  C   UNL     1       4.642  27.290  49.430  1.00  0.00     0.085 A 
HETATM    7  C   UNL     1       5.206  28.374  48.782  1.00  0.00     0.052 A 
HETATM    8  C   UNL     1       5.926  29.574  49.272  1.00  0.00     0.072 C 
HETATM    9  N   UNL     1       5.004  28.160  47.450  1.00  0.00    -0.280 N 
HETATM   10  H   UNL     1       5.288  28.742  46.668  1.00  0.00     0.189 HD
HETATM   11  N   UNL     1       4.345  27.032  47.177  1.00  0.00    -0.177 NA
HETATM   12  C   UNL     1       4.107  26.486  48.381  1.00  0.00     0.079 A 
HETATM   13  C   UNL     1       3.336  25.218  48.427  1.00  0.00     0.075 C 
ENDBRANCH   3   6
ENDBRANCH   1   2
BRANCH   1  14
HETATM   14  N   UNL     1       4.952  26.235  53.193  1.00  0.00     0.101 N 
HETATM   15  H   UNL     1       5.192  25.986  52.226  1.00  0.00     0.317 HD
BRANCH  14  16
HETATM   16  C   UNL     1       6.158  26.204  54.031  1.00  0.00     0.254 C 
HETATM   17  C   UNL     1       7.239  27.198  53.585  1.00  0.00     0.048 C 
BRANCH  16  18
HETATM   18  C   UNL     1       6.764  24.805  54.064  1.00  0.00     0.035 A 
HETATM   19  C   UNL     1       6.941  24.079  55.254  1.00  0.00     0.045 A 
HETATM   20 CL   UNL     1       6.480  24.706  56.800  1.00  0.00    -0.084 Cl
HETATM   21  C   UNL     1       7.537  22.809  55.245  1.00  0.00     0.024 A 
HETATM   22  C   UNL     1       7.976  22.241  54.050  1.00  0.00     0.005 A 
HETATM   23  C   UNL     1       7.828  22.949  52.864  1.00  0.00     0.043 A 
HETATM   24  C   UNL     1       7.241  24.213  52.881  1.00  0.00     0.126 A 
HETATM   25  F   UNL     1       7.162  24.878  51.718  1.00  0.00    -0.205 F 
ENDBRANCH  16  18
ENDBRANCH  14  16
ENDBRANCH   1  14
TORSDOF 5
ENDMDL
MODEL 7
REMARK VINA RESULT:      -7.5      4.312      5.338
REMARK  5 active torsions:
REMARK  status: ('A' for Active; 'I' for Inactive)
REMARK    1  A    between atoms: C_8  and  N_9 
REMARK       I    between atoms: N_9  and  C_10 
REMARK    2  A    between atoms: C_10  and  C_11 
REMARK    3  A    between atoms: C_11  and  N_12 
REMARK    4  A    between atoms: N_12  and  C_13 
REMARK    5  A    between atoms: C_13  and  C_14 
ROOT
HETATM    1  C   UNL     1       5.585  25.151  53.129  1.00  0.00     0.372 C 
ENDROOT
BRANCH   1   2
HETATM    2  C   UNL     1       5.552  26.676  53.346  1.00  0.00     0.250 C 
HETATM    3  N   UNL     1       4.271  27.143  53.572  1.00  0.00    -0.322 N 
HETATM    4  H   UNL     1       3.530  26.459  53.639  1.00  0.00     0.169 HD
HETATM    5  O   UNL     1       6.586  27.335  53.383  1.00  0.00    -0.271 OA
BRANCH   3   6
HETATM    6  C   UNL     1       3.893  28.454  53.815  1.00  0.00     0.085 A 
HETATM    7  C   UNL     1       3.294  29.226  52.835  1.00  0.00     0.052 A 
HETATM    8  C   UNL     1       2.910  28.945  51.431  1.00  0.00     0.072 C 
HETATM    9  N   UNL     1       3.055  30.441  53.409  1.00  0.00    -0.280 N 
HETATM   10  H   UNL     1       2.620  31.258  52.994  1.00  0.00     0.189 HD
HETATM   11  N   UNL     1       3.458  30.528  54.678  1.00  0.00    -0.177 NA
HETATM   12  C   UNL     1       3.981  29.319  54.945  1.00  0.00     0.079 A 
HETATM   13  C   UNL     1       4.569  29.101  56.291  1.00  0.00     0.075 C 
ENDBRANCH   3   6
ENDBRANCH   1   2
BRANCH   1  14
HETATM   14  N   UNL     1       6.136  24.490  54.316  1.00  0.00     0.101 N 
HETATM   15  H   UNL     1       5.598  23.632  54.488  1.00  0.00     0.317 HD
BRANCH  14  16
HETATM   16  C   UNL     1       7.568  24.173  54.232  1.00  0.00     0.254 C 
HETATM   17  C   UNL     1       8.120  24.208  52.800  1.00  0.00     0.048 C 
BRANCH  16  18
HETATM   18  C   UNL     1       7.861  22.805  54.836  1.00  0.00     0.035 A 
HETATM   19  C   UNL     1       8.295  22.634  56.162  1.00  0.00     0.045 A 
HETATM   20 CL   UNL     1       8.533  23.967  57.238  1.00  0.00    -0.084 Cl
HETATM   21  C   UNL     1       8.590  21.359  56.667  1.00  0.00     0.024 A 
HETATM   22  C   UNL     1       8.465  20.230  55.859  1.00  0.00     0.005 A 
HETATM   23  C   UNL     1       8.056  20.378  54.540  1.00  0.00     0.043 A 
HETATM   24  C   UNL     1       7.771  21.648  54.042  1.00  0.00     0.126 A 
HETATM   25  F   UNL     1       7.424  21.745  52.749  1.00  0.00    -0.205 F 
ENDBRANCH  16  18
ENDBRANCH  14  16
ENDBRANCH   1  14
TORSDOF 5
ENDMDL
MODEL 8
REMARK VINA RESULT:      -7.5      5.408      7.778
REMARK  5 active torsions:
REMARK  status: ('A' for Active; 'I' for Inactive)
REMARK    1  A    between atoms: C_8  and  N_9 
REMARK       I    between atoms: N_9  and  C_10 
REMARK    2  A    between atoms: C_10  and  C_11 
REMARK    3  A    between atoms: C_11  and  N_12 
REMARK    4  A    between atoms: N_12  and  C_13 
REMARK    5  A    between atoms: C_13  and  C_14 
ROOT
HETATM    1  C   UNL     1       7.359  25.965  52.840  1.00  0.00     0.372 C 
ENDROOT
BRANCH   1   2
HETATM    2  C   UNL     1       7.023  24.726  53.692  1.00  0.00     0.250 C 
HETATM    3  N   UNL     1       8.138  23.950  53.947  1.00  0.00    -0.322 N 
HETATM    4  H   UNL     1       9.031  24.296  53.623  1.00  0.00     0.169 HD
HETATM    5  O   UNL     1       5.891  24.544  54.131  1.00  0.00    -0.271 OA
BRANCH   3   6
HETATM    6  C   UNL     1       8.187  22.779  54.688  1.00  0.00     0.085 A 
HETATM    7  C   UNL     1       8.391  22.800  56.056  1.00  0.00     0.052 A 
HETATM    8  C   UNL     1       8.579  23.904  57.027  1.00  0.00     0.072 C 
HETATM    9  N   UNL     1       8.378  21.495  56.456  1.00  0.00    -0.280 N 
HETATM   10  H   UNL     1       8.489  21.123  57.393  1.00  0.00     0.189 HD
HETATM   11  N   UNL     1       8.194  20.626  55.460  1.00  0.00    -0.177 NA
HETATM   12  C   UNL     1       8.081  21.395  54.364  1.00  0.00     0.079 A 
HETATM   13  C   UNL     1       7.908  20.715  53.055  1.00  0.00     0.075 C 
ENDBRANCH   3   6
ENDBRANCH   1   2
BRANCH   1  14
HETATM   14  N   UNL     1       6.530  25.978  51.631  1.00  0.00     0.101 N 
HETATM   15  H   UNL     1       5.908  25.160  51.656  1.00  0.00     0.317 HD
BRANCH  14  16
HETATM   16  C   UNL     1       5.738  27.201  51.443  1.00  0.00     0.254 C 
HETATM   17  C   UNL     1       4.615  27.368  52.476  1.00  0.00     0.048 C 
BRANCH  16  18
HETATM   18  C   UNL     1       5.129  27.248  50.047  1.00  0.00     0.035 A 
HETATM   19  C   UNL     1       5.195  28.386  49.225  1.00  0.00     0.045 A 
HETATM   20 CL   UNL     1       5.981  29.846  49.722  1.00  0.00    -0.084 Cl
HETATM   21  C   UNL     1       4.588  28.401  47.960  1.00  0.00     0.024 A 
HETATM   22  C   UNL     1       3.898  27.284  47.492  1.00  0.00     0.005 A 
HETATM   23  C   UNL     1       3.804  26.155  48.296  1.00  0.00     0.043 A 
HETATM   24  C   UNL     1       4.404  26.149  49.554  1.00  0.00     0.126 A 
HETATM   25  F   UNL     1       4.248  25.053  50.312  1.00  0.00    -0.205 F 
ENDBRANCH  16  18
ENDBRANCH  14  16
ENDBRANCH   1  14
TORSDOF 5
ENDMDL
MODEL 9
REMARK VINA RESULT:      -7.5      4.166      7.300
REMARK  5 active torsions:
REMARK  status: ('A' for Active; 'I' for Inactive)
REMARK    1  A    between atoms: C_8  and  N_9 
REMARK       I    between atoms: N_9  and  C_10 
REMARK    2  A    between atoms: C_10  and  C_11 
REMARK    3  A    between atoms: C_11  and  N_12 
REMARK    4  A    between atoms: N_12  and  C_13 
REMARK    5  A    between atoms: C_13  and  C_14 
ROOT
HETATM    1  C   UNL     1       5.631  25.135  52.806  1.00  0.00     0.372 C 
ENDROOT
BRANCH   1   2
HETATM    2  C   UNL     1       6.839  24.207  53.040  1.00  0.00     0.250 C 
HETATM    3  N   UNL     1       6.722  23.486  54.214  1.00  0.00    -0.322 N 
HETATM    4  H   UNL     1       5.864  23.584  54.739  1.00  0.00     0.169 HD
HETATM    5  O   UNL     1       7.732  24.103  52.206  1.00  0.00    -0.271 OA
BRANCH   3   6
HETATM    6  C   UNL     1       7.622  22.558  54.716  1.00  0.00     0.085 A 
HETATM    7  C   UNL     1       8.247  22.745  55.936  1.00  0.00     0.052 A 
HETATM    8  C   UNL     1       8.163  23.820  56.952  1.00  0.00     0.072 C 
HETATM    9  N   UNL     1       9.048  21.655  56.117  1.00  0.00    -0.280 N 
HETATM   10  H   UNL     1       9.652  21.442  56.904  1.00  0.00     0.189 HD
HETATM   11  N   UNL     1       9.005  20.779  55.111  1.00  0.00    -0.177 NA
HETATM   12  C   UNL     1       8.139  21.319  54.237  1.00  0.00     0.079 A 
HETATM   13  C   UNL     1       7.899  20.595  52.963  1.00  0.00     0.075 C 
ENDBRANCH   3   6
ENDBRANCH   1   2
BRANCH   1  14
HETATM   14  N   UNL     1       5.205  25.728  54.077  1.00  0.00     0.101 N 
HETATM   15  H   UNL     1       5.752  25.299  54.833  1.00  0.00     0.317 HD
BRANCH  14  16
HETATM   16  C   UNL     1       5.325  27.191  54.141  1.00  0.00     0.254 C 
HETATM   17  C   UNL     1       6.064  27.798  52.941  1.00  0.00     0.048 C 
BRANCH  16  18
HETATM   18  C   UNL     1       6.032  27.625  55.421  1.00  0.00     0.035 A 
HETATM   19  C   UNL     1       5.448  28.497  56.356  1.00  0.00     0.045 A 
HETATM   20 CL   UNL     1       3.863  29.158  56.143  1.00  0.00    -0.084 Cl
HETATM   21  C   UNL     1       6.147  28.901  57.502  1.00  0.00     0.024 A 
HETATM   22  C   UNL     1       7.445  28.450  57.737  1.00  0.00     0.005 A 
HETATM   23  C   UNL     1       8.048  27.603  56.816  1.00  0.00     0.043 A 
HETATM   24  C   UNL     1       7.350  27.210  55.676  1.00  0.00     0.126 A 
HETATM   25  F   UNL     1       7.991  26.428  54.793  1.00  0.00    -0.205 F 
ENDBRANCH  16  18
ENDBRANCH  14  16
ENDBRANCH   1  14
TORSDOF 5
ENDMDL
MODEL 10
REMARK VINA RESULT:      -7.5      3.318      7.280
REMARK  5 active torsions:
REMARK  status: ('A' for Active; 'I' for Inactive)
REMARK    1  A    between atoms: C_8  and  N_9 
REMARK       I    between atoms: N_9  and  C_10 
REMARK    2  A    between atoms: C_10  and  C_11 
REMARK    3  A    between atoms: C_11  and  N_12 
REMARK    4  A    between atoms: N_12  and  C_13 
REMARK    5  A    between atoms: C_13  and  C_14 
ROOT
HETATM    1  C   UNL     1       5.619  27.314  56.352  1.00  0.00     0.372 C 
ENDROOT
BRANCH   1   2
HETATM    2  C   UNL     1       5.974  25.855  56.007  1.00  0.00     0.250 C 
HETATM    3  N   UNL     1       7.125  25.764  55.247  1.00  0.00    -0.322 N 
HETATM    4  H   UNL     1       7.632  26.618  55.064  1.00  0.00     0.169 HD
HETATM    5  O   UNL     1       5.316  24.919  56.450  1.00  0.00    -0.271 OA
BRANCH   3   6
HETATM    6  C   UNL     1       7.725  24.605  54.779  1.00  0.00     0.085 A 
HETATM    7  C   UNL     1       7.866  24.361  53.424  1.00  0.00     0.052 A 
HETATM    8  C   UNL     1       7.493  25.141  52.221  1.00  0.00     0.072 C 
HETATM    9  N   UNL     1       8.493  23.153  53.324  1.00  0.00    -0.280 N 
HETATM   10  H   UNL     1       8.768  22.655  52.484  1.00  0.00     0.189 HD
HETATM   11  N   UNL     1       8.762  22.585  54.501  1.00  0.00    -0.177 NA
HETATM   12  C   UNL     1       8.293  23.458  55.408  1.00  0.00     0.079 A 
HETATM   13  C   UNL     1       8.402  23.092  56.843  1.00  0.00     0.075 C 
ENDBRANCH   3   6
ENDBRANCH   1   2
BRANCH   1  14
HETATM   14  N   UNL     1       6.572  27.839  57.334  1.00  0.00     0.101 N 
HETATM   15  H   UNL     1       7.490  27.414  57.154  1.00  0.00     0.317 HD
BRANCH  14  16
HETATM   16  C   UNL     1       6.695  29.303  57.347  1.00  0.00     0.254 C 
HETATM   17  C   UNL     1       6.035  29.984  56.141  1.00  0.00     0.048 C 
BRANCH  16  18
HETATM   18  C   UNL     1       8.159  29.728  57.408  1.00  0.00     0.035 A 
HETATM   19  C   UNL     1       8.671  30.554  58.422  1.00  0.00     0.045 A 
HETATM   20 CL   UNL     1       7.685  31.167  59.706  1.00  0.00    -0.084 Cl
HETATM   21  C   UNL     1      10.016  30.953  58.420  1.00  0.00     0.024 A 
HETATM   22  C   UNL     1      10.875  30.540  57.403  1.00  0.00     0.005 A 
HETATM   23  C   UNL     1      10.386  29.738  56.380  1.00  0.00     0.043 A 
HETATM   24  C   UNL     1       9.047  29.351  56.385  1.00  0.00     0.126 A 
HETATM   25  F   UNL     1       8.608  28.615  55.352  1.00  0.00    -0.205 F 
ENDBRANCH  16  18
ENDBRANCH  14  16
ENDBRANCH   1  14
TORSDOF 5
ENDMDL
