MODEL 1
REMARK VINA RESULT:     -11.5      0.000      0.000
REMARK  6 active torsions:
REMARK  status: ('A' for Active; 'I' for Inactive)
REMARK    1  A    between atoms: C_4  and  C_5 
REMARK    2  A    between atoms: N_7  and  C_8 
REMARK    3  A    between atoms: C_19  and  N_20 
REMARK       I    between atoms: N_20  and  C_21 
REMARK    4  A    between atoms: C_21  and  C_22 
REMARK    5  A    between atoms: C_25  and  S_26 
REMARK    6  A    between atoms: S_26  and  N_27 
ROOT
HETATM    1  C   UNL     1       7.325  23.627  54.050  1.00  0.00     0.115 A 
HETATM    2  N   UNL     1       6.596  24.196  53.082  1.00  0.00    -0.148 NA
HETATM    3  N   UNL     1       6.436  25.488  53.507  1.00  0.00    -0.044 N 
HETATM    4  C   UNL     1       7.074  25.733  54.714  1.00  0.00     0.152 A 
HETATM    5  C   UNL     1       7.629  24.528  55.088  1.00  0.00     0.087 A 
ENDROOT
BRANCH   4   6
HETATM    6  N   UNL     1       7.099  26.986  55.318  1.00  0.00    -0.307 N 
HETATM    7  C   UNL     1       6.385  27.261  56.470  1.00  0.00     0.257 C 
HETATM    8  O   UNL     1       5.522  26.548  56.968  1.00  0.00    -0.267 OA
HETATM    9  H   UNL     1       7.628  27.722  54.853  1.00  0.00     0.170 HD
BRANCH   7  10
HETATM   10  C   UNL     1       6.703  28.552  57.141  1.00  0.00     0.032 A 
HETATM   11  C   UNL     1       7.861  28.709  57.917  1.00  0.00     0.018 A 
HETATM   12  C   UNL     1       8.043  29.874  58.670  1.00  0.00     0.026 A 
HETATM   13  C   UNL     1       7.070  30.880  58.639  1.00  0.00     0.079 A 
HETATM   14  C   UNL     1       5.925  30.742  57.849  1.00  0.00     0.026 A 
HETATM   15  C   UNL     1       5.744  29.575  57.103  1.00  0.00     0.018 A 
BRANCH  13  16
HETATM   16  S   UNL     1       7.217  32.263  59.750  1.00  0.00     0.260 S 
HETATM   17  O   UNL     1       8.606  32.668  59.785  1.00  0.00    -0.200 OA
HETATM   18  O   UNL     1       6.179  33.202  59.379  1.00  0.00    -0.200 OA
BRANCH  16  19
HETATM   19  N   UNL     1       6.813  31.596  61.265  1.00  0.00    -0.307 N 
HETATM   20  C   UNL     1       7.921  31.162  62.154  1.00  0.00     0.135 C 
HETATM   21  C   UNL     1       8.497  32.315  62.971  1.00  0.00     0.021 C 
HETATM   22  C   UNL     1       7.411  33.093  63.709  1.00  0.00     0.003 C 
HETATM   23  C   UNL     1       6.294  33.514  62.760  1.00  0.00     0.021 C 
HETATM   24  C   UNL     1       5.741  32.310  62.007  1.00  0.00     0.135 C 
ENDBRANCH  16  19
ENDBRANCH  13  16
ENDBRANCH   7  10
ENDBRANCH   4   6
BRANCH   3  25
HETATM   25  C   UNL     1       5.664  26.374  52.730  1.00  0.00     0.732 A 
HETATM   26  N   UNL     1       5.056  27.412  53.215  1.00  0.00    -0.067 NA
HETATM   27  C   UNL     1       4.310  28.148  52.317  1.00  0.00     0.065 A 
HETATM   28  C   UNL     1       4.196  27.856  51.006  1.00  0.00     0.036 A 
HETATM   29  C   UNL     1       3.592  29.339  52.912  1.00  0.00     0.060 C 
HETATM   30  C   UNL     1       3.348  28.623  50.033  1.00  0.00     0.046 C 
HETATM   31  C   UNL     1       4.933  26.680  50.485  1.00  0.00     0.268 A 
HETATM   32  C   UNL     1       2.368  29.572  50.723  1.00  0.00     0.005 C 
HETATM   33  C   UNL     1       3.044  30.316  51.868  1.00  0.00     0.006 C 
HETATM   34  O   UNL     1       4.905  26.356  49.305  1.00  0.00    -0.267 OA
HETATM   35  N   UNL     1       5.636  25.990  51.419  1.00  0.00    -0.152 N 
HETATM   36  H   UNL     1       6.152  25.162  51.135  1.00  0.00     0.188 HD
ENDBRANCH   3  25
BRANCH   1  37
HETATM   37  C   UNL     1       7.765  22.202  54.004  1.00  0.00     0.105 A 
HETATM   38  O   UNL     1       7.998  21.429  55.109  1.00  0.00    -0.320 OA
HETATM   39  C   UNL     1       8.389  20.205  54.672  1.00  0.00     0.142 A 
HETATM   40  C   UNL     1       8.415  20.168  53.300  1.00  0.00     0.027 A 
HETATM   41  C   UNL     1       8.012  21.456  52.867  1.00  0.00     0.041 A 
ENDBRANCH   1  37
TORSDOF 6
ENDMDL
MODEL 2
REMARK VINA RESULT:     -11.1      3.139     10.215
REMARK  6 active torsions:
REMARK  status: ('A' for Active; 'I' for Inactive)
REMARK    1  A    between atoms: C_4  and  C_5 
REMARK    2  A    between atoms: N_7  and  C_8 
REMARK    3  A    between atoms: C_19  and  N_20 
REMARK       I    between atoms: N_20  and  C_21 
REMARK    4  A    between atoms: C_21  and  C_22 
REMARK    5  A    between atoms: C_25  and  S_26 
REMARK    6  A    between atoms: S_26  and  N_27 
ROOT
HETATM    1  C   UNL     1       7.684  29.258  57.569  1.00  0.00     0.115 A 
HETATM    2  N   UNL     1       8.010  27.961  57.540  1.00  0.00    -0.148 NA
HETATM    3  N   UNL     1       7.668  27.563  56.276  1.00  0.00    -0.044 N 
HETATM    4  C   UNL     1       7.155  28.602  55.513  1.00  0.00     0.152 A 
HETATM    5  C   UNL     1       7.135  29.697  56.349  1.00  0.00     0.087 A 
ENDROOT
BRANCH   4   6
HETATM    6  N   UNL     1       6.788  28.454  54.179  1.00  0.00    -0.307 N 
HETATM    7  C   UNL     1       5.491  28.161  53.801  1.00  0.00     0.257 C 
HETATM    8  O   UNL     1       4.587  27.806  54.548  1.00  0.00    -0.267 OA
HETATM    9  H   UNL     1       7.525  28.520  53.478  1.00  0.00     0.170 HD
BRANCH   7  10
HETATM   10  C   UNL     1       5.192  28.283  52.347  1.00  0.00     0.032 A 
HETATM   11  C   UNL     1       4.682  29.470  51.800  1.00  0.00     0.018 A 
HETATM   12  C   UNL     1       4.253  29.496  50.469  1.00  0.00     0.026 A 
HETATM   13  C   UNL     1       4.342  28.338  49.687  1.00  0.00     0.079 A 
HETATM   14  C   UNL     1       4.872  27.159  50.217  1.00  0.00     0.026 A 
HETATM   15  C   UNL     1       5.294  27.134  51.549  1.00  0.00     0.018 A 
BRANCH  13  16
HETATM   16  S   UNL     1       3.613  28.330  48.063  1.00  0.00     0.260 S 
HETATM   17  O   UNL     1       4.055  29.518  47.365  1.00  0.00    -0.200 OA
HETATM   18  O   UNL     1       3.850  27.013  47.512  1.00  0.00    -0.200 OA
BRANCH  16  19
HETATM   19  N   UNL     1       1.946  28.481  48.380  1.00  0.00    -0.307 N 
HETATM   20  C   UNL     1       1.277  29.755  48.010  1.00  0.00     0.135 C 
HETATM   21  C   UNL     1       0.860  29.787  46.542  1.00  0.00     0.021 C 
HETATM   22  C   UNL     1       0.052  28.554  46.148  1.00  0.00     0.003 C 
HETATM   23  C   UNL     1       0.773  27.273  46.551  1.00  0.00     0.021 C 
HETATM   24  C   UNL     1       1.124  27.291  48.034  1.00  0.00     0.135 C 
ENDBRANCH  16  19
ENDBRANCH  13  16
ENDBRANCH   7  10
ENDBRANCH   4   6
BRANCH   3  25
HETATM   25  C   UNL     1       7.840  26.213  55.912  1.00  0.00     0.732 A 
HETATM   26  N   UNL     1       7.658  25.764  54.708  1.00  0.00    -0.067 NA
HETATM   27  C   UNL     1       7.832  24.406  54.540  1.00  0.00     0.065 A 
HETATM   28  C   UNL     1       8.180  23.556  55.526  1.00  0.00     0.036 A 
HETATM   29  C   UNL     1       7.590  23.903  53.133  1.00  0.00     0.060 C 
HETATM   30  C   UNL     1       8.325  22.071  55.361  1.00  0.00     0.046 C 
HETATM   31  C   UNL     1       8.412  24.115  56.880  1.00  0.00     0.268 A 
HETATM   32  C   UNL     1       7.725  21.561  54.049  1.00  0.00     0.005 C 
HETATM   33  C   UNL     1       8.094  22.478  52.889  1.00  0.00     0.006 C 
HETATM   34  O   UNL     1       8.754  23.420  57.829  1.00  0.00    -0.267 OA
HETATM   35  N   UNL     1       8.211  25.453  56.985  1.00  0.00    -0.152 N 
HETATM   36  H   UNL     1       8.336  25.900  57.888  1.00  0.00     0.188 HD
ENDBRANCH   3  25
BRANCH   1  37
HETATM   37  C   UNL     1       7.901  30.125  58.764  1.00  0.00     0.105 A 
HETATM   38  O   UNL     1       8.754  29.824  59.791  1.00  0.00    -0.320 OA
HETATM   39  C   UNL     1       8.675  30.836  60.692  1.00  0.00     0.142 A 
HETATM   40  C   UNL     1       7.784  31.791  60.269  1.00  0.00     0.027 A 
HETATM   41  C   UNL     1       7.284  31.334  59.024  1.00  0.00     0.041 A 
ENDBRANCH   1  37
TORSDOF 6
ENDMDL
MODEL 3
REMARK VINA RESULT:     -10.7      2.923      9.634
REMARK  6 active torsions:
REMARK  status: ('A' for Active; 'I' for Inactive)
REMARK    1  A    between atoms: C_4  and  C_5 
REMARK    2  A    between atoms: N_7  and  C_8 
REMARK    3  A    between atoms: C_19  and  N_20 
REMARK       I    between atoms: N_20  and  C_21 
REMARK    4  A    between atoms: C_21  and  C_22 
REMARK    5  A    between atoms: C_25  and  S_26 
REMARK    6  A    between atoms: S_26  and  N_27 
ROOT
HETATM    1  C   UNL     1       7.813  30.052  58.297  1.00  0.00     0.115 A 
HETATM    2  N   UNL     1       8.240  28.806  58.061  1.00  0.00    -0.148 NA
HETATM    3  N   UNL     1       7.539  28.422  56.950  1.00  0.00    -0.044 N 
HETATM    4  C   UNL     1       6.699  29.422  56.480  1.00  0.00     0.152 A 
HETATM    5  C   UNL     1       6.848  30.471  57.361  1.00  0.00     0.087 A 
ENDROOT
BRANCH   4   6
HETATM    6  N   UNL     1       5.926  29.286  55.332  1.00  0.00    -0.307 N 
HETATM    7  C   UNL     1       4.561  29.509  55.333  1.00  0.00     0.257 C 
HETATM    8  O   UNL     1       3.855  29.643  56.326  1.00  0.00    -0.267 OA
HETATM    9  H   UNL     1       6.394  28.964  54.485  1.00  0.00     0.170 HD
BRANCH   7  10
HETATM   10  C   UNL     1       3.911  29.576  53.995  1.00  0.00     0.032 A 
HETATM   11  C   UNL     1       3.351  28.439  53.394  1.00  0.00     0.018 A 
HETATM   12  C   UNL     1       2.902  28.499  52.070  1.00  0.00     0.026 A 
HETATM   13  C   UNL     1       3.009  29.698  51.355  1.00  0.00     0.079 A 
HETATM   14  C   UNL     1       3.542  30.842  51.954  1.00  0.00     0.026 A 
HETATM   15  C   UNL     1       3.995  30.777  53.274  1.00  0.00     0.018 A 
BRANCH  13  16
HETATM   16  S   UNL     1       2.620  29.708  49.617  1.00  0.00     0.260 S 
HETATM   17  O   UNL     1       1.684  28.634  49.359  1.00  0.00    -0.200 OA
HETATM   18  O   UNL     1       2.293  31.076  49.277  1.00  0.00    -0.200 OA
BRANCH  16  19
HETATM   19  N   UNL     1       4.104  29.316  48.879  1.00  0.00    -0.307 N 
HETATM   20  C   UNL     1       5.036  28.423  49.614  1.00  0.00     0.135 C 
HETATM   21  C   UNL     1       4.704  26.947  49.414  1.00  0.00     0.021 C 
HETATM   22  C   UNL     1       4.573  26.584  47.937  1.00  0.00     0.003 C 
HETATM   23  C   UNL     1       3.613  27.529  47.223  1.00  0.00     0.021 C 
HETATM   24  C   UNL     1       4.024  28.981  47.433  1.00  0.00     0.135 C 
ENDBRANCH  16  19
ENDBRANCH  13  16
ENDBRANCH   7  10
ENDBRANCH   4   6
BRANCH   3  25
HETATM   25  C   UNL     1       7.716  27.120  56.443  1.00  0.00     0.732 A 
HETATM   26  N   UNL     1       7.398  26.769  55.235  1.00  0.00    -0.067 NA
HETATM   27  C   UNL     1       7.602  25.441  54.921  1.00  0.00     0.065 A 
HETATM   28  C   UNL     1       8.106  24.527  55.774  1.00  0.00     0.036 A 
HETATM   29  C   UNL     1       7.202  25.051  53.515  1.00  0.00     0.060 C 
HETATM   30  C   UNL     1       8.286  23.071  55.455  1.00  0.00     0.046 C 
HETATM   31  C   UNL     1       8.487  24.976  57.135  1.00  0.00     0.268 A 
HETATM   32  C   UNL     1       7.544  22.648  54.186  1.00  0.00     0.005 C 
HETATM   33  C   UNL     1       7.726  23.680  53.080  1.00  0.00     0.006 C 
HETATM   34  O   UNL     1       8.974  24.220  57.965  1.00  0.00    -0.267 OA
HETATM   35  N   UNL     1       8.250  26.289  57.387  1.00  0.00    -0.152 N 
HETATM   36  H   UNL     1       8.471  26.661  58.306  1.00  0.00     0.188 HD
ENDBRANCH   3  25
BRANCH   1  37
HETATM   37  C   UNL     1       8.327  30.889  59.421  1.00  0.00     0.105 A 
HETATM   38  O   UNL     1       8.266  32.255  59.458  1.00  0.00    -0.320 OA
HETATM   39  C   UNL     1       8.838  32.655  60.622  1.00  0.00     0.142 A 
HETATM   40  C   UNL     1       9.271  31.570  61.344  1.00  0.00     0.027 A 
HETATM   41  C   UNL     1       8.942  30.429  60.571  1.00  0.00     0.041 A 
ENDBRANCH   1  37
TORSDOF 6
ENDMDL
MODEL 4
REMARK VINA RESULT:     -10.6      3.134      9.378
REMARK  6 active torsions:
REMARK  status: ('A' for Active; 'I' for Inactive)
REMARK    1  A    between atoms: C_4  and  C_5 
REMARK    2  A    between atoms: N_7  and  C_8 
REMARK    3  A    between atoms: C_19  and  N_20 
REMARK       I    between atoms: N_20  and  C_21 
REMARK    4  A    between atoms: C_21  and  C_22 
REMARK    5  A    between atoms: C_25  and  S_26 
REMARK    6  A    between atoms: S_26  and  N_27 
ROOT
HETATM    1  C   UNL     1       7.637  29.773  58.397  1.00  0.00     0.115 A 
HETATM    2  N   UNL     1       8.047  28.524  58.148  1.00  0.00    -0.148 NA
HETATM    3  N   UNL     1       7.467  28.220  56.946  1.00  0.00    -0.044 N 
HETATM    4  C   UNL     1       6.720  29.272  56.435  1.00  0.00     0.152 A 
HETATM    5  C   UNL     1       6.801  30.272  57.380  1.00  0.00     0.087 A 
ENDROOT
BRANCH   4   6
HETATM    6  N   UNL     1       6.082  29.220  55.201  1.00  0.00    -0.307 N 
HETATM    7  C   UNL     1       4.732  28.943  55.082  1.00  0.00     0.257 C 
HETATM    8  O   UNL     1       4.002  28.526  55.974  1.00  0.00    -0.267 OA
HETATM    9  H   UNL     1       6.656  29.344  54.368  1.00  0.00     0.170 HD
BRANCH   7  10
HETATM   10  C   UNL     1       4.136  29.170  53.736  1.00  0.00     0.032 A 
HETATM   11  C   UNL     1       4.189  28.187  52.736  1.00  0.00     0.018 A 
HETATM   12  C   UNL     1       3.774  28.494  51.436  1.00  0.00     0.026 A 
HETATM   13  C   UNL     1       3.302  29.778  51.141  1.00  0.00     0.079 A 
HETATM   14  C   UNL     1       3.223  30.755  52.137  1.00  0.00     0.026 A 
HETATM   15  C   UNL     1       3.644  30.448  53.434  1.00  0.00     0.018 A 
BRANCH  13  16
HETATM   16  S   UNL     1       2.966  30.212  49.447  1.00  0.00     0.260 S 
HETATM   17  O   UNL     1       2.166  29.157  48.863  1.00  0.00    -0.200 OA
HETATM   18  O   UNL     1       2.496  31.581  49.458  1.00  0.00    -0.200 OA
BRANCH  16  19
HETATM   19  N   UNL     1       4.506  30.184  48.721  1.00  0.00    -0.307 N 
HETATM   20  C   UNL     1       4.611  30.563  47.289  1.00  0.00     0.135 C 
HETATM   21  C   UNL     1       4.698  32.074  47.093  1.00  0.00     0.021 C 
HETATM   22  C   UNL     1       5.789  32.702  47.956  1.00  0.00     0.003 C 
HETATM   23  C   UNL     1       5.646  32.282  49.414  1.00  0.00     0.021 C 
HETATM   24  C   UNL     1       5.604  30.764  49.540  1.00  0.00     0.135 C 
ENDBRANCH  16  19
ENDBRANCH  13  16
ENDBRANCH   7  10
ENDBRANCH   4   6
BRANCH   3  25
HETATM   25  C   UNL     1       7.658  26.936  56.398  1.00  0.00     0.732 A 
HETATM   26  N   UNL     1       7.405  26.638  55.161  1.00  0.00    -0.067 NA
HETATM   27  C   UNL     1       7.612  25.321  54.805  1.00  0.00     0.065 A 
HETATM   28  C   UNL     1       8.059  24.367  55.646  1.00  0.00     0.036 A 
HETATM   29  C   UNL     1       7.287  24.993  53.364  1.00  0.00     0.060 C 
HETATM   30  C   UNL     1       8.241  22.923  55.278  1.00  0.00     0.046 C 
HETATM   31  C   UNL     1       8.368  24.757  57.043  1.00  0.00     0.268 A 
HETATM   32  C   UNL     1       7.566  22.561  53.955  1.00  0.00     0.005 C 
HETATM   33  C   UNL     1       7.819  23.634  52.902  1.00  0.00     0.006 C 
HETATM   34  O   UNL     1       8.801  23.962  57.867  1.00  0.00    -0.267 OA
HETATM   35  N   UNL     1       8.130  26.061  57.335  1.00  0.00    -0.152 N 
HETATM   36  H   UNL     1       8.305  26.394  58.279  1.00  0.00     0.188 HD
ENDBRANCH   3  25
BRANCH   1  37
HETATM   37  C   UNL     1       8.045  30.535  59.613  1.00  0.00     0.105 A 
HETATM   38  O   UNL     1       8.931  30.078  60.550  1.00  0.00    -0.320 OA
HETATM   39  C   UNL     1       9.041  31.035  61.506  1.00  0.00     0.142 A 
HETATM   40  C   UNL     1       8.240  32.110  61.205  1.00  0.00     0.027 A 
HETATM   41  C   UNL     1       7.597  31.789  59.984  1.00  0.00     0.041 A 
ENDBRANCH   1  37
TORSDOF 6
ENDMDL
MODEL 5
REMARK VINA RESULT:     -10.5      1.542      2.015
REMARK  6 active torsions:
REMARK  status: ('A' for Active; 'I' for Inactive)
REMARK    1  A    between atoms: C_4  and  C_5 
REMARK    2  A    between atoms: N_7  and  C_8 
REMARK    3  A    between atoms: C_19  and  N_20 
REMARK       I    between atoms: N_20  and  C_21 
REMARK    4  A    between atoms: C_21  and  C_22 
REMARK    5  A    between atoms: C_25  and  S_26 
REMARK    6  A    between atoms: S_26  and  N_27 
ROOT
HETATM    1  C   UNL     1       7.016  23.501  54.259  1.00  0.00     0.115 A 
HETATM    2  N   UNL     1       6.548  24.204  53.220  1.00  0.00    -0.148 NA
HETATM    3  N   UNL     1       6.026  25.332  53.794  1.00  0.00    -0.044 N 
HETATM    4  C   UNL     1       6.184  25.348  55.173  1.00  0.00     0.152 A 
HETATM    5  C   UNL     1       6.799  24.155  55.487  1.00  0.00     0.087 A 
ENDROOT
BRANCH   4   6
HETATM    6  N   UNL     1       5.783  26.415  55.970  1.00  0.00    -0.307 N 
HETATM    7  C   UNL     1       6.665  27.395  56.386  1.00  0.00     0.257 C 
HETATM    8  O   UNL     1       7.886  27.351  56.291  1.00  0.00    -0.267 OA
HETATM    9  H   UNL     1       4.814  26.428  56.286  1.00  0.00     0.170 HD
BRANCH   7  10
HETATM   10  C   UNL     1       6.053  28.599  57.013  1.00  0.00     0.032 A 
HETATM   11  C   UNL     1       4.679  28.860  56.913  1.00  0.00     0.018 A 
HETATM   12  C   UNL     1       4.166  30.081  57.364  1.00  0.00     0.026 A 
HETATM   13  C   UNL     1       5.029  31.034  57.920  1.00  0.00     0.079 A 
HETATM   14  C   UNL     1       6.396  30.772  58.046  1.00  0.00     0.026 A 
HETATM   15  C   UNL     1       6.905  29.554  57.589  1.00  0.00     0.018 A 
BRANCH  13  16
HETATM   16  S   UNL     1       4.399  32.654  58.306  1.00  0.00     0.260 S 
HETATM   17  O   UNL     1       5.487  33.600  58.188  1.00  0.00    -0.200 OA
HETATM   18  O   UNL     1       3.185  32.818  57.535  1.00  0.00    -0.200 OA
BRANCH  16  19
HETATM   19  N   UNL     1       3.971  32.528  59.950  1.00  0.00    -0.307 N 
HETATM   20  C   UNL     1       5.063  32.392  60.948  1.00  0.00     0.135 C 
HETATM   21  C   UNL     1       5.657  33.740  61.347  1.00  0.00     0.021 C 
HETATM   22  C   UNL     1       4.582  34.735  61.774  1.00  0.00     0.003 C 
HETATM   23  C   UNL     1       3.481  34.840  60.725  1.00  0.00     0.021 C 
HETATM   24  C   UNL     1       2.908  33.465  60.402  1.00  0.00     0.135 C 
ENDBRANCH  16  19
ENDBRANCH  13  16
ENDBRANCH   7  10
ENDBRANCH   4   6
BRANCH   3  25
HETATM   25  C   UNL     1       5.398  26.291  52.975  1.00  0.00     0.732 A 
HETATM   26  N   UNL     1       4.815  27.356  53.432  1.00  0.00    -0.067 NA
HETATM   27  C   UNL     1       4.216  28.165  52.490  1.00  0.00     0.065 A 
HETATM   28  C   UNL     1       4.215  27.917  51.165  1.00  0.00     0.036 A 
HETATM   29  C   UNL     1       3.523  29.388  53.050  1.00  0.00     0.060 C 
HETATM   30  C   UNL     1       3.524  28.768  50.139  1.00  0.00     0.046 C 
HETATM   31  C   UNL     1       4.920  26.707  50.681  1.00  0.00     0.268 A 
HETATM   32  C   UNL     1       2.544  29.765  50.760  1.00  0.00     0.005 C 
HETATM   33  C   UNL     1       3.151  30.429  51.990  1.00  0.00     0.006 C 
HETATM   34  O   UNL     1       4.991  26.417  49.493  1.00  0.00    -0.267 OA
HETATM   35  N   UNL     1       5.477  25.945  51.656  1.00  0.00    -0.152 N 
HETATM   36  H   UNL     1       5.962  25.091  51.397  1.00  0.00     0.188 HD
ENDBRANCH   3  25
BRANCH   1  37
HETATM   37  C   UNL     1       7.700  22.184  54.105  1.00  0.00     0.105 A 
HETATM   38  O   UNL     1       8.100  21.395  55.150  1.00  0.00    -0.320 OA
HETATM   39  C   UNL     1       8.688  20.292  54.622  1.00  0.00     0.142 A 
HETATM   40  C   UNL     1       8.679  20.350  53.250  1.00  0.00     0.027 A 
HETATM   41  C   UNL     1       8.041  21.570  52.915  1.00  0.00     0.041 A 
ENDBRANCH   1  37
TORSDOF 6
ENDMDL
MODEL 6
REMARK VINA RESULT:     -10.5      3.657      9.025
REMARK  6 active torsions:
REMARK  status: ('A' for Active; 'I' for Inactive)
REMARK    1  A    between atoms: C_4  and  C_5 
REMARK    2  A    between atoms: N_7  and  C_8 
REMARK    3  A    between atoms: C_19  and  N_20 
REMARK       I    between atoms: N_20  and  C_21 
REMARK    4  A    between atoms: C_21  and  C_22 
REMARK    5  A    between atoms: C_25  and  S_26 
REMARK    6  A    between atoms: S_26  and  N_27 
ROOT
HETATM    1  C   UNL     1       7.746  23.298  54.612  1.00  0.00     0.115 A 
HETATM    2  N   UNL     1       7.442  24.277  55.472  1.00  0.00    -0.148 NA
HETATM    3  N   UNL     1       7.022  25.303  54.668  1.00  0.00    -0.044 N 
HETATM    4  C   UNL     1       7.041  24.965  53.322  1.00  0.00     0.152 A 
HETATM    5  C   UNL     1       7.534  23.679  53.273  1.00  0.00     0.087 A 
ENDROOT
BRANCH   4   6
HETATM    6  N   UNL     1       6.606  25.824  52.318  1.00  0.00    -0.307 N 
HETATM    7  C   UNL     1       5.375  25.678  51.706  1.00  0.00     0.257 C 
HETATM    8  O   UNL     1       4.631  24.709  51.810  1.00  0.00    -0.267 OA
HETATM    9  H   UNL     1       7.253  26.547  52.005  1.00  0.00     0.170 HD
BRANCH   7  10
HETATM   10  C   UNL     1       4.939  26.807  50.839  1.00  0.00     0.032 A 
HETATM   11  C   UNL     1       4.388  27.977  51.382  1.00  0.00     0.018 A 
HETATM   12  C   UNL     1       3.833  28.944  50.535  1.00  0.00     0.026 A 
HETATM   13  C   UNL     1       3.839  28.740  49.150  1.00  0.00     0.079 A 
HETATM   14  C   UNL     1       4.409  27.588  48.601  1.00  0.00     0.026 A 
HETATM   15  C   UNL     1       4.956  26.622  49.449  1.00  0.00     0.018 A 
BRANCH  13  16
HETATM   16  S   UNL     1       2.958  29.878  48.103  1.00  0.00     0.260 S 
HETATM   17  O   UNL     1       3.102  31.206  48.659  1.00  0.00    -0.200 OA
HETATM   18  O   UNL     1       3.370  29.592  46.745  1.00  0.00    -0.200 OA
BRANCH  16  19
HETATM   19  N   UNL     1       1.333  29.396  48.278  1.00  0.00    -0.307 N 
HETATM   20  C   UNL     1       0.313  30.052  47.420  1.00  0.00     0.135 C 
HETATM   21  C   UNL     1       0.212  29.406  46.041  1.00  0.00     0.021 C 
HETATM   22  C   UNL     1       0.032  27.893  46.129  1.00  0.00     0.003 C 
HETATM   23  C   UNL     1       1.095  27.264  47.022  1.00  0.00     0.021 C 
HETATM   24  C   UNL     1       1.116  27.930  48.393  1.00  0.00     0.135 C 
ENDBRANCH  16  19
ENDBRANCH  13  16
ENDBRANCH   7  10
ENDBRANCH   4   6
BRANCH   3  25
HETATM   25  C   UNL     1       6.660  26.531  55.256  1.00  0.00     0.732 A 
HETATM   26  N   UNL     1       5.752  27.320  54.771  1.00  0.00    -0.067 NA
HETATM   27  C   UNL     1       5.555  28.502  55.454  1.00  0.00     0.065 A 
HETATM   28  C   UNL     1       6.228  28.859  56.566  1.00  0.00     0.036 A 
HETATM   29  C   UNL     1       4.508  29.416  54.855  1.00  0.00     0.060 C 
HETATM   30  C   UNL     1       6.052  30.164  57.287  1.00  0.00     0.046 C 
HETATM   31  C   UNL     1       7.234  27.914  57.106  1.00  0.00     0.268 A 
HETATM   32  C   UNL     1       5.276  31.194  56.464  1.00  0.00     0.005 C 
HETATM   33  C   UNL     1       4.073  30.553  55.784  1.00  0.00     0.006 C 
HETATM   34  O   UNL     1       7.874  28.146  58.124  1.00  0.00    -0.267 OA
HETATM   35  N   UNL     1       7.392  26.777  56.383  1.00  0.00    -0.152 N 
HETATM   36  H   UNL     1       8.078  26.092  56.687  1.00  0.00     0.188 HD
ENDBRANCH   3  25
BRANCH   1  37
HETATM   37  C   UNL     1       8.237  21.958  55.048  1.00  0.00     0.105 A 
HETATM   38  O   UNL     1       8.772  21.694  56.279  1.00  0.00    -0.320 OA
HETATM   39  C   UNL     1       9.110  20.380  56.301  1.00  0.00     0.142 A 
HETATM   40  C   UNL     1       8.804  19.783  55.103  1.00  0.00     0.027 A 
HETATM   41  C   UNL     1       8.240  20.800  54.293  1.00  0.00     0.041 A 
ENDBRANCH   1  37
TORSDOF 6
ENDMDL
MODEL 7
REMARK VINA RESULT:     -10.0      2.460      3.497
REMARK  6 active torsions:
REMARK  status: ('A' for Active; 'I' for Inactive)
REMARK    1  A    between atoms: C_4  and  C_5 
REMARK    2  A    between atoms: N_7  and  C_8 
REMARK    3  A    between atoms: C_19  and  N_20 
REMARK       I    between atoms: N_20  and  C_21 
REMARK    4  A    between atoms: C_21  and  C_22 
REMARK    5  A    between atoms: C_25  and  S_26 
REMARK    6  A    between atoms: S_26  and  N_27 
ROOT
HETATM    1  C   UNL     1       6.978  23.530  54.207  1.00  0.00     0.115 A 
HETATM    2  N   UNL     1       6.509  24.199  53.147  1.00  0.00    -0.148 NA
HETATM    3  N   UNL     1       5.975  25.338  53.686  1.00  0.00    -0.044 N 
HETATM    4  C   UNL     1       6.126  25.394  55.065  1.00  0.00     0.152 A 
HETATM    5  C   UNL     1       6.749  24.216  55.415  1.00  0.00     0.087 A 
ENDROOT
BRANCH   4   6
HETATM    6  N   UNL     1       5.712  26.480  55.829  1.00  0.00    -0.307 N 
HETATM    7  C   UNL     1       6.566  27.517  56.158  1.00  0.00     0.257 C 
HETATM    8  O   UNL     1       7.783  27.521  56.009  1.00  0.00    -0.267 OA
HETATM    9  H   UNL     1       4.758  26.467  56.189  1.00  0.00     0.170 HD
BRANCH   7  10
HETATM   10  C   UNL     1       5.928  28.722  56.757  1.00  0.00     0.032 A 
HETATM   11  C   UNL     1       4.556  28.973  56.613  1.00  0.00     0.018 A 
HETATM   12  C   UNL     1       4.022  30.194  57.038  1.00  0.00     0.026 A 
HETATM   13  C   UNL     1       4.862  31.157  57.612  1.00  0.00     0.079 A 
HETATM   14  C   UNL     1       6.226  30.905  57.781  1.00  0.00     0.026 A 
HETATM   15  C   UNL     1       6.757  29.687  57.350  1.00  0.00     0.018 A 
BRANCH  13  16
HETATM   16  S   UNL     1       4.210  32.776  57.965  1.00  0.00     0.260 S 
HETATM   17  O   UNL     1       3.116  32.627  58.900  1.00  0.00    -0.200 OA
HETATM   18  O   UNL     1       5.346  33.617  58.278  1.00  0.00    -0.200 OA
BRANCH  16  19
HETATM   19  N   UNL     1       3.573  33.279  56.467  1.00  0.00    -0.307 N 
HETATM   20  C   UNL     1       2.508  34.314  56.473  1.00  0.00     0.135 C 
HETATM   21  C   UNL     1       3.073  35.729  56.551  1.00  0.00     0.021 C 
HETATM   22  C   UNL     1       4.140  35.979  55.489  1.00  0.00     0.003 C 
HETATM   23  C   UNL     1       5.208  34.892  55.516  1.00  0.00     0.021 C 
HETATM   24  C   UNL     1       4.578  33.509  55.396  1.00  0.00     0.135 C 
ENDBRANCH  16  19
ENDBRANCH  13  16
ENDBRANCH   7  10
ENDBRANCH   4   6
BRANCH   3  25
HETATM   25  C   UNL     1       5.343  26.268  52.837  1.00  0.00     0.732 A 
HETATM   26  N   UNL     1       4.718  27.321  53.264  1.00  0.00    -0.067 NA
HETATM   27  C   UNL     1       4.122  28.101  52.294  1.00  0.00     0.065 A 
HETATM   28  C   UNL     1       4.165  27.836  50.973  1.00  0.00     0.036 A 
HETATM   29  C   UNL     1       3.380  29.311  52.818  1.00  0.00     0.060 C 
HETATM   30  C   UNL     1       3.480  28.654  49.917  1.00  0.00     0.046 C 
HETATM   31  C   UNL     1       4.918  26.640  50.525  1.00  0.00     0.268 A 
HETATM   32  C   UNL     1       2.455  29.630  50.497  1.00  0.00     0.005 C 
HETATM   33  C   UNL     1       3.008  30.327  51.735  1.00  0.00     0.006 C 
HETATM   34  O   UNL     1       5.030  26.338  49.344  1.00  0.00    -0.267 OA
HETATM   35  N   UNL     1       5.469  25.907  51.526  1.00  0.00    -0.152 N 
HETATM   36  H   UNL     1       5.985  25.064  51.291  1.00  0.00     0.188 HD
ENDBRANCH   3  25
BRANCH   1  37
HETATM   37  C   UNL     1       7.674  22.214  54.095  1.00  0.00     0.105 A 
HETATM   38  O   UNL     1       8.110  21.478  55.162  1.00  0.00    -0.320 OA
HETATM   39  C   UNL     1       8.698  20.358  54.669  1.00  0.00     0.142 A 
HETATM   40  C   UNL     1       8.651  20.354  53.296  1.00  0.00     0.027 A 
HETATM   41  C   UNL     1       7.990  21.551  52.924  1.00  0.00     0.041 A 
ENDBRANCH   1  37
TORSDOF 6
ENDMDL
MODEL 8
REMARK VINA RESULT:      -9.9      3.784      4.343
REMARK  6 active torsions:
REMARK  status: ('A' for Active; 'I' for Inactive)
REMARK    1  A    between atoms: C_4  and  C_5 
REMARK    2  A    between atoms: N_7  and  C_8 
REMARK    3  A    between atoms: C_19  and  N_20 
REMARK       I    between atoms: N_20  and  C_21 
REMARK    4  A    between atoms: C_21  and  C_22 
REMARK    5  A    between atoms: C_25  and  S_26 
REMARK    6  A    between atoms: S_26  and  N_27 
ROOT
HETATM    1  C   UNL     1       6.406  24.322  53.517  1.00  0.00     0.115 A 
HETATM    2  N   UNL     1       6.317  24.803  52.272  1.00  0.00    -0.148 NA
HETATM    3  N   UNL     1       5.550  25.929  52.408  1.00  0.00    -0.044 N 
HETATM    4  C   UNL     1       5.182  26.165  53.725  1.00  0.00     0.152 A 
HETATM    5  C   UNL     1       5.707  25.116  54.447  1.00  0.00     0.087 A 
ENDROOT
BRANCH   4   6
HETATM    6  N   UNL     1       4.449  27.279  54.119  1.00  0.00    -0.307 N 
HETATM    7  C   UNL     1       5.032  28.354  54.764  1.00  0.00     0.257 C 
HETATM    8  O   UNL     1       6.164  28.382  55.235  1.00  0.00    -0.267 OA
HETATM    9  H   UNL     1       3.442  27.260  53.961  1.00  0.00     0.170 HD
BRANCH   7  10
HETATM   10  C   UNL     1       4.187  29.573  54.897  1.00  0.00     0.032 A 
HETATM   11  C   UNL     1       3.871  30.371  53.787  1.00  0.00     0.018 A 
HETATM   12  C   UNL     1       3.222  31.596  53.972  1.00  0.00     0.026 A 
HETATM   13  C   UNL     1       2.884  32.015  55.264  1.00  0.00     0.079 A 
HETATM   14  C   UNL     1       3.173  31.215  56.373  1.00  0.00     0.026 A 
HETATM   15  C   UNL     1       3.827  29.995  56.186  1.00  0.00     0.018 A 
BRANCH  13  16
HETATM   16  S   UNL     1       2.240  33.658  55.502  1.00  0.00     0.260 S 
HETATM   17  O   UNL     1       2.689  34.482  54.400  1.00  0.00    -0.200 OA
HETATM   18  O   UNL     1       0.830  33.509  55.792  1.00  0.00    -0.200 OA
BRANCH  16  19
HETATM   19  N   UNL     1       3.022  34.186  56.921  1.00  0.00    -0.307 N 
HETATM   20  C   UNL     1       4.465  34.527  56.838  1.00  0.00     0.135 C 
HETATM   21  C   UNL     1       4.698  35.952  56.345  1.00  0.00     0.021 C 
HETATM   22  C   UNL     1       3.890  36.973  57.141  1.00  0.00     0.003 C 
HETATM   23  C   UNL     1       2.418  36.581  57.204  1.00  0.00     0.021 C 
HETATM   24  C   UNL     1       2.257  35.163  57.740  1.00  0.00     0.135 C 
ENDBRANCH  16  19
ENDBRANCH  13  16
ENDBRANCH   7  10
ENDBRANCH   4   6
BRANCH   3  25
HETATM   25  C   UNL     1       5.216  26.674  51.259  1.00  0.00     0.732 A 
HETATM   26  N   UNL     1       5.449  27.944  51.132  1.00  0.00    -0.067 NA
HETATM   27  C   UNL     1       5.018  28.521  49.956  1.00  0.00     0.065 A 
HETATM   28  C   UNL     1       4.397  27.851  48.964  1.00  0.00     0.036 A 
HETATM   29  C   UNL     1       5.281  30.006  49.842  1.00  0.00     0.060 C 
HETATM   30  C   UNL     1       3.882  28.481  47.702  1.00  0.00     0.046 C 
HETATM   31  C   UNL     1       4.179  26.394  49.135  1.00  0.00     0.268 A 
HETATM   32  C   UNL     1       3.832  30.007  47.782  1.00  0.00     0.005 C 
HETATM   33  C   UNL     1       5.097  30.561  48.427  1.00  0.00     0.006 C 
HETATM   34  O   UNL     1       3.646  25.704  48.275  1.00  0.00    -0.267 OA
HETATM   35  N   UNL     1       4.612  25.889  50.318  1.00  0.00    -0.152 N 
HETATM   36  H   UNL     1       4.479  24.900  50.509  1.00  0.00     0.188 HD
ENDBRANCH   3  25
BRANCH   1  37
HETATM   37  C   UNL     1       7.177  23.091  53.859  1.00  0.00     0.105 A 
HETATM   38  O   UNL     1       7.305  22.586  55.125  1.00  0.00    -0.320 OA
HETATM   39  C   UNL     1       8.079  21.475  55.041  1.00  0.00     0.142 A 
HETATM   40  C   UNL     1       8.458  21.247  53.741  1.00  0.00     0.027 A 
HETATM   41  C   UNL     1       7.876  22.289  52.977  1.00  0.00     0.041 A 
ENDBRANCH   1  37
TORSDOF 6
ENDMDL
MODEL 9
REMARK VINA RESULT:      -9.9      1.689      2.100
REMARK  6 active torsions:
REMARK  status: ('A' for Active; 'I' for Inactive)
REMARK    1  A    between atoms: C_4  and  C_5 
REMARK    2  A    between atoms: N_7  and  C_8 
REMARK    3  A    between atoms: C_19  and  N_20 
REMARK       I    between atoms: N_20  and  C_21 
REMARK    4  A    between atoms: C_21  and  C_22 
REMARK    5  A    between atoms: C_25  and  S_26 
REMARK    6  A    between atoms: S_26  and  N_27 
ROOT
HETATM    1  C   UNL     1       7.519  24.827  54.949  1.00  0.00     0.115 A 
HETATM    2  N   UNL     1       6.934  25.615  54.039  1.00  0.00    -0.148 NA
HETATM    3  N   UNL     1       6.625  26.751  54.737  1.00  0.00    -0.044 N 
HETATM    4  C   UNL     1       7.032  26.688  56.063  1.00  0.00     0.152 A 
HETATM    5  C   UNL     1       7.586  25.436  56.217  1.00  0.00     0.087 A 
ENDROOT
BRANCH   4   6
HETATM    6  N   UNL     1       6.877  27.743  56.955  1.00  0.00    -0.307 N 
HETATM    7  C   UNL     1       7.939  28.535  57.350  1.00  0.00     0.257 C 
HETATM    8  O   UNL     1       9.125  28.301  57.146  1.00  0.00    -0.267 OA
HETATM    9  H   UNL     1       5.950  27.889  57.355  1.00  0.00     0.170 HD
BRANCH   7  10
HETATM   10  C   UNL     1       7.587  29.772  58.101  1.00  0.00     0.032 A 
HETATM   11  C   UNL     1       8.230  30.109  59.301  1.00  0.00     0.018 A 
HETATM   12  C   UNL     1       7.759  31.182  60.066  1.00  0.00     0.026 A 
HETATM   13  C   UNL     1       6.653  31.918  59.624  1.00  0.00     0.079 A 
HETATM   14  C   UNL     1       6.023  31.604  58.417  1.00  0.00     0.026 A 
HETATM   15  C   UNL     1       6.491  30.528  57.659  1.00  0.00     0.018 A 
BRANCH  13  16
HETATM   16  S   UNL     1       5.946  33.149  60.698  1.00  0.00     0.260 S 
HETATM   17  O   UNL     1       7.028  33.906  61.291  1.00  0.00    -0.200 OA
HETATM   18  O   UNL     1       4.906  33.810  59.938  1.00  0.00    -0.200 OA
BRANCH  16  19
HETATM   19  N   UNL     1       5.204  32.224  61.921  1.00  0.00    -0.307 N 
HETATM   20  C   UNL     1       6.025  31.829  63.094  1.00  0.00     0.135 C 
HETATM   21  C   UNL     1       6.090  32.926  64.154  1.00  0.00     0.021 C 
HETATM   22  C   UNL     1       4.703  33.431  64.542  1.00  0.00     0.003 C 
HETATM   23  C   UNL     1       3.895  33.819  63.309  1.00  0.00     0.021 C 
HETATM   24  C   UNL     1       3.839  32.668  62.312  1.00  0.00     0.135 C 
ENDBRANCH  16  19
ENDBRANCH  13  16
ENDBRANCH   7  10
ENDBRANCH   4   6
BRANCH   3  25
HETATM   25  C   UNL     1       5.945  27.796  54.080  1.00  0.00     0.732 A 
HETATM   26  N   UNL     1       5.280  28.722  54.700  1.00  0.00    -0.067 NA
HETATM   27  C   UNL     1       4.642  29.644  53.896  1.00  0.00     0.065 A 
HETATM   28  C   UNL     1       4.682  29.635  52.549  1.00  0.00     0.036 A 
HETATM   29  C   UNL     1       3.854  30.699  54.641  1.00  0.00     0.060 C 
HETATM   30  C   UNL     1       3.951  30.606  51.668  1.00  0.00     0.046 C 
HETATM   31  C   UNL     1       5.480  28.579  51.881  1.00  0.00     0.268 A 
HETATM   32  C   UNL     1       2.892  31.409  52.424  1.00  0.00     0.005 C 
HETATM   33  C   UNL     1       3.427  31.884  53.770  1.00  0.00     0.006 C 
HETATM   34  O   UNL     1       5.592  28.510  50.664  1.00  0.00    -0.267 OA
HETATM   35  N   UNL     1       6.072  27.695  52.724  1.00  0.00    -0.152 N 
HETATM   36  H   UNL     1       6.621  26.935  52.333  1.00  0.00     0.188 HD
ENDBRANCH   3  25
BRANCH   1  37
HETATM   37  C   UNL     1       8.047  23.468  54.629  1.00  0.00     0.105 A 
HETATM   38  O   UNL     1       9.021  22.829  55.346  1.00  0.00    -0.320 OA
HETATM   39  C   UNL     1       9.241  21.629  54.751  1.00  0.00     0.142 A 
HETATM   40  C   UNL     1       8.425  21.477  53.657  1.00  0.00     0.027 A 
HETATM   41  C   UNL     1       7.653  22.663  53.577  1.00  0.00     0.041 A 
ENDBRANCH   1  37
TORSDOF 6
ENDMDL
MODEL 10
REMARK VINA RESULT:      -9.8      3.689     10.571
REMARK  6 active torsions:
REMARK  status: ('A' for Active; 'I' for Inactive)
REMARK    1  A    between atoms: C_4  and  C_5 
REMARK    2  A    between atoms: N_7  and  C_8 
REMARK    3  A    between atoms: C_19  and  N_20 
REMARK       I    between atoms: N_20  and  C_21 
REMARK    4  A    between atoms: C_21  and  C_22 
REMARK    5  A    between atoms: C_25  and  S_26 
REMARK    6  A    between atoms: S_26  and  N_27 
ROOT
HETATM    1  C   UNL     1       5.578  33.317  62.524  1.00  0.00     0.115 A 
HETATM    2  N   UNL     1       4.765  34.104  61.810  1.00  0.00    -0.148 NA
HETATM    3  N   UNL     1       4.720  33.504  60.581  1.00  0.00    -0.044 N 
HETATM    4  C   UNL     1       5.477  32.341  60.530  1.00  0.00     0.152 A 
HETATM    5  C   UNL     1       6.059  32.226  61.773  1.00  0.00     0.087 A 
ENDROOT
BRANCH   4   6
HETATM    6  N   UNL     1       5.542  31.528  59.403  1.00  0.00    -0.307 N 
HETATM    7  C   UNL     1       6.711  31.358  58.685  1.00  0.00     0.257 C 
HETATM    8  O   UNL     1       7.734  32.022  58.810  1.00  0.00    -0.267 OA
HETATM    9  H   UNL     1       4.677  31.092  59.086  1.00  0.00     0.170 HD
BRANCH   7  10
HETATM   10  C   UNL     1       6.699  30.272  57.666  1.00  0.00     0.032 A 
HETATM   11  C   UNL     1       7.877  29.845  57.036  1.00  0.00     0.018 A 
HETATM   12  C   UNL     1       7.808  28.947  55.966  1.00  0.00     0.026 A 
HETATM   13  C   UNL     1       6.563  28.474  55.534  1.00  0.00     0.079 A 
HETATM   14  C   UNL     1       5.387  28.876  56.172  1.00  0.00     0.026 A 
HETATM   15  C   UNL     1       5.458  29.777  57.237  1.00  0.00     0.018 A 
BRANCH  13  16
HETATM   16  S   UNL     1       6.475  27.492  54.051  1.00  0.00     0.260 S 
HETATM   17  O   UNL     1       5.520  28.112  53.157  1.00  0.00    -0.200 OA
HETATM   18  O   UNL     1       7.840  27.255  53.633  1.00  0.00    -0.200 OA
BRANCH  16  19
HETATM   19  N   UNL     1       5.821  26.016  54.596  1.00  0.00    -0.307 N 
HETATM   20  C   UNL     1       5.338  25.048  53.578  1.00  0.00     0.135 C 
HETATM   21  C   UNL     1       6.464  24.185  53.016  1.00  0.00     0.021 C 
HETATM   22  C   UNL     1       7.285  23.526  54.120  1.00  0.00     0.003 C 
HETATM   23  C   UNL     1       7.756  24.553  55.143  1.00  0.00     0.021 C 
HETATM   24  C   UNL     1       6.579  25.353  55.690  1.00  0.00     0.135 C 
ENDBRANCH  16  19
ENDBRANCH  13  16
ENDBRANCH   7  10
ENDBRANCH   4   6
BRANCH   3  25
HETATM   25  C   UNL     1       3.973  34.107  59.550  1.00  0.00     0.732 A 
HETATM   26  N   UNL     1       4.337  34.108  58.305  1.00  0.00    -0.067 NA
HETATM   27  C   UNL     1       3.504  34.781  57.435  1.00  0.00     0.065 A 
HETATM   28  C   UNL     1       2.368  35.407  57.802  1.00  0.00     0.036 A 
HETATM   29  C   UNL     1       3.962  34.788  55.993  1.00  0.00     0.060 C 
HETATM   30  C   UNL     1       1.482  36.182  56.870  1.00  0.00     0.046 C 
HETATM   31  C   UNL     1       1.971  35.354  59.230  1.00  0.00     0.268 A 
HETATM   32  C   UNL     1       2.152  36.476  55.526  1.00  0.00     0.005 C 
HETATM   33  C   UNL     1       2.887  35.248  55.004  1.00  0.00     0.006 C 
HETATM   34  O   UNL     1       0.943  35.873  59.646  1.00  0.00    -0.267 OA
HETATM   35  N   UNL     1       2.837  34.690  60.036  1.00  0.00    -0.152 N 
HETATM   36  H   UNL     1       2.636  34.629  61.030  1.00  0.00     0.188 HD
ENDBRANCH   3  25
BRANCH   1  37
HETATM   37  C   UNL     1       5.911  33.576  63.956  1.00  0.00     0.105 A 
HETATM   38  O   UNL     1       4.998  33.942  64.906  1.00  0.00    -0.320 OA
HETATM   39  C   UNL     1       5.670  34.097  66.075  1.00  0.00     0.142 A 
HETATM   40  C   UNL     1       7.007  33.838  65.901  1.00  0.00     0.027 A 
HETATM   41  C   UNL     1       7.164  33.501  64.533  1.00  0.00     0.041 A 
ENDBRANCH   1  37
TORSDOF 6
ENDMDL
