MODEL 1
REMARK VINA RESULT:      -9.6      0.000      0.000
REMARK  9 active torsions:
REMARK  status: ('A' for Active; 'I' for Inactive)
REMARK    1  A    between atoms: O_2  and  C_3 
REMARK    2  A    between atoms: C_6  and  N_7 
REMARK       I    between atoms: N_7  and  C_8 
REMARK    3  A    between atoms: C_8  and  C_9 
REMARK    4  A    between atoms: C_9  and  N_10 
REMARK    5  A    between atoms: N_10  and  C_12 
REMARK    6  A    between atoms: N_10  and  C_24 
REMARK    7  A    between atoms: C_12  and  S_13 
REMARK    8  A    between atoms: S_13  and  C_14 
REMARK    9  A    between atoms: C_24  and  C_25 
ROOT
HETATM    1  N   UNL     1       7.235  27.331  56.924  1.00  0.00    -0.041 N 
HETATM    2  H   UNL     1       6.710  27.927  57.601  1.00  0.00     0.282 HD
ENDROOT
BRANCH   1   3
HETATM    3  C   UNL     1       6.349  27.360  55.560  1.00  0.00     0.208 C 
HETATM    4  C   UNL     1       5.658  25.977  55.421  1.00  0.00     0.049 C 
HETATM    5  C   UNL     1       5.200  25.557  54.017  1.00  0.00     0.003 C 
HETATM    6  C   UNL     1       6.158  25.951  52.903  1.00  0.00     0.000 C 
HETATM    7  C   UNL     1       6.570  27.413  52.996  1.00  0.00     0.003 C 
HETATM    8  C   UNL     1       7.241  27.682  54.343  1.00  0.00     0.049 C 
BRANCH   3   9
HETATM    9  C   UNL     1       5.351  28.586  55.695  1.00  0.00     0.259 C 
HETATM   10  N   UNL     1       5.880  29.849  55.563  1.00  0.00    -0.325 N 
HETATM   11  H   UNL     1       6.819  29.953  55.213  1.00  0.00     0.169 HD
HETATM   12  O   UNL     1       4.171  28.339  55.954  1.00  0.00    -0.270 OA
BRANCH  10  13
HETATM   13  C   UNL     1       5.282  31.080  55.911  1.00  0.00     0.035 A 
HETATM   14  C   UNL     1       4.438  31.811  55.078  1.00  0.00     0.032 A 
HETATM   15  C   UNL     1       3.825  32.978  55.552  1.00  0.00     0.039 A 
HETATM   16  C   UNL     1       4.039  33.427  56.856  1.00  0.00     0.068 A 
HETATM   17  C   UNL     1       4.906  32.717  57.681  1.00  0.00     0.039 A 
HETATM   18  C   UNL     1       5.520  31.549  57.211  1.00  0.00     0.032 A 
BRANCH  16  19
HETATM   19  O   UNL     1       3.357  34.560  57.199  1.00  0.00    -0.356 OA
HETATM   20  C   UNL     1       2.941  34.670  58.555  1.00  0.00     0.210 C 
ENDBRANCH  16  19
ENDBRANCH  10  13
ENDBRANCH   3   9
ENDBRANCH   1   3
BRANCH   1  21
HETATM   21  C   UNL     1       7.141  25.960  57.588  1.00  0.00     0.318 C 
BRANCH  21  22
HETATM   22  S   UNL     1       8.668  25.015  57.647  1.00  0.00    -0.064 SA
BRANCH  22  23
HETATM   23  C   UNL     1       8.397  23.792  56.475  1.00  0.00     0.169 A 
HETATM   24  N   UNL     1       8.297  22.509  56.709  1.00  0.00    -0.223 NA
HETATM   25  C   UNL     1       8.170  21.946  55.453  1.00  0.00     0.086 A 
HETATM   26  C   UNL     1       8.223  22.922  54.459  1.00  0.00     0.063 A 
HETATM   27  C   UNL     1       8.029  20.601  55.082  1.00  0.00     0.034 A 
HETATM   28  N   UNL     1       8.360  24.099  55.148  1.00  0.00    -0.333 N 
HETATM   29  C   UNL     1       8.148  22.637  53.096  1.00  0.00     0.032 A 
HETATM   30  H   UNL     1       8.441  25.022  54.746  1.00  0.00     0.168 HD
HETATM   31  C   UNL     1       8.014  21.289  52.745  1.00  0.00     0.002 A 
HETATM   32  C   UNL     1       7.954  20.288  53.717  1.00  0.00     0.002 A 
ENDBRANCH  22  23
ENDBRANCH  21  22
ENDBRANCH   1  21
BRANCH   1  33
HETATM   33  C   UNL     1       8.663  27.847  56.872  1.00  0.00     0.275 C 
BRANCH  33  34
HETATM   34  C   UNL     1       8.988  29.138  57.581  1.00  0.00    -0.033 A 
HETATM   35  C   UNL     1       8.209  29.625  58.640  1.00  0.00     0.009 A 
HETATM   36  C   UNL     1       8.533  30.829  59.267  1.00  0.00     0.001 A 
HETATM   37  C   UNL     1       9.648  31.554  58.858  1.00  0.00     0.000 A 
HETATM   38  C   UNL     1      10.454  31.069  57.832  1.00  0.00     0.001 A 
HETATM   39  C   UNL     1      10.133  29.864  57.205  1.00  0.00     0.009 A 
ENDBRANCH  33  34
ENDBRANCH   1  33
TORSDOF 9
ENDMDL
MODEL 2
REMARK VINA RESULT:      -9.0      3.404      6.360
REMARK  9 active torsions:
REMARK  status: ('A' for Active; 'I' for Inactive)
REMARK    1  A    between atoms: O_2  and  C_3 
REMARK    2  A    between atoms: C_6  and  N_7 
REMARK       I    between atoms: N_7  and  C_8 
REMARK    3  A    between atoms: C_8  and  C_9 
REMARK    4  A    between atoms: C_9  and  N_10 
REMARK    5  A    between atoms: N_10  and  C_12 
REMARK    6  A    between atoms: N_10  and  C_24 
REMARK    7  A    between atoms: C_12  and  S_13 
REMARK    8  A    between atoms: S_13  and  C_14 
REMARK    9  A    between atoms: C_24  and  C_25 
ROOT
HETATM    1  N   UNL     1       6.135  26.463  54.190  1.00  0.00    -0.041 N 
HETATM    2  H   UNL     1       5.583  25.759  54.727  1.00  0.00     0.282 HD
ENDROOT
BRANCH   1   3
HETATM    3  C   UNL     1       6.545  27.600  55.279  1.00  0.00     0.208 C 
HETATM    4  C   UNL     1       7.793  28.343  54.730  1.00  0.00     0.049 C 
HETATM    5  C   UNL     1       8.675  29.081  55.748  1.00  0.00     0.003 C 
HETATM    6  C   UNL     1       8.848  28.352  57.071  1.00  0.00     0.000 C 
HETATM    7  C   UNL     1       7.516  27.888  57.644  1.00  0.00     0.003 C 
HETATM    8  C   UNL     1       6.817  26.957  56.655  1.00  0.00     0.049 C 
BRANCH   3   9
HETATM    9  C   UNL     1       5.266  28.516  55.480  1.00  0.00     0.259 C 
HETATM   10  N   UNL     1       5.307  29.784  54.948  1.00  0.00    -0.325 N 
HETATM   11  H   UNL     1       6.048  30.024  54.308  1.00  0.00     0.169 HD
HETATM   12  O   UNL     1       4.330  28.058  56.138  1.00  0.00    -0.270 OA
BRANCH  10  13
HETATM   13  C   UNL     1       4.443  30.868  55.221  1.00  0.00     0.035 A 
HETATM   14  C   UNL     1       3.256  31.121  54.539  1.00  0.00     0.032 A 
HETATM   15  C   UNL     1       2.425  32.173  54.947  1.00  0.00     0.039 A 
HETATM   16  C   UNL     1       2.762  32.978  56.035  1.00  0.00     0.068 A 
HETATM   17  C   UNL     1       3.963  32.747  56.700  1.00  0.00     0.039 A 
HETATM   18  C   UNL     1       4.796  31.697  56.296  1.00  0.00     0.032 A 
BRANCH  16  19
HETATM   19  O   UNL     1       1.850  33.947  56.345  1.00  0.00    -0.356 OA
HETATM   20  C   UNL     1       2.364  35.246  56.616  1.00  0.00     0.210 C 
ENDBRANCH  16  19
ENDBRANCH  10  13
ENDBRANCH   3   9
ENDBRANCH   1   3
BRANCH   1  21
HETATM   21  C   UNL     1       5.083  27.006  53.227  1.00  0.00     0.318 C 
BRANCH  21  22
HETATM   22  S   UNL     1       5.714  27.924  51.817  1.00  0.00    -0.064 SA
BRANCH  22  23
HETATM   23  C   UNL     1       4.690  27.403  50.543  1.00  0.00     0.169 A 
HETATM   24  N   UNL     1       4.934  26.426  49.708  1.00  0.00    -0.223 NA
HETATM   25  C   UNL     1       3.867  26.456  48.832  1.00  0.00     0.086 A 
HETATM   26  C   UNL     1       2.988  27.491  49.147  1.00  0.00     0.063 A 
HETATM   27  C   UNL     1       3.590  25.641  47.724  1.00  0.00     0.034 A 
HETATM   28  N   UNL     1       3.540  28.077  50.257  1.00  0.00    -0.333 N 
HETATM   29  C   UNL     1       1.836  27.774  48.414  1.00  0.00     0.032 A 
HETATM   30  H   UNL     1       3.174  28.873  50.759  1.00  0.00     0.168 HD
HETATM   31  C   UNL     1       1.581  26.954  47.308  1.00  0.00     0.002 A 
HETATM   32  C   UNL     1       2.438  25.906  46.969  1.00  0.00     0.002 A 
ENDBRANCH  22  23
ENDBRANCH  21  22
ENDBRANCH   1  21
BRANCH   1  33
HETATM   33  C   UNL     1       7.245  25.718  53.467  1.00  0.00     0.275 C 
BRANCH  33  34
HETATM   34  C   UNL     1       7.470  24.264  53.798  1.00  0.00    -0.033 A 
HETATM   35  C   UNL     1       7.346  23.768  55.104  1.00  0.00     0.009 A 
HETATM   36  C   UNL     1       7.572  22.417  55.376  1.00  0.00     0.001 A 
HETATM   37  C   UNL     1       7.905  21.541  54.347  1.00  0.00     0.000 A 
HETATM   38  C   UNL     1       7.997  22.008  53.040  1.00  0.00     0.001 A 
HETATM   39  C   UNL     1       7.770  23.358  52.764  1.00  0.00     0.009 A 
ENDBRANCH  33  34
ENDBRANCH   1  33
TORSDOF 9
ENDMDL
MODEL 3
REMARK VINA RESULT:      -9.0      2.918      6.592
REMARK  9 active torsions:
REMARK  status: ('A' for Active; 'I' for Inactive)
REMARK    1  A    between atoms: O_2  and  C_3 
REMARK    2  A    between atoms: C_6  and  N_7 
REMARK       I    between atoms: N_7  and  C_8 
REMARK    3  A    between atoms: C_8  and  C_9 
REMARK    4  A    between atoms: C_9  and  N_10 
REMARK    5  A    between atoms: N_10  and  C_12 
REMARK    6  A    between atoms: N_10  and  C_24 
REMARK    7  A    between atoms: C_12  and  S_13 
REMARK    8  A    between atoms: S_13  and  C_14 
REMARK    9  A    between atoms: C_24  and  C_25 
ROOT
HETATM    1  N   UNL     1       6.443  25.977  54.534  1.00  0.00    -0.041 N 
HETATM    2  H   UNL     1       6.005  25.329  55.224  1.00  0.00     0.282 HD
ENDROOT
BRANCH   1   3
HETATM    3  C   UNL     1       6.794  27.321  55.381  1.00  0.00     0.208 C 
HETATM    4  C   UNL     1       7.954  28.046  54.646  1.00  0.00     0.049 C 
HETATM    5  C   UNL     1       8.806  29.023  55.469  1.00  0.00     0.003 C 
HETATM    6  C   UNL     1       9.088  28.561  56.891  1.00  0.00     0.000 C 
HETATM    7  C   UNL     1       7.823  28.109  57.605  1.00  0.00     0.003 C 
HETATM    8  C   UNL     1       7.169  26.962  56.834  1.00  0.00     0.049 C 
BRANCH   3   9
HETATM    9  C   UNL     1       5.450  28.158  55.481  1.00  0.00     0.259 C 
HETATM   10  N   UNL     1       5.407  29.365  54.823  1.00  0.00    -0.325 N 
HETATM   11  H   UNL     1       6.137  29.592  54.167  1.00  0.00     0.169 HD
HETATM   12  O   UNL     1       4.541  27.701  56.177  1.00  0.00    -0.270 OA
BRANCH  10  13
HETATM   13  C   UNL     1       4.464  30.405  54.980  1.00  0.00     0.035 A 
HETATM   14  C   UNL     1       3.582  30.825  53.988  1.00  0.00     0.032 A 
HETATM   15  C   UNL     1       2.624  31.807  54.273  1.00  0.00     0.039 A 
HETATM   16  C   UNL     1       2.530  32.375  55.544  1.00  0.00     0.068 A 
HETATM   17  C   UNL     1       3.430  31.980  56.529  1.00  0.00     0.039 A 
HETATM   18  C   UNL     1       4.388  30.999  56.248  1.00  0.00     0.032 A 
BRANCH  16  19
HETATM   19  O   UNL     1       1.533  33.298  55.695  1.00  0.00    -0.356 OA
HETATM   20  C   UNL     1       0.423  33.191  54.811  1.00  0.00     0.210 C 
ENDBRANCH  16  19
ENDBRANCH  10  13
ENDBRANCH   3   9
ENDBRANCH   1   3
BRANCH   1  21
HETATM   21  C   UNL     1       5.280  26.239  53.581  1.00  0.00     0.318 C 
BRANCH  21  22
HETATM   22  S   UNL     1       5.571  25.814  51.859  1.00  0.00    -0.064 SA
BRANCH  22  23
HETATM   23  C   UNL     1       5.521  27.343  51.083  1.00  0.00     0.169 A 
HETATM   24  N   UNL     1       5.562  28.509  51.675  1.00  0.00    -0.223 NA
HETATM   25  C   UNL     1       5.406  29.416  50.644  1.00  0.00     0.086 A 
HETATM   26  C   UNL     1       5.244  28.764  49.423  1.00  0.00     0.063 A 
HETATM   27  C   UNL     1       5.369  30.818  50.678  1.00  0.00     0.034 A 
HETATM   28  N   UNL     1       5.331  27.432  49.737  1.00  0.00    -0.333 N 
HETATM   29  C   UNL     1       5.038  29.431  48.215  1.00  0.00     0.032 A 
HETATM   30  H   UNL     1       5.249  26.659  49.093  1.00  0.00     0.168 HD
HETATM   31  C   UNL     1       4.997  30.828  48.271  1.00  0.00     0.002 A 
HETATM   32  C   UNL     1       5.161  31.512  49.477  1.00  0.00     0.002 A 
ENDBRANCH  22  23
ENDBRANCH  21  22
ENDBRANCH   1  21
BRANCH   1  33
HETATM   33  C   UNL     1       7.580  25.227  53.861  1.00  0.00     0.275 C 
BRANCH  33  34
HETATM   34  C   UNL     1       7.689  23.739  54.079  1.00  0.00    -0.033 A 
HETATM   35  C   UNL     1       7.541  23.157  55.346  1.00  0.00     0.009 A 
HETATM   36  C   UNL     1       7.658  21.776  55.513  1.00  0.00     0.001 A 
HETATM   37  C   UNL     1       7.907  20.956  54.416  1.00  0.00     0.000 A 
HETATM   38  C   UNL     1       8.023  21.512  53.146  1.00  0.00     0.001 A 
HETATM   39  C   UNL     1       7.904  22.892  52.976  1.00  0.00     0.009 A 
ENDBRANCH  33  34
ENDBRANCH   1  33
TORSDOF 9
ENDMDL
MODEL 4
REMARK VINA RESULT:      -9.0      3.051      8.626
REMARK  9 active torsions:
REMARK  status: ('A' for Active; 'I' for Inactive)
REMARK    1  A    between atoms: O_2  and  C_3 
REMARK    2  A    between atoms: C_6  and  N_7 
REMARK       I    between atoms: N_7  and  C_8 
REMARK    3  A    between atoms: C_8  and  C_9 
REMARK    4  A    between atoms: C_9  and  N_10 
REMARK    5  A    between atoms: N_10  and  C_12 
REMARK    6  A    between atoms: N_10  and  C_24 
REMARK    7  A    between atoms: C_12  and  S_13 
REMARK    8  A    between atoms: S_13  and  C_14 
REMARK    9  A    between atoms: C_24  and  C_25 
ROOT
HETATM    1  N   UNL     1       6.140  29.335  56.850  1.00  0.00    -0.041 N 
HETATM    2  H   UNL     1       6.472  30.225  56.419  1.00  0.00     0.282 HD
ENDROOT
BRANCH   1   3
HETATM    3  C   UNL     1       5.809  28.355  55.595  1.00  0.00     0.208 C 
HETATM    4  C   UNL     1       6.747  28.761  54.426  1.00  0.00     0.049 C 
HETATM    5  C   UNL     1       6.309  28.371  53.006  1.00  0.00     0.003 C 
HETATM    6  C   UNL     1       4.815  28.503  52.754  1.00  0.00     0.000 C 
HETATM    7  C   UNL     1       3.992  27.838  53.848  1.00  0.00     0.003 C 
HETATM    8  C   UNL     1       4.321  28.463  55.203  1.00  0.00     0.049 C 
BRANCH   3   9
HETATM    9  C   UNL     1       6.007  26.870  56.116  1.00  0.00     0.259 C 
HETATM   10  N   UNL     1       7.135  26.200  55.701  1.00  0.00    -0.325 N 
HETATM   11  H   UNL     1       7.870  26.714  55.243  1.00  0.00     0.169 HD
HETATM   12  O   UNL     1       5.121  26.387  56.823  1.00  0.00    -0.270 OA
BRANCH  10  13
HETATM   13  C   UNL     1       7.401  24.815  55.784  1.00  0.00     0.035 A 
HETATM   14  C   UNL     1       7.135  23.899  54.770  1.00  0.00     0.032 A 
HETATM   15  C   UNL     1       7.518  22.559  54.919  1.00  0.00     0.039 A 
HETATM   16  C   UNL     1       8.172  22.120  56.070  1.00  0.00     0.068 A 
HETATM   17  C   UNL     1       8.413  23.026  57.098  1.00  0.00     0.039 A 
HETATM   18  C   UNL     1       8.031  24.366  56.953  1.00  0.00     0.032 A 
BRANCH  16  19
HETATM   19  O   UNL     1       8.518  20.798  56.072  1.00  0.00    -0.356 OA
HETATM   20  C   UNL     1       8.696  20.181  54.803  1.00  0.00     0.210 C 
ENDBRANCH  16  19
ENDBRANCH  10  13
ENDBRANCH   3   9
ENDBRANCH   1   3
BRANCH   1  21
HETATM   21  C   UNL     1       4.849  29.786  57.527  1.00  0.00     0.318 C 
BRANCH  21  22
HETATM   22  S   UNL     1       4.556  31.559  57.548  1.00  0.00    -0.064 SA
BRANCH  22  23
HETATM   23  C   UNL     1       5.192  32.025  59.071  1.00  0.00     0.169 A 
HETATM   24  N   UNL     1       6.423  32.396  59.312  1.00  0.00    -0.223 NA
HETATM   25  C   UNL     1       6.458  32.581  60.681  1.00  0.00     0.086 A 
HETATM   26  C   UNL     1       5.224  32.286  61.258  1.00  0.00     0.063 A 
HETATM   27  C   UNL     1       7.520  32.979  61.507  1.00  0.00     0.034 A 
HETATM   28  N   UNL     1       4.428  31.940  60.197  1.00  0.00    -0.333 N 
HETATM   29  C   UNL     1       4.979  32.359  62.629  1.00  0.00     0.032 A 
HETATM   30  H   UNL     1       3.461  31.655  60.242  1.00  0.00     0.168 HD
HETATM   31  C   UNL     1       6.052  32.751  63.438  1.00  0.00     0.002 A 
HETATM   32  C   UNL     1       7.299  33.057  62.890  1.00  0.00     0.002 A 
ENDBRANCH  22  23
ENDBRANCH  21  22
ENDBRANCH   1  21
BRANCH   1  33
HETATM   33  C   UNL     1       7.192  28.895  57.855  1.00  0.00     0.275 C 
BRANCH  33  34
HETATM   34  C   UNL     1       8.596  29.424  57.705  1.00  0.00    -0.033 A 
HETATM   35  C   UNL     1       9.551  28.790  56.898  1.00  0.00     0.009 A 
HETATM   36  C   UNL     1      10.846  29.302  56.790  1.00  0.00     0.001 A 
HETATM   37  C   UNL     1      11.199  30.463  57.471  1.00  0.00     0.000 A 
HETATM   38  C   UNL     1      10.254  31.126  58.249  1.00  0.00     0.001 A 
HETATM   39  C   UNL     1       8.959  30.618  58.357  1.00  0.00     0.009 A 
ENDBRANCH  33  34
ENDBRANCH   1  33
TORSDOF 9
ENDMDL
MODEL 5
REMARK VINA RESULT:      -8.9      2.275      4.871
REMARK  9 active torsions:
REMARK  status: ('A' for Active; 'I' for Inactive)
REMARK    1  A    between atoms: O_2  and  C_3 
REMARK    2  A    between atoms: C_6  and  N_7 
REMARK       I    between atoms: N_7  and  C_8 
REMARK    3  A    between atoms: C_8  and  C_9 
REMARK    4  A    between atoms: C_9  and  N_10 
REMARK    5  A    between atoms: N_10  and  C_12 
REMARK    6  A    between atoms: N_10  and  C_24 
REMARK    7  A    between atoms: C_12  and  S_13 
REMARK    8  A    between atoms: S_13  and  C_14 
REMARK    9  A    between atoms: C_24  and  C_25 
ROOT
HETATM    1  N   UNL     1       6.476  26.983  53.291  1.00  0.00    -0.041 N 
HETATM    2  H   UNL     1       6.687  27.965  53.008  1.00  0.00     0.282 HD
ENDROOT
BRANCH   1   3
HETATM    3  C   UNL     1       6.178  27.059  54.889  1.00  0.00     0.208 C 
HETATM    4  C   UNL     1       7.548  27.120  55.616  1.00  0.00     0.049 C 
HETATM    5  C   UNL     1       7.582  26.684  57.089  1.00  0.00     0.003 C 
HETATM    6  C   UNL     1       6.698  25.489  57.408  1.00  0.00     0.000 C 
HETATM    7  C   UNL     1       5.289  25.659  56.856  1.00  0.00     0.003 C 
HETATM    8  C   UNL     1       5.341  25.844  55.340  1.00  0.00     0.049 C 
BRANCH   3   9
HETATM    9  C   UNL     1       5.252  28.326  55.117  1.00  0.00     0.259 C 
HETATM   10  N   UNL     1       5.808  29.407  55.761  1.00  0.00    -0.325 N 
HETATM   11  H   UNL     1       6.805  29.435  55.901  1.00  0.00     0.169 HD
HETATM   12  O   UNL     1       4.079  28.253  54.746  1.00  0.00    -0.270 OA
BRANCH  10  13
HETATM   13  C   UNL     1       5.141  30.516  56.326  1.00  0.00     0.035 A 
HETATM   14  C   UNL     1       4.859  31.698  55.645  1.00  0.00     0.032 A 
HETATM   15  C   UNL     1       4.114  32.706  56.270  1.00  0.00     0.039 A 
HETATM   16  C   UNL     1       3.637  32.549  57.572  1.00  0.00     0.068 A 
HETATM   17  C   UNL     1       3.943  31.383  58.266  1.00  0.00     0.039 A 
HETATM   18  C   UNL     1       4.687  30.373  57.645  1.00  0.00     0.032 A 
BRANCH  16  19
HETATM   19  O   UNL     1       2.899  33.595  58.050  1.00  0.00    -0.356 OA
HETATM   20  C   UNL     1       3.601  34.591  58.783  1.00  0.00     0.210 C 
ENDBRANCH  16  19
ENDBRANCH  10  13
ENDBRANCH   3   9
ENDBRANCH   1   3
BRANCH   1  21
HETATM   21  C   UNL     1       7.814  26.297  53.033  1.00  0.00     0.318 C 
BRANCH  21  22
HETATM   22  S   UNL     1       7.748  24.811  52.023  1.00  0.00    -0.064 SA
BRANCH  22  23
HETATM   23  C   UNL     1       7.990  23.565  53.176  1.00  0.00     0.169 A 
HETATM   24  N   UNL     1       7.909  22.279  52.949  1.00  0.00    -0.223 NA
HETATM   25  C   UNL     1       8.096  21.704  54.191  1.00  0.00     0.086 A 
HETATM   26  C   UNL     1       8.267  22.679  55.173  1.00  0.00     0.063 A 
HETATM   27  C   UNL     1       8.112  20.352  54.563  1.00  0.00     0.034 A 
HETATM   28  N   UNL     1       8.202  23.865  54.488  1.00  0.00    -0.333 N 
HETATM   29  C   UNL     1       8.448  22.387  56.525  1.00  0.00     0.032 A 
HETATM   30  H   UNL     1       8.276  24.790  54.885  1.00  0.00     0.168 HD
HETATM   31  C   UNL     1       8.453  21.032  56.878  1.00  0.00     0.002 A 
HETATM   32  C   UNL     1       8.290  20.032  55.917  1.00  0.00     0.002 A 
ENDBRANCH  22  23
ENDBRANCH  21  22
ENDBRANCH   1  21
BRANCH   1  33
HETATM   33  C   UNL     1       5.380  26.469  52.373  1.00  0.00     0.275 C 
BRANCH  33  34
HETATM   34  C   UNL     1       5.188  27.139  51.036  1.00  0.00    -0.033 A 
HETATM   35  C   UNL     1       5.389  28.515  50.854  1.00  0.00     0.009 A 
HETATM   36  C   UNL     1       5.192  29.104  49.604  1.00  0.00     0.001 A 
HETATM   37  C   UNL     1       4.809  28.327  48.515  1.00  0.00     0.000 A 
HETATM   38  C   UNL     1       4.639  26.954  48.668  1.00  0.00     0.001 A 
HETATM   39  C   UNL     1       4.837  26.362  49.917  1.00  0.00     0.009 A 
ENDBRANCH  33  34
ENDBRANCH   1  33
TORSDOF 9
ENDMDL
MODEL 6
REMARK VINA RESULT:      -8.9      3.827      7.181
REMARK  9 active torsions:
REMARK  status: ('A' for Active; 'I' for Inactive)
REMARK    1  A    between atoms: O_2  and  C_3 
REMARK    2  A    between atoms: C_6  and  N_7 
REMARK       I    between atoms: N_7  and  C_8 
REMARK    3  A    between atoms: C_8  and  C_9 
REMARK    4  A    between atoms: C_9  and  N_10 
REMARK    5  A    between atoms: N_10  and  C_12 
REMARK    6  A    between atoms: N_10  and  C_24 
REMARK    7  A    between atoms: C_12  and  S_13 
REMARK    8  A    between atoms: S_13  and  C_14 
REMARK    9  A    between atoms: C_24  and  C_25 
ROOT
HETATM    1  N   UNL     1       6.182  25.543  54.360  1.00  0.00    -0.041 N 
HETATM    2  H   UNL     1       5.783  24.926  55.101  1.00  0.00     0.282 HD
ENDROOT
BRANCH   1   3
HETATM    3  C   UNL     1       6.346  26.999  55.067  1.00  0.00     0.208 C 
HETATM    4  C   UNL     1       7.814  27.115  55.560  1.00  0.00     0.049 C 
HETATM    5  C   UNL     1       8.101  28.125  56.681  1.00  0.00     0.003 C 
HETATM    6  C   UNL     1       7.019  28.199  57.748  1.00  0.00     0.000 C 
HETATM    7  C   UNL     1       5.630  28.342  57.142  1.00  0.00     0.003 C 
HETATM    8  C   UNL     1       5.337  27.157  56.223  1.00  0.00     0.049 C 
BRANCH   3   9
HETATM    9  C   UNL     1       5.926  28.078  53.982  1.00  0.00     0.259 C 
HETATM   10  N   UNL     1       4.650  28.587  54.058  1.00  0.00    -0.325 N 
HETATM   11  H   UNL     1       4.098  28.405  54.880  1.00  0.00     0.169 HD
HETATM   12  O   UNL     1       6.749  28.365  53.110  1.00  0.00    -0.270 OA
BRANCH  10  13
HETATM   13  C   UNL     1       3.951  29.324  53.077  1.00  0.00     0.035 A 
HETATM   14  C   UNL     1       4.225  30.647  52.740  1.00  0.00     0.032 A 
HETATM   15  C   UNL     1       3.531  31.261  51.690  1.00  0.00     0.039 A 
HETATM   16  C   UNL     1       2.564  30.566  50.961  1.00  0.00     0.068 A 
HETATM   17  C   UNL     1       2.267  29.254  51.314  1.00  0.00     0.039 A 
HETATM   18  C   UNL     1       2.958  28.637  52.363  1.00  0.00     0.032 A 
BRANCH  16  19
HETATM   19  O   UNL     1       1.986  31.273  49.944  1.00  0.00    -0.356 OA
HETATM   20  C   UNL     1       1.073  30.566  49.113  1.00  0.00     0.210 C 
ENDBRANCH  16  19
ENDBRANCH  10  13
ENDBRANCH   3   9
ENDBRANCH   1   3
BRANCH   1  21
HETATM   21  C   UNL     1       5.045  25.572  53.342  1.00  0.00     0.318 C 
BRANCH  21  22
HETATM   22  S   UNL     1       5.411  24.838  51.743  1.00  0.00    -0.064 SA
BRANCH  22  23
HETATM   23  C   UNL     1       5.047  26.114  50.655  1.00  0.00     0.169 A 
HETATM   24  N   UNL     1       4.190  26.065  49.668  1.00  0.00    -0.223 NA
HETATM   25  C   UNL     1       4.320  27.291  49.046  1.00  0.00     0.086 A 
HETATM   26  C   UNL     1       5.296  28.068  49.669  1.00  0.00     0.063 A 
HETATM   27  C   UNL     1       3.652  27.806  47.925  1.00  0.00     0.034 A 
HETATM   28  N   UNL     1       5.739  27.287  50.705  1.00  0.00    -0.333 N 
HETATM   29  C   UNL     1       5.659  29.342  49.235  1.00  0.00     0.032 A 
HETATM   30  H   UNL     1       6.460  27.527  51.370  1.00  0.00     0.168 HD
HETATM   31  C   UNL     1       4.986  29.836  48.111  1.00  0.00     0.002 A 
HETATM   32  C   UNL     1       4.000  29.085  47.468  1.00  0.00     0.002 A 
ENDBRANCH  22  23
ENDBRANCH  21  22
ENDBRANCH   1  21
BRANCH   1  33
HETATM   33  C   UNL     1       7.424  24.857  53.816  1.00  0.00     0.275 C 
BRANCH  33  34
HETATM   34  C   UNL     1       7.606  23.384  54.078  1.00  0.00    -0.033 A 
HETATM   35  C   UNL     1       7.925  22.477  53.057  1.00  0.00     0.009 A 
HETATM   36  C   UNL     1       8.076  21.117  53.334  1.00  0.00     0.001 A 
HETATM   37  C   UNL     1       7.928  20.646  54.636  1.00  0.00     0.000 A 
HETATM   38  C   UNL     1       7.646  21.537  55.668  1.00  0.00     0.001 A 
HETATM   39  C   UNL     1       7.497  22.897  55.394  1.00  0.00     0.009 A 
ENDBRANCH  33  34
ENDBRANCH   1  33
TORSDOF 9
ENDMDL
MODEL 7
REMARK VINA RESULT:      -8.8      3.493      6.936
REMARK  9 active torsions:
REMARK  status: ('A' for Active; 'I' for Inactive)
REMARK    1  A    between atoms: O_2  and  C_3 
REMARK    2  A    between atoms: C_6  and  N_7 
REMARK       I    between atoms: N_7  and  C_8 
REMARK    3  A    between atoms: C_8  and  C_9 
REMARK    4  A    between atoms: C_9  and  N_10 
REMARK    5  A    between atoms: N_10  and  C_12 
REMARK    6  A    between atoms: N_10  and  C_24 
REMARK    7  A    between atoms: C_12  and  S_13 
REMARK    8  A    between atoms: S_13  and  C_14 
REMARK    9  A    between atoms: C_24  and  C_25 
ROOT
HETATM    1  N   UNL     1       5.593  27.183  55.016  1.00  0.00    -0.041 N 
HETATM    2  H   UNL     1       6.365  27.860  55.199  1.00  0.00     0.282 HD
ENDROOT
BRANCH   1   3
HETATM    3  C   UNL     1       5.942  26.525  53.569  1.00  0.00     0.208 C 
HETATM    4  C   UNL     1       5.124  25.211  53.445  1.00  0.00     0.049 C 
HETATM    5  C   UNL     1       5.633  24.157  52.451  1.00  0.00     0.003 C 
HETATM    6  C   UNL     1       7.147  24.020  52.407  1.00  0.00     0.000 C 
HETATM    7  C   UNL     1       7.838  25.369  52.269  1.00  0.00     0.003 C 
HETATM    8  C   UNL     1       7.458  26.273  53.442  1.00  0.00     0.049 C 
BRANCH   3   9
HETATM    9  C   UNL     1       5.598  27.623  52.477  1.00  0.00     0.259 C 
HETATM   10  N   UNL     1       4.557  27.356  51.618  1.00  0.00    -0.325 N 
HETATM   11  H   UNL     1       3.945  26.581  51.816  1.00  0.00     0.169 HD
HETATM   12  O   UNL     1       6.308  28.629  52.433  1.00  0.00    -0.270 OA
BRANCH  10  13
HETATM   13  C   UNL     1       4.238  28.016  50.411  1.00  0.00     0.035 A 
HETATM   14  C   UNL     1       3.522  29.208  50.330  1.00  0.00     0.032 A 
HETATM   15  C   UNL     1       3.334  29.828  49.088  1.00  0.00     0.039 A 
HETATM   16  C   UNL     1       3.859  29.275  47.919  1.00  0.00     0.068 A 
HETATM   17  C   UNL     1       4.548  28.069  47.992  1.00  0.00     0.039 A 
HETATM   18  C   UNL     1       4.738  27.446  49.232  1.00  0.00     0.032 A 
BRANCH  16  19
HETATM   19  O   UNL     1       3.629  29.998  46.782  1.00  0.00    -0.356 OA
HETATM   20  C   UNL     1       2.270  30.177  46.401  1.00  0.00     0.210 C 
ENDBRANCH  16  19
ENDBRANCH  10  13
ENDBRANCH   3   9
ENDBRANCH   1   3
BRANCH   1  21
HETATM   21  C   UNL     1       4.391  28.116  54.898  1.00  0.00     0.318 C 
BRANCH  21  22
HETATM   22  S   UNL     1       4.605  29.758  55.596  1.00  0.00    -0.064 SA
BRANCH  22  23
HETATM   23  C   UNL     1       6.215  29.706  56.187  1.00  0.00     0.169 A 
HETATM   24  N   UNL     1       6.596  29.969  57.410  1.00  0.00    -0.223 NA
HETATM   25  C   UNL     1       7.974  29.874  57.363  1.00  0.00     0.086 A 
HETATM   26  C   UNL     1       8.410  29.572  56.074  1.00  0.00     0.063 A 
HETATM   27  C   UNL     1       8.923  30.056  58.379  1.00  0.00     0.034 A 
HETATM   28  N   UNL     1       7.256  29.461  55.343  1.00  0.00    -0.333 N 
HETATM   29  C   UNL     1       9.755  29.443  55.727  1.00  0.00     0.032 A 
HETATM   30  H   UNL     1       7.190  29.256  54.356  1.00  0.00     0.168 HD
HETATM   31  C   UNL     1      10.688  29.634  56.754  1.00  0.00     0.002 A 
HETATM   32  C   UNL     1      10.282  29.934  58.056  1.00  0.00     0.002 A 
ENDBRANCH  22  23
ENDBRANCH  21  22
ENDBRANCH   1  21
BRANCH   1  33
HETATM   33  C   UNL     1       5.492  26.266  56.224  1.00  0.00     0.275 C 
BRANCH  33  34
HETATM   34  C   UNL     1       6.698  25.446  56.607  1.00  0.00    -0.033 A 
HETATM   35  C   UNL     1       7.758  25.980  57.354  1.00  0.00     0.009 A 
HETATM   36  C   UNL     1       8.864  25.194  57.682  1.00  0.00     0.001 A 
HETATM   37  C   UNL     1       8.920  23.861  57.285  1.00  0.00     0.000 A 
HETATM   38  C   UNL     1       7.861  23.305  56.572  1.00  0.00     0.001 A 
HETATM   39  C   UNL     1       6.753  24.087  56.245  1.00  0.00     0.009 A 
ENDBRANCH  33  34
ENDBRANCH   1  33
TORSDOF 9
ENDMDL
MODEL 8
REMARK VINA RESULT:      -8.7      5.151      7.548
REMARK  9 active torsions:
REMARK  status: ('A' for Active; 'I' for Inactive)
REMARK    1  A    between atoms: O_2  and  C_3 
REMARK    2  A    between atoms: C_6  and  N_7 
REMARK       I    between atoms: N_7  and  C_8 
REMARK    3  A    between atoms: C_8  and  C_9 
REMARK    4  A    between atoms: C_9  and  N_10 
REMARK    5  A    between atoms: N_10  and  C_12 
REMARK    6  A    between atoms: N_10  and  C_24 
REMARK    7  A    between atoms: C_12  and  S_13 
REMARK    8  A    between atoms: S_13  and  C_14 
REMARK    9  A    between atoms: C_24  and  C_25 
ROOT
HETATM    1  N   UNL     1       4.296  27.555  51.441  1.00  0.00    -0.041 N 
HETATM    2  H   UNL     1       5.263  27.915  51.595  1.00  0.00     0.282 HD
ENDROOT
BRANCH   1   3
HETATM    3  C   UNL     1       3.982  27.849  49.872  1.00  0.00     0.208 C 
HETATM    4  C   UNL     1       2.486  28.252  49.763  1.00  0.00     0.049 C 
HETATM    5  C   UNL     1       1.810  28.081  48.395  1.00  0.00     0.003 C 
HETATM    6  C   UNL     1       2.231  26.829  47.641  1.00  0.00     0.000 C 
HETATM    7  C   UNL     1       3.744  26.674  47.595  1.00  0.00     0.003 C 
HETATM    8  C   UNL     1       4.307  26.608  49.014  1.00  0.00     0.049 C 
BRANCH   3   9
HETATM    9  C   UNL     1       5.003  28.970  49.408  1.00  0.00     0.259 C 
HETATM   10  N   UNL     1       4.526  30.256  49.304  1.00  0.00    -0.325 N 
HETATM   11  H   UNL     1       3.621  30.476  49.688  1.00  0.00     0.169 HD
HETATM   12  O   UNL     1       6.150  28.619  49.124  1.00  0.00    -0.270 OA
BRANCH  10  13
HETATM   13  C   UNL     1       5.132  31.356  48.658  1.00  0.00     0.035 A 
HETATM   14  C   UNL     1       6.111  32.165  49.231  1.00  0.00     0.032 A 
HETATM   15  C   UNL     1       6.712  33.178  48.473  1.00  0.00     0.039 A 
HETATM   16  C   UNL     1       6.352  33.395  47.143  1.00  0.00     0.068 A 
HETATM   17  C   UNL     1       5.353  32.609  46.577  1.00  0.00     0.039 A 
HETATM   18  C   UNL     1       4.750  31.595  47.330  1.00  0.00     0.032 A 
BRANCH  16  19
HETATM   19  O   UNL     1       7.038  34.394  46.511  1.00  0.00    -0.356 OA
HETATM   20  C   UNL     1       7.991  35.107  47.291  1.00  0.00     0.210 C 
ENDBRANCH  16  19
ENDBRANCH  10  13
ENDBRANCH   3   9
ENDBRANCH   1   3
BRANCH   1  21
HETATM   21  C   UNL     1       3.478  28.487  52.329  1.00  0.00     0.318 C 
BRANCH  21  22
HETATM   22  S   UNL     1       4.425  29.614  53.362  1.00  0.00    -0.064 SA
BRANCH  22  23
HETATM   23  C   UNL     1       5.211  28.548  54.453  1.00  0.00     0.169 A 
HETATM   24  N   UNL     1       6.504  28.401  54.590  1.00  0.00    -0.223 NA
HETATM   25  C   UNL     1       6.632  27.382  55.514  1.00  0.00     0.086 A 
HETATM   26  C   UNL     1       5.383  26.904  55.909  1.00  0.00     0.063 A 
HETATM   27  C   UNL     1       7.787  26.795  56.050  1.00  0.00     0.034 A 
HETATM   28  N   UNL     1       4.490  27.680  55.215  1.00  0.00    -0.333 N 
HETATM   29  C   UNL     1       5.210  25.857  56.813  1.00  0.00     0.032 A 
HETATM   30  H   UNL     1       3.483  27.607  55.248  1.00  0.00     0.168 HD
HETATM   31  C   UNL     1       6.375  25.278  57.331  1.00  0.00     0.002 A 
HETATM   32  C   UNL     1       7.640  25.737  56.959  1.00  0.00     0.002 A 
ENDBRANCH  22  23
ENDBRANCH  21  22
ENDBRANCH   1  21
BRANCH   1  33
HETATM   33  C   UNL     1       4.261  26.117  51.930  1.00  0.00     0.275 C 
BRANCH  33  34
HETATM   34  C   UNL     1       5.546  25.485  52.401  1.00  0.00    -0.033 A 
HETATM   35  C   UNL     1       5.570  24.476  53.373  1.00  0.00     0.009 A 
HETATM   36  C   UNL     1       6.781  23.920  53.793  1.00  0.00     0.001 A 
HETATM   37  C   UNL     1       7.980  24.350  53.234  1.00  0.00     0.000 A 
HETATM   38  C   UNL     1       7.973  25.326  52.242  1.00  0.00     0.001 A 
HETATM   39  C   UNL     1       6.765  25.882  51.819  1.00  0.00     0.009 A 
ENDBRANCH  33  34
ENDBRANCH   1  33
TORSDOF 9
ENDMDL
MODEL 9
REMARK VINA RESULT:      -8.7      2.827      9.513
REMARK  9 active torsions:
REMARK  status: ('A' for Active; 'I' for Inactive)
REMARK    1  A    between atoms: O_2  and  C_3 
REMARK    2  A    between atoms: C_6  and  N_7 
REMARK       I    between atoms: N_7  and  C_8 
REMARK    3  A    between atoms: C_8  and  C_9 
REMARK    4  A    between atoms: C_9  and  N_10 
REMARK    5  A    between atoms: N_10  and  C_12 
REMARK    6  A    between atoms: N_10  and  C_24 
REMARK    7  A    between atoms: C_12  and  S_13 
REMARK    8  A    between atoms: S_13  and  C_14 
REMARK    9  A    between atoms: C_24  and  C_25 
ROOT
HETATM    1  N   UNL     1       5.781  28.409  56.230  1.00  0.00    -0.041 N 
HETATM    2  H   UNL     1       5.442  27.428  56.337  1.00  0.00     0.282 HD
ENDROOT
BRANCH   1   3
HETATM    3  C   UNL     1       7.346  28.366  56.670  1.00  0.00     0.208 C 
HETATM    4  C   UNL     1       7.459  29.050  58.060  1.00  0.00     0.049 C 
HETATM    5  C   UNL     1       8.835  29.599  58.464  1.00  0.00     0.003 C 
HETATM    6  C   UNL     1       9.609  30.245  57.325  1.00  0.00     0.000 C 
HETATM    7  C   UNL     1       9.647  29.361  56.087  1.00  0.00     0.003 C 
HETATM    8  C   UNL     1       8.225  29.066  55.612  1.00  0.00     0.049 C 
BRANCH   3   9
HETATM    9  C   UNL     1       7.781  26.841  56.648  1.00  0.00     0.259 C 
HETATM   10  N   UNL     1       7.813  26.211  55.425  1.00  0.00    -0.325 N 
HETATM   11  H   UNL     1       7.741  26.764  54.586  1.00  0.00     0.169 HD
HETATM   12  O   UNL     1       8.021  26.297  57.727  1.00  0.00    -0.270 OA
BRANCH  10  13
HETATM   13  C   UNL     1       7.887  24.825  55.166  1.00  0.00     0.035 A 
HETATM   14  C   UNL     1       7.757  23.833  56.135  1.00  0.00     0.032 A 
HETATM   15  C   UNL     1       7.758  22.483  55.760  1.00  0.00     0.039 A 
HETATM   16  C   UNL     1       7.882  22.106  54.423  1.00  0.00     0.068 A 
HETATM   17  C   UNL     1       8.042  23.093  53.455  1.00  0.00     0.039 A 
HETATM   18  C   UNL     1       8.042  24.443  53.825  1.00  0.00     0.032 A 
BRANCH  16  19
HETATM   19  O   UNL     1       7.836  20.760  54.193  1.00  0.00    -0.356 OA
HETATM   20  C   UNL     1       8.189  20.322  52.886  1.00  0.00     0.210 C 
ENDBRANCH  16  19
ENDBRANCH  10  13
ENDBRANCH   3   9
ENDBRANCH   1   3
BRANCH   1  21
HETATM   21  C   UNL     1       4.952  29.136  57.285  1.00  0.00     0.318 C 
BRANCH  21  22
HETATM   22  S   UNL     1       4.202  30.683  56.760  1.00  0.00    -0.064 SA
BRANCH  22  23
HETATM   23  C   UNL     1       4.203  31.607  58.206  1.00  0.00     0.169 A 
HETATM   24  N   UNL     1       3.248  32.404  58.611  1.00  0.00    -0.223 NA
HETATM   25  C   UNL     1       3.751  32.973  59.765  1.00  0.00     0.086 A 
HETATM   26  C   UNL     1       5.041  32.516  60.028  1.00  0.00     0.063 A 
HETATM   27  C   UNL     1       3.169  33.909  60.633  1.00  0.00     0.034 A 
HETATM   28  N   UNL     1       5.300  31.633  59.012  1.00  0.00    -0.333 N 
HETATM   29  C   UNL     1       5.803  32.945  61.114  1.00  0.00     0.032 A 
HETATM   30  H   UNL     1       6.155  31.112  58.875  1.00  0.00     0.168 HD
HETATM   31  C   UNL     1       5.209  33.884  61.965  1.00  0.00     0.002 A 
HETATM   32  C   UNL     1       3.916  34.358  61.732  1.00  0.00     0.002 A 
ENDBRANCH  22  23
ENDBRANCH  21  22
ENDBRANCH   1  21
BRANCH   1  33
HETATM   33  C   UNL     1       5.437  28.859  54.819  1.00  0.00     0.275 C 
BRANCH  33  34
HETATM   34  C   UNL     1       5.346  27.816  53.734  1.00  0.00    -0.033 A 
HETATM   35  C   UNL     1       4.810  26.542  53.965  1.00  0.00     0.009 A 
HETATM   36  C   UNL     1       4.751  25.597  52.938  1.00  0.00     0.001 A 
HETATM   37  C   UNL     1       5.209  25.918  51.664  1.00  0.00     0.000 A 
HETATM   38  C   UNL     1       5.712  27.190  51.406  1.00  0.00     0.001 A 
HETATM   39  C   UNL     1       5.770  28.137  52.430  1.00  0.00     0.009 A 
ENDBRANCH  33  34
ENDBRANCH   1  33
TORSDOF 9
ENDMDL
MODEL 10
REMARK VINA RESULT:      -8.6      5.262      8.693
REMARK  9 active torsions:
REMARK  status: ('A' for Active; 'I' for Inactive)
REMARK    1  A    between atoms: O_2  and  C_3 
REMARK    2  A    between atoms: C_6  and  N_7 
REMARK       I    between atoms: N_7  and  C_8 
REMARK    3  A    between atoms: C_8  and  C_9 
REMARK    4  A    between atoms: C_9  and  N_10 
REMARK    5  A    between atoms: N_10  and  C_12 
REMARK    6  A    between atoms: N_10  and  C_24 
REMARK    7  A    between atoms: C_12  and  S_13 
REMARK    8  A    between atoms: S_13  and  C_14 
REMARK    9  A    between atoms: C_24  and  C_25 
ROOT
HETATM    1  N   UNL     1       4.538  32.822  60.701  1.00  0.00    -0.041 N 
HETATM    2  H   UNL     1       4.631  32.219  61.547  1.00  0.00     0.282 HD
ENDROOT
BRANCH   1   3
HETATM    3  C   UNL     1       3.606  34.070  61.172  1.00  0.00     0.208 C 
HETATM    4  C   UNL     1       2.187  33.840  60.585  1.00  0.00     0.049 C 
HETATM    5  C   UNL     1       1.281  35.070  60.434  1.00  0.00     0.003 C 
HETATM    6  C   UNL     1       2.005  36.329  59.983  1.00  0.00     0.000 C 
HETATM    7  C   UNL     1       3.257  36.594  60.807  1.00  0.00     0.003 C 
HETATM    8  C   UNL     1       4.214  35.407  60.699  1.00  0.00     0.049 C 
BRANCH   3   9
HETATM    9  C   UNL     1       3.668  34.108  62.757  1.00  0.00     0.259 C 
HETATM   10  N   UNL     1       4.686  34.832  63.332  1.00  0.00    -0.325 N 
HETATM   11  H   UNL     1       5.237  35.447  62.755  1.00  0.00     0.169 HD
HETATM   12  O   UNL     1       2.829  33.453  63.379  1.00  0.00    -0.270 OA
BRANCH  10  13
HETATM   13  C   UNL     1       5.124  34.797  64.674  1.00  0.00     0.035 A 
HETATM   14  C   UNL     1       4.479  35.436  65.731  1.00  0.00     0.032 A 
HETATM   15  C   UNL     1       4.945  35.265  67.041  1.00  0.00     0.039 A 
HETATM   16  C   UNL     1       6.049  34.456  67.314  1.00  0.00     0.068 A 
HETATM   17  C   UNL     1       6.713  33.841  66.259  1.00  0.00     0.039 A 
HETATM   18  C   UNL     1       6.251  34.009  64.948  1.00  0.00     0.032 A 
BRANCH  16  19
HETATM   19  O   UNL     1       6.379  34.352  68.637  1.00  0.00    -0.356 OA
HETATM   20  C   UNL     1       7.612  34.938  69.036  1.00  0.00     0.210 C 
ENDBRANCH  16  19
ENDBRANCH  10  13
ENDBRANCH   3   9
ENDBRANCH   1   3
BRANCH   1  21
HETATM   21  C   UNL     1       3.763  31.908  59.757  1.00  0.00     0.318 C 
BRANCH  21  22
HETATM   22  S   UNL     1       4.229  31.998  58.024  1.00  0.00    -0.064 SA
BRANCH  22  23
HETATM   23  C   UNL     1       5.174  30.582  57.817  1.00  0.00     0.169 A 
HETATM   24  N   UNL     1       6.481  30.522  57.805  1.00  0.00    -0.223 NA
HETATM   25  C   UNL     1       6.756  29.197  57.524  1.00  0.00     0.086 A 
HETATM   26  C   UNL     1       5.580  28.469  57.343  1.00  0.00     0.063 A 
HETATM   27  C   UNL     1       7.990  28.545  57.386  1.00  0.00     0.034 A 
HETATM   28  N   UNL     1       4.581  29.385  57.546  1.00  0.00    -0.333 N 
HETATM   29  C   UNL     1       5.557  27.112  57.022  1.00  0.00     0.032 A 
HETATM   30  H   UNL     1       3.588  29.211  57.486  1.00  0.00     0.168 HD
HETATM   31  C   UNL     1       6.798  26.481  56.881  1.00  0.00     0.002 A 
HETATM   32  C   UNL     1       7.993  27.180  57.060  1.00  0.00     0.002 A 
ENDBRANCH  22  23
ENDBRANCH  21  22
ENDBRANCH   1  21
BRANCH   1  33
HETATM   33  C   UNL     1       5.940  33.116  60.194  1.00  0.00     0.275 C 
BRANCH  33  34
HETATM   34  C   UNL     1       7.107  32.444  60.873  1.00  0.00    -0.033 A 
HETATM   35  C   UNL     1       6.974  31.777  62.099  1.00  0.00     0.009 A 
HETATM   36  C   UNL     1       8.079  31.175  62.705  1.00  0.00     0.001 A 
HETATM   37  C   UNL     1       9.325  31.213  62.086  1.00  0.00     0.000 A 
HETATM   38  C   UNL     1       9.468  31.841  60.852  1.00  0.00     0.001 A 
HETATM   39  C   UNL     1       8.366  32.442  60.243  1.00  0.00     0.009 A 
ENDBRANCH  33  34
ENDBRANCH   1  33
TORSDOF 9
ENDMDL
