MODEL 1
REMARK VINA RESULT:      -9.7      0.000      0.000
REMARK  7 active torsions:
REMARK  status: ('A' for Active; 'I' for Inactive)
REMARK    1  A    between atoms: C_3  and  N_4 
REMARK       I    between atoms: N_4  and  C_5 
REMARK    2  A    between atoms: C_5  and  C_6 
REMARK    3  A    between atoms: C_7  and  C_8 
REMARK    4  A    between atoms: C_19  and  C_20 
REMARK    5  A    between atoms: C_20  and  C_21 
REMARK    6  A    between atoms: C_21  and  C_22 
REMARK    7  A    between atoms: C_22  and  O_23 
ROOT
HETATM    1  C   UNL     1       6.296  26.490  53.795  1.00  0.00     0.062 C 
HETATM    2  C   UNL     1       6.212  27.048  55.222  1.00  0.00     0.202 C 
HETATM    3  N   UNL     1       5.078  27.969  55.360  1.00  0.00    -0.083 N 
HETATM    4  C   UNL     1       4.387  28.489  54.301  1.00  0.00     0.726 A 
HETATM    5  N   UNL     1       4.664  28.056  53.058  1.00  0.00    -0.192 N 
HETATM    6  N   UNL     1       4.662  28.503  56.528  1.00  0.00    -0.140 NA
HETATM    7  C   UNL     1       3.772  29.404  56.086  1.00  0.00     0.166 A 
HETATM    8  N   UNL     1       3.551  29.399  54.728  1.00  0.00    -0.046 NA
HETATM    9  C   UNL     1       5.580  27.049  52.783  1.00  0.00     0.037 C 
HETATM   10  C   UNL     1       5.727  26.701  51.321  1.00  0.00     0.070 C 
HETATM   11  H   UNL     1       4.150  28.461  52.280  1.00  0.00     0.184 HD
ENDROOT
BRANCH   1  12
HETATM   12  C   UNL     1       7.225  25.328  53.633  1.00  0.00     0.256 C 
HETATM   13  N   UNL     1       6.972  24.283  54.490  1.00  0.00    -0.323 N 
HETATM   14  H   UNL     1       6.430  24.509  55.315  1.00  0.00     0.169 HD
HETATM   15  O   UNL     1       8.195  25.422  52.893  1.00  0.00    -0.267 OA
BRANCH  13  16
HETATM   16  C   UNL     1       7.492  22.967  54.451  1.00  0.00     0.041 A 
HETATM   17  C   UNL     1       8.103  22.279  55.517  1.00  0.00    -0.035 A 
HETATM   18  C   UNL     1       8.353  22.848  56.886  1.00  0.00     0.050 C 
HETATM   19  C   UNL     1       8.564  20.964  55.297  1.00  0.00     0.009 A 
HETATM   20  C   UNL     1       8.482  20.360  54.046  1.00  0.00     0.001 A 
HETATM   21  C   UNL     1       7.931  21.061  52.983  1.00  0.00     0.002 A 
HETATM   22  C   UNL     1       7.446  22.353  53.185  1.00  0.00     0.030 A 
ENDBRANCH  13  16
ENDBRANCH   1  12
BRANCH   2  23
HETATM   23  C   UNL     1       7.486  27.771  55.669  1.00  0.00    -0.028 A 
HETATM   24  C   UNL     1       8.217  28.591  54.789  1.00  0.00     0.011 A 
HETATM   25  C   UNL     1       9.371  29.250  55.221  1.00  0.00     0.024 A 
HETATM   26  C   UNL     1       9.808  29.093  56.534  1.00  0.00     0.034 A 
HETATM   27 CL   UNL     1      11.231  29.902  57.064  1.00  0.00    -0.084 Cl
HETATM   28  C   UNL     1       9.098  28.288  57.422  1.00  0.00     0.024 A 
HETATM   29  C   UNL     1       7.942  27.631  56.993  1.00  0.00     0.011 A 
ENDBRANCH   2  23
BRANCH   7  30
HETATM   30  C   UNL     1       3.148  30.418  56.972  1.00  0.00     0.085 C 
BRANCH  30  31
HETATM   31  C   UNL     1       4.084  30.879  58.091  1.00  0.00     0.034 C 
BRANCH  31  32
HETATM   32  C   UNL     1       3.341  31.397  59.319  1.00  0.00     0.164 C 
BRANCH  32  33
HETATM   33  O   UNL     1       2.760  30.308  60.028  1.00  0.00    -0.401 OA
HETATM   34  H   UNL     1       1.909  30.102  59.607  1.00  0.00     0.209 HD
ENDBRANCH  32  33
ENDBRANCH  31  32
ENDBRANCH  30  31
ENDBRANCH   7  30
TORSDOF 7
ENDMDL
MODEL 2
REMARK VINA RESULT:      -9.4      3.156      7.041
REMARK  7 active torsions:
REMARK  status: ('A' for Active; 'I' for Inactive)
REMARK    1  A    between atoms: C_3  and  N_4 
REMARK       I    between atoms: N_4  and  C_5 
REMARK    2  A    between atoms: C_5  and  C_6 
REMARK    3  A    between atoms: C_7  and  C_8 
REMARK    4  A    between atoms: C_19  and  C_20 
REMARK    5  A    between atoms: C_20  and  C_21 
REMARK    6  A    between atoms: C_21  and  C_22 
REMARK    7  A    between atoms: C_22  and  O_23 
ROOT
HETATM    1  C   UNL     1       5.833  28.131  54.362  1.00  0.00     0.062 C 
HETATM    2  C   UNL     1       6.398  27.661  53.015  1.00  0.00     0.202 C 
HETATM    3  N   UNL     1       5.460  27.950  51.923  1.00  0.00    -0.083 N 
HETATM    4  C   UNL     1       4.153  28.301  52.117  1.00  0.00     0.726 A 
HETATM    5  N   UNL     1       3.707  28.519  53.367  1.00  0.00    -0.192 N 
HETATM    6  N   UNL     1       5.736  27.786  50.612  1.00  0.00    -0.140 NA
HETATM    7  C   UNL     1       4.521  27.974  50.076  1.00  0.00     0.166 A 
HETATM    8  N   UNL     1       3.532  28.327  50.966  1.00  0.00    -0.046 NA
HETATM    9  C   UNL     1       4.523  28.471  54.490  1.00  0.00     0.037 C 
HETATM   10  C   UNL     1       3.827  28.766  55.797  1.00  0.00     0.070 C 
HETATM   11  H   UNL     1       2.731  28.768  53.494  1.00  0.00     0.184 HD
ENDROOT
BRANCH   1  12
HETATM   12  C   UNL     1       6.827  28.154  55.481  1.00  0.00     0.256 C 
HETATM   13  N   UNL     1       7.698  29.218  55.437  1.00  0.00    -0.323 N 
HETATM   14  H   UNL     1       7.793  29.673  54.537  1.00  0.00     0.169 HD
HETATM   15  O   UNL     1       6.904  27.203  56.247  1.00  0.00    -0.267 OA
BRANCH  13  16
HETATM   16  C   UNL     1       8.588  29.668  56.440  1.00  0.00     0.041 A 
HETATM   17  C   UNL     1       8.232  30.256  57.669  1.00  0.00    -0.035 A 
HETATM   18  C   UNL     1       6.825  30.551  58.114  1.00  0.00     0.050 C 
HETATM   19  C   UNL     1       9.257  30.645  58.557  1.00  0.00     0.009 A 
HETATM   20  C   UNL     1      10.602  30.516  58.220  1.00  0.00     0.001 A 
HETATM   21  C   UNL     1      10.951  29.990  56.984  1.00  0.00     0.002 A 
HETATM   22  C   UNL     1       9.952  29.575  56.104  1.00  0.00     0.030 A 
ENDBRANCH  13  16
ENDBRANCH   1  12
BRANCH   2  23
HETATM   23  C   UNL     1       6.740  26.169  52.984  1.00  0.00    -0.028 A 
HETATM   24  C   UNL     1       7.969  25.704  52.480  1.00  0.00     0.011 A 
HETATM   25  C   UNL     1       8.264  24.338  52.470  1.00  0.00     0.024 A 
HETATM   26  C   UNL     1       7.334  23.425  52.959  1.00  0.00     0.034 A 
HETATM   27 CL   UNL     1       7.697  21.743  52.942  1.00  0.00    -0.084 Cl
HETATM   28  C   UNL     1       6.112  23.864  53.463  1.00  0.00     0.024 A 
HETATM   29  C   UNL     1       5.817  25.229  53.478  1.00  0.00     0.011 A 
ENDBRANCH   2  23
BRANCH   7  30
HETATM   30  C   UNL     1       4.224  27.711  48.647  1.00  0.00     0.085 C 
BRANCH  30  31
HETATM   31  C   UNL     1       3.418  26.427  48.439  1.00  0.00     0.034 C 
BRANCH  31  32
HETATM   32  C   UNL     1       1.998  26.684  47.946  1.00  0.00     0.164 C 
BRANCH  32  33
HETATM   33  O   UNL     1       1.246  27.343  48.959  1.00  0.00    -0.401 OA
HETATM   34  H   UNL     1       0.317  27.362  48.672  1.00  0.00     0.209 HD
ENDBRANCH  32  33
ENDBRANCH  31  32
ENDBRANCH  30  31
ENDBRANCH   7  30
TORSDOF 7
ENDMDL
MODEL 3
REMARK VINA RESULT:      -9.2      1.615      2.439
REMARK  7 active torsions:
REMARK  status: ('A' for Active; 'I' for Inactive)
REMARK    1  A    between atoms: C_3  and  N_4 
REMARK       I    between atoms: N_4  and  C_5 
REMARK    2  A    between atoms: C_5  and  C_6 
REMARK    3  A    between atoms: C_7  and  C_8 
REMARK    4  A    between atoms: C_19  and  C_20 
REMARK    5  A    between atoms: C_20  and  C_21 
REMARK    6  A    between atoms: C_21  and  C_22 
REMARK    7  A    between atoms: C_22  and  O_23 
ROOT
HETATM    1  C   UNL     1       6.921  25.961  54.346  1.00  0.00     0.062 C 
HETATM    2  C   UNL     1       6.193  27.024  55.179  1.00  0.00     0.202 C 
HETATM    3  N   UNL     1       5.352  27.874  54.328  1.00  0.00    -0.083 N 
HETATM    4  C   UNL     1       5.443  27.911  52.964  1.00  0.00     0.726 A 
HETATM    5  N   UNL     1       6.256  27.044  52.334  1.00  0.00    -0.192 N 
HETATM    6  N   UNL     1       4.484  28.800  54.787  1.00  0.00    -0.140 NA
HETATM    7  C   UNL     1       4.151  29.418  53.645  1.00  0.00     0.166 A 
HETATM    8  N   UNL     1       4.693  28.877  52.501  1.00  0.00    -0.046 NA
HETATM    9  C   UNL     1       6.973  26.051  52.991  1.00  0.00     0.037 C 
HETATM   10  C   UNL     1       7.811  25.171  52.094  1.00  0.00     0.070 C 
HETATM   11  H   UNL     1       6.321  27.092  51.321  1.00  0.00     0.184 HD
ENDROOT
BRANCH   1  12
HETATM   12  C   UNL     1       7.560  24.871  55.147  1.00  0.00     0.256 C 
HETATM   13  N   UNL     1       7.159  23.604  54.791  1.00  0.00    -0.323 N 
HETATM   14  H   UNL     1       6.287  23.544  54.282  1.00  0.00     0.169 HD
HETATM   15  O   UNL     1       8.252  25.151  56.117  1.00  0.00    -0.267 OA
BRANCH  13  16
HETATM   16  C   UNL     1       7.725  22.364  55.170  1.00  0.00     0.041 A 
HETATM   17  C   UNL     1       8.066  21.303  54.307  1.00  0.00    -0.035 A 
HETATM   18  C   UNL     1       7.842  21.290  52.820  1.00  0.00     0.050 C 
HETATM   19  C   UNL     1       8.627  20.133  54.861  1.00  0.00     0.009 A 
HETATM   20  C   UNL     1       8.792  19.983  56.235  1.00  0.00     0.001 A 
HETATM   21  C   UNL     1       8.403  21.005  57.088  1.00  0.00     0.002 A 
HETATM   22  C   UNL     1       7.871  22.181  56.558  1.00  0.00     0.030 A 
ENDBRANCH  13  16
ENDBRANCH   1  12
BRANCH   2  23
HETATM   23  C   UNL     1       7.138  27.921  55.984  1.00  0.00    -0.028 A 
HETATM   24  C   UNL     1       6.986  28.097  57.372  1.00  0.00     0.011 A 
HETATM   25  C   UNL     1       7.866  28.913  58.088  1.00  0.00     0.024 A 
HETATM   26  C   UNL     1       8.903  29.564  57.424  1.00  0.00     0.034 A 
HETATM   27 CL   UNL     1       9.983  30.571  58.306  1.00  0.00    -0.084 Cl
HETATM   28  C   UNL     1       9.072  29.401  56.051  1.00  0.00     0.024 A 
HETATM   29  C   UNL     1       8.196  28.583  55.334  1.00  0.00     0.011 A 
ENDBRANCH   2  23
BRANCH   7  30
HETATM   30  C   UNL     1       3.350  30.666  53.611  1.00  0.00     0.085 C 
BRANCH  30  31
HETATM   31  C   UNL     1       3.644  31.588  54.795  1.00  0.00     0.034 C 
BRANCH  31  32
HETATM   32  C   UNL     1       2.512  31.634  55.816  1.00  0.00     0.164 C 
BRANCH  32  33
HETATM   33  O   UNL     1       2.695  30.610  56.788  1.00  0.00    -0.401 OA
HETATM   34  H   UNL     1       2.832  31.041  57.648  1.00  0.00     0.209 HD
ENDBRANCH  32  33
ENDBRANCH  31  32
ENDBRANCH  30  31
ENDBRANCH   7  30
TORSDOF 7
ENDMDL
MODEL 4
REMARK VINA RESULT:      -9.2      2.221      2.741
REMARK  7 active torsions:
REMARK  status: ('A' for Active; 'I' for Inactive)
REMARK    1  A    between atoms: C_3  and  N_4 
REMARK       I    between atoms: N_4  and  C_5 
REMARK    2  A    between atoms: C_5  and  C_6 
REMARK    3  A    between atoms: C_7  and  C_8 
REMARK    4  A    between atoms: C_19  and  C_20 
REMARK    5  A    between atoms: C_20  and  C_21 
REMARK    6  A    between atoms: C_21  and  C_22 
REMARK    7  A    between atoms: C_22  and  O_23 
ROOT
HETATM    1  C   UNL     1       4.794  26.838  52.797  1.00  0.00     0.062 C 
HETATM    2  C   UNL     1       4.551  27.756  54.002  1.00  0.00     0.202 C 
HETATM    3  N   UNL     1       3.990  29.044  53.577  1.00  0.00    -0.083 N 
HETATM    4  C   UNL     1       3.976  29.476  52.279  1.00  0.00     0.726 A 
HETATM    5  N   UNL     1       4.382  28.644  51.303  1.00  0.00    -0.192 N 
HETATM    6  N   UNL     1       3.538  29.998  54.417  1.00  0.00    -0.140 NA
HETATM    7  C   UNL     1       3.347  31.014  53.562  1.00  0.00     0.166 A 
HETATM    8  N   UNL     1       3.572  30.719  52.236  1.00  0.00    -0.046 NA
HETATM    9  C   UNL     1       4.763  27.327  51.529  1.00  0.00     0.037 C 
HETATM   10  C   UNL     1       5.166  26.560  50.292  1.00  0.00     0.070 C 
HETATM   11  H   UNL     1       4.377  28.984  50.346  1.00  0.00     0.184 HD
ENDROOT
BRANCH   1  12
HETATM   12  C   UNL     1       5.079  25.411  53.147  1.00  0.00     0.256 C 
HETATM   13  N   UNL     1       6.418  25.117  53.256  1.00  0.00    -0.323 N 
HETATM   14  H   UNL     1       7.050  25.763  52.801  1.00  0.00     0.169 HD
HETATM   15  O   UNL     1       4.167  24.595  53.169  1.00  0.00    -0.267 OA
BRANCH  13  16
HETATM   16  C   UNL     1       7.022  23.954  53.792  1.00  0.00     0.041 A 
HETATM   17  C   UNL     1       7.177  23.648  55.158  1.00  0.00    -0.035 A 
HETATM   18  C   UNL     1       6.762  24.537  56.298  1.00  0.00     0.050 C 
HETATM   19  C   UNL     1       7.805  22.436  55.513  1.00  0.00     0.009 A 
HETATM   20  C   UNL     1       8.322  21.572  54.551  1.00  0.00     0.001 A 
HETATM   21  C   UNL     1       8.219  21.903  53.208  1.00  0.00     0.002 A 
HETATM   22  C   UNL     1       7.579  23.085  52.835  1.00  0.00     0.030 A 
ENDBRANCH  13  16
ENDBRANCH   1  12
BRANCH   2  23
HETATM   23  C   UNL     1       5.812  28.022  54.830  1.00  0.00    -0.028 A 
HETATM   24  C   UNL     1       5.795  27.969  56.236  1.00  0.00     0.011 A 
HETATM   25  C   UNL     1       6.960  28.205  56.972  1.00  0.00     0.024 A 
HETATM   26  C   UNL     1       8.149  28.500  56.311  1.00  0.00     0.034 A 
HETATM   27 CL   UNL     1       9.581  28.795  57.217  1.00  0.00    -0.084 Cl
HETATM   28  C   UNL     1       8.187  28.556  54.919  1.00  0.00     0.024 A 
HETATM   29  C   UNL     1       7.025  28.316  54.182  1.00  0.00     0.011 A 
ENDBRANCH   2  23
BRANCH   7  30
HETATM   30  C   UNL     1       3.029  32.392  54.009  1.00  0.00     0.085 C 
BRANCH  30  31
HETATM   31  C   UNL     1       2.003  32.421  55.143  1.00  0.00     0.034 C 
BRANCH  31  32
HETATM   32  C   UNL     1       0.723  33.166  54.775  1.00  0.00     0.164 C 
BRANCH  32  33
HETATM   33  O   UNL     1      -0.407  32.473  55.295  1.00  0.00    -0.401 OA
HETATM   34  H   UNL     1      -0.842  32.020  54.554  1.00  0.00     0.209 HD
ENDBRANCH  32  33
ENDBRANCH  31  32
ENDBRANCH  30  31
ENDBRANCH   7  30
TORSDOF 7
ENDMDL
MODEL 5
REMARK VINA RESULT:      -9.1      3.853      8.525
REMARK  7 active torsions:
REMARK  status: ('A' for Active; 'I' for Inactive)
REMARK    1  A    between atoms: C_3  and  N_4 
REMARK       I    between atoms: N_4  and  C_5 
REMARK    2  A    between atoms: C_5  and  C_6 
REMARK    3  A    between atoms: C_7  and  C_8 
REMARK    4  A    between atoms: C_19  and  C_20 
REMARK    5  A    between atoms: C_20  and  C_21 
REMARK    6  A    between atoms: C_21  and  C_22 
REMARK    7  A    between atoms: C_22  and  O_23 
ROOT
HETATM    1  C   UNL     1       7.507  30.047  58.108  1.00  0.00     0.062 C 
HETATM    2  C   UNL     1       6.219  29.269  57.815  1.00  0.00     0.202 C 
HETATM    3  N   UNL     1       6.511  28.015  57.110  1.00  0.00    -0.083 N 
HETATM    4  C   UNL     1       7.717  27.732  56.530  1.00  0.00     0.726 A 
HETATM    5  N   UNL     1       8.746  28.580  56.703  1.00  0.00    -0.192 N 
HETATM    6  N   UNL     1       5.601  27.053  56.846  1.00  0.00    -0.140 NA
HETATM    7  C   UNL     1       6.308  26.260  56.028  1.00  0.00     0.166 A 
HETATM    8  N   UNL     1       7.622  26.625  55.839  1.00  0.00    -0.046 NA
HETATM    9  C   UNL     1       8.678  29.715  57.502  1.00  0.00     0.037 C 
HETATM   10  C   UNL     1       9.953  30.521  57.575  1.00  0.00     0.070 C 
HETATM   11  H   UNL     1       9.632  28.361  56.256  1.00  0.00     0.184 HD
ENDROOT
BRANCH   1  12
HETATM   12  C   UNL     1       7.347  31.178  59.074  1.00  0.00     0.256 C 
HETATM   13  N   UNL     1       7.229  30.784  60.387  1.00  0.00    -0.323 N 
HETATM   14  H   UNL     1       6.951  29.822  60.535  1.00  0.00     0.169 HD
HETATM   15  O   UNL     1       7.189  32.318  58.658  1.00  0.00    -0.267 OA
BRANCH  13  16
HETATM   16  C   UNL     1       7.298  31.580  61.554  1.00  0.00     0.041 A 
HETATM   17  C   UNL     1       8.471  32.067  62.163  1.00  0.00    -0.035 A 
HETATM   18  C   UNL     1       9.873  31.784  61.696  1.00  0.00     0.050 C 
HETATM   19  C   UNL     1       8.353  32.854  63.328  1.00  0.00     0.009 A 
HETATM   20  C   UNL     1       7.117  33.105  63.917  1.00  0.00     0.001 A 
HETATM   21  C   UNL     1       5.967  32.576  63.348  1.00  0.00     0.002 A 
HETATM   22  C   UNL     1       6.061  31.818  62.181  1.00  0.00     0.030 A 
ENDBRANCH  13  16
ENDBRANCH   1  12
BRANCH   2  23
HETATM   23  C   UNL     1       5.199  30.064  56.993  1.00  0.00    -0.028 A 
HETATM   24  C   UNL     1       5.442  30.409  55.651  1.00  0.00     0.011 A 
HETATM   25  C   UNL     1       4.494  31.126  54.917  1.00  0.00     0.024 A 
HETATM   26  C   UNL     1       3.297  31.509  55.518  1.00  0.00     0.034 A 
HETATM   27 CL   UNL     1       2.132  32.396  54.614  1.00  0.00    -0.084 Cl
HETATM   28  C   UNL     1       3.037  31.176  56.845  1.00  0.00     0.024 A 
HETATM   29  C   UNL     1       3.982  30.455  57.579  1.00  0.00     0.011 A 
ENDBRANCH   2  23
BRANCH   7  30
HETATM   30  C   UNL     1       5.700  25.131  55.281  1.00  0.00     0.085 C 
BRANCH  30  31
HETATM   31  C   UNL     1       6.362  24.899  53.921  1.00  0.00     0.034 C 
BRANCH  31  32
HETATM   32  C   UNL     1       5.366  24.873  52.766  1.00  0.00     0.164 C 
BRANCH  32  33
HETATM   33  O   UNL     1       4.062  25.187  53.244  1.00  0.00    -0.401 OA
HETATM   34  H   UNL     1       4.044  26.136  53.451  1.00  0.00     0.209 HD
ENDBRANCH  32  33
ENDBRANCH  31  32
ENDBRANCH  30  31
ENDBRANCH   7  30
TORSDOF 7
ENDMDL
MODEL 6
REMARK VINA RESULT:      -9.0      1.730      2.254
REMARK  7 active torsions:
REMARK  status: ('A' for Active; 'I' for Inactive)
REMARK    1  A    between atoms: C_3  and  N_4 
REMARK       I    between atoms: N_4  and  C_5 
REMARK    2  A    between atoms: C_5  and  C_6 
REMARK    3  A    between atoms: C_7  and  C_8 
REMARK    4  A    between atoms: C_19  and  C_20 
REMARK    5  A    between atoms: C_20  and  C_21 
REMARK    6  A    between atoms: C_21  and  C_22 
REMARK    7  A    between atoms: C_22  and  O_23 
ROOT
HETATM    1  C   UNL     1       5.075  27.464  55.395  1.00  0.00     0.062 C 
HETATM    2  C   UNL     1       5.403  28.364  56.593  1.00  0.00     0.202 C 
HETATM    3  N   UNL     1       4.645  29.620  56.529  1.00  0.00    -0.083 N 
HETATM    4  C   UNL     1       3.983  30.052  55.413  1.00  0.00     0.726 A 
HETATM    5  N   UNL     1       3.905  29.246  54.339  1.00  0.00    -0.192 N 
HETATM    6  N   UNL     1       4.610  30.546  57.510  1.00  0.00    -0.140 NA
HETATM    7  C   UNL     1       3.981  31.550  56.883  1.00  0.00     0.166 A 
HETATM    8  N   UNL     1       3.549  31.271  55.606  1.00  0.00    -0.046 NA
HETATM    9  C   UNL     1       4.410  27.952  54.315  1.00  0.00     0.037 C 
HETATM   10  C   UNL     1       4.201  27.210  53.016  1.00  0.00     0.070 C 
HETATM   11  H   UNL     1       3.420  29.587  53.514  1.00  0.00     0.184 HD
ENDROOT
BRANCH   1  12
HETATM   12  C   UNL     1       5.563  26.055  55.523  1.00  0.00     0.256 C 
HETATM   13  N   UNL     1       6.531  25.710  54.608  1.00  0.00    -0.323 N 
HETATM   14  H   UNL     1       6.586  26.293  53.783  1.00  0.00     0.169 HD
HETATM   15  O   UNL     1       5.004  25.283  56.291  1.00  0.00    -0.267 OA
BRANCH  13  16
HETATM   16  C   UNL     1       7.361  24.564  54.595  1.00  0.00     0.041 A 
HETATM   17  C   UNL     1       8.252  24.168  55.611  1.00  0.00    -0.035 A 
HETATM   18  C   UNL     1       8.511  24.929  56.882  1.00  0.00     0.050 C 
HETATM   19  C   UNL     1       9.003  22.987  55.430  1.00  0.00     0.009 A 
HETATM   20  C   UNL     1       8.927  22.246  54.254  1.00  0.00     0.001 A 
HETATM   21  C   UNL     1       8.092  22.670  53.231  1.00  0.00     0.002 A 
HETATM   22  C   UNL     1       7.321  23.820  53.401  1.00  0.00     0.030 A 
ENDBRANCH  13  16
ENDBRANCH   1  12
BRANCH   2  23
HETATM   23  C   UNL     1       6.892  28.699  56.715  1.00  0.00    -0.028 A 
HETATM   24  C   UNL     1       7.531  28.776  57.967  1.00  0.00     0.011 A 
HETATM   25  C   UNL     1       8.893  29.074  58.056  1.00  0.00     0.024 A 
HETATM   26  C   UNL     1       9.629  29.301  56.895  1.00  0.00     0.034 A 
HETATM   27 CL   UNL     1      11.306  29.672  57.005  1.00  0.00    -0.084 Cl
HETATM   28  C   UNL     1       9.017  29.228  55.646  1.00  0.00     0.024 A 
HETATM   29  C   UNL     1       7.656  28.927  55.556  1.00  0.00     0.011 A 
ENDBRANCH   2  23
BRANCH   7  30
HETATM   30  C   UNL     1       3.852  32.908  57.467  1.00  0.00     0.085 C 
BRANCH  30  31
HETATM   31  C   UNL     1       3.699  32.883  58.989  1.00  0.00     0.034 C 
BRANCH  31  32
HETATM   32  C   UNL     1       5.017  33.093  59.728  1.00  0.00     0.164 C 
BRANCH  32  33
HETATM   33  O   UNL     1       5.572  31.834  60.096  1.00  0.00    -0.401 OA
HETATM   34  H   UNL     1       4.908  31.151  59.901  1.00  0.00     0.209 HD
ENDBRANCH  32  33
ENDBRANCH  31  32
ENDBRANCH  30  31
ENDBRANCH   7  30
TORSDOF 7
ENDMDL
MODEL 7
REMARK VINA RESULT:      -8.9      4.012      9.020
REMARK  7 active torsions:
REMARK  status: ('A' for Active; 'I' for Inactive)
REMARK    1  A    between atoms: C_3  and  N_4 
REMARK       I    between atoms: N_4  and  C_5 
REMARK    2  A    between atoms: C_5  and  C_6 
REMARK    3  A    between atoms: C_7  and  C_8 
REMARK    4  A    between atoms: C_19  and  C_20 
REMARK    5  A    between atoms: C_20  and  C_21 
REMARK    6  A    between atoms: C_21  and  C_22 
REMARK    7  A    between atoms: C_22  and  O_23 
ROOT
HETATM    1  C   UNL     1       7.653  30.620  58.774  1.00  0.00     0.062 C 
HETATM    2  C   UNL     1       6.579  29.626  58.315  1.00  0.00     0.202 C 
HETATM    3  N   UNL     1       7.181  28.494  57.600  1.00  0.00    -0.083 N 
HETATM    4  C   UNL     1       8.470  28.482  57.144  1.00  0.00     0.726 A 
HETATM    5  N   UNL     1       9.290  29.501  57.458  1.00  0.00    -0.192 N 
HETATM    6  N   UNL     1       6.510  27.392  57.205  1.00  0.00    -0.140 NA
HETATM    7  C   UNL     1       7.436  26.797  56.439  1.00  0.00     0.166 A 
HETATM    8  N   UNL     1       8.664  27.419  56.407  1.00  0.00    -0.046 NA
HETATM    9  C   UNL     1       8.920  30.554  58.286  1.00  0.00     0.037 C 
HETATM   10  C   UNL     1       9.998  31.585  58.525  1.00  0.00     0.070 C 
HETATM   11  H   UNL     1      10.241  29.483  57.101  1.00  0.00     0.184 HD
ENDROOT
BRANCH   1  12
HETATM   12  C   UNL     1       7.178  31.642  59.758  1.00  0.00     0.256 C 
HETATM   13  N   UNL     1       6.992  31.154  61.030  1.00  0.00    -0.323 N 
HETATM   14  H   UNL     1       6.885  30.150  61.106  1.00  0.00     0.169 HD
HETATM   15  O   UNL     1       6.856  32.758  59.371  1.00  0.00    -0.267 OA
BRANCH  13  16
HETATM   16  C   UNL     1       6.782  31.877  62.228  1.00  0.00     0.041 A 
HETATM   17  C   UNL     1       5.540  32.289  62.747  1.00  0.00    -0.035 A 
HETATM   18  C   UNL     1       4.207  32.067  62.086  1.00  0.00     0.050 C 
HETATM   19  C   UNL     1       5.518  33.004  63.963  1.00  0.00     0.009 A 
HETATM   20  C   UNL     1       6.692  33.359  64.623  1.00  0.00     0.001 A 
HETATM   21  C   UNL     1       7.917  33.002  64.080  1.00  0.00     0.002 A 
HETATM   22  C   UNL     1       7.959  32.272  62.892  1.00  0.00     0.030 A 
ENDBRANCH  13  16
ENDBRANCH   1  12
BRANCH   2  23
HETATM   23  C   UNL     1       5.509  30.256  57.418  1.00  0.00    -0.028 A 
HETATM   24  C   UNL     1       5.821  30.769  56.146  1.00  0.00     0.011 A 
HETATM   25  C   UNL     1       4.827  31.330  55.340  1.00  0.00     0.024 A 
HETATM   26  C   UNL     1       3.514  31.388  55.798  1.00  0.00     0.034 A 
HETATM   27 CL   UNL     1       2.291  32.083  54.807  1.00  0.00    -0.084 Cl
HETATM   28  C   UNL     1       3.183  30.883  57.054  1.00  0.00     0.024 A 
HETATM   29  C   UNL     1       4.174  30.318  57.860  1.00  0.00     0.011 A 
ENDBRANCH   2  23
BRANCH   7  30
HETATM   30  C   UNL     1       7.140  25.617  55.590  1.00  0.00     0.085 C 
BRANCH  30  31
HETATM   31  C   UNL     1       7.139  24.307  56.381  1.00  0.00     0.034 C 
BRANCH  31  32
HETATM   32  C   UNL     1       8.535  23.863  56.805  1.00  0.00     0.164 C 
BRANCH  32  33
HETATM   33  O   UNL     1       8.714  24.094  58.199  1.00  0.00    -0.401 OA
HETATM   34  H   UNL     1       9.534  24.604  58.310  1.00  0.00     0.209 HD
ENDBRANCH  32  33
ENDBRANCH  31  32
ENDBRANCH  30  31
ENDBRANCH   7  30
TORSDOF 7
ENDMDL
MODEL 8
REMARK VINA RESULT:      -8.6      3.248      4.585
REMARK  7 active torsions:
REMARK  status: ('A' for Active; 'I' for Inactive)
REMARK    1  A    between atoms: C_3  and  N_4 
REMARK       I    between atoms: N_4  and  C_5 
REMARK    2  A    between atoms: C_5  and  C_6 
REMARK    3  A    between atoms: C_7  and  C_8 
REMARK    4  A    between atoms: C_19  and  C_20 
REMARK    5  A    between atoms: C_20  and  C_21 
REMARK    6  A    between atoms: C_21  and  C_22 
REMARK    7  A    between atoms: C_22  and  O_23 
ROOT
HETATM    1  C   UNL     1       6.052  26.448  55.588  1.00  0.00     0.062 C 
HETATM    2  C   UNL     1       6.088  27.624  54.604  1.00  0.00     0.202 C 
HETATM    3  N   UNL     1       5.215  28.714  55.056  1.00  0.00    -0.083 N 
HETATM    4  C   UNL     1       4.276  28.577  56.042  1.00  0.00     0.726 A 
HETATM    5  N   UNL     1       4.211  27.426  56.734  1.00  0.00    -0.192 N 
HETATM    6  N   UNL     1       5.147  29.932  54.480  1.00  0.00    -0.140 NA
HETATM    7  C   UNL     1       4.085  30.450  55.114  1.00  0.00     0.166 A 
HETATM    8  N   UNL     1       3.546  29.660  56.105  1.00  0.00    -0.046 NA
HETATM    9  C   UNL     1       5.095  26.370  56.550  1.00  0.00     0.037 C 
HETATM   10  C   UNL     1       4.857  25.176  57.444  1.00  0.00     0.070 C 
HETATM   11  H   UNL     1       3.501  27.336  57.455  1.00  0.00     0.184 HD
ENDROOT
BRANCH   1  12
HETATM   12  C   UNL     1       7.123  25.424  55.375  1.00  0.00     0.256 C 
HETATM   13  N   UNL     1       6.647  24.156  55.133  1.00  0.00    -0.323 N 
HETATM   14  H   UNL     1       5.694  23.979  55.425  1.00  0.00     0.169 HD
HETATM   15  O   UNL     1       8.295  25.719  55.563  1.00  0.00    -0.267 OA
BRANCH  13  16
HETATM   16  C   UNL     1       7.357  23.025  54.666  1.00  0.00     0.041 A 
HETATM   17  C   UNL     1       7.924  22.865  53.386  1.00  0.00    -0.035 A 
HETATM   18  C   UNL     1       7.832  23.864  52.266  1.00  0.00     0.050 C 
HETATM   19  C   UNL     1       8.603  21.664  53.092  1.00  0.00     0.009 A 
HETATM   20  C   UNL     1       8.673  20.620  54.010  1.00  0.00     0.001 A 
HETATM   21  C   UNL     1       8.065  20.757  55.250  1.00  0.00     0.002 A 
HETATM   22  C   UNL     1       7.410  21.946  55.570  1.00  0.00     0.030 A 
ENDBRANCH  13  16
ENDBRANCH   1  12
BRANCH   2  23
HETATM   23  C   UNL     1       5.687  27.238  53.177  1.00  0.00    -0.028 A 
HETATM   24  C   UNL     1       5.040  26.020  52.896  1.00  0.00     0.011 A 
HETATM   25  C   UNL     1       4.674  25.692  51.588  1.00  0.00     0.024 A 
HETATM   26  C   UNL     1       4.954  26.575  50.548  1.00  0.00     0.034 A 
HETATM   27 CL   UNL     1       4.507  26.169  48.937  1.00  0.00    -0.084 Cl
HETATM   28  C   UNL     1       5.592  27.786  50.805  1.00  0.00     0.024 A 
HETATM   29  C   UNL     1       5.955  28.118  52.113  1.00  0.00     0.011 A 
ENDBRANCH   2  23
BRANCH   7  30
HETATM   30  C   UNL     1       3.453  31.730  54.710  1.00  0.00     0.085 C 
BRANCH  30  31
HETATM   31  C   UNL     1       3.003  31.730  53.248  1.00  0.00     0.034 C 
BRANCH  31  32
HETATM   32  C   UNL     1       3.943  32.507  52.331  1.00  0.00     0.164 C 
BRANCH  32  33
HETATM   33  O   UNL     1       5.008  31.664  51.904  1.00  0.00    -0.401 OA
HETATM   34  H   UNL     1       5.751  32.236  51.645  1.00  0.00     0.209 HD
ENDBRANCH  32  33
ENDBRANCH  31  32
ENDBRANCH  30  31
ENDBRANCH   7  30
TORSDOF 7
ENDMDL
MODEL 9
REMARK VINA RESULT:      -8.4      2.652      7.981
REMARK  7 active torsions:
REMARK  status: ('A' for Active; 'I' for Inactive)
REMARK    1  A    between atoms: C_3  and  N_4 
REMARK       I    between atoms: N_4  and  C_5 
REMARK    2  A    between atoms: C_5  and  C_6 
REMARK    3  A    between atoms: C_7  and  C_8 
REMARK    4  A    between atoms: C_19  and  C_20 
REMARK    5  A    between atoms: C_20  and  C_21 
REMARK    6  A    between atoms: C_21  and  C_22 
REMARK    7  A    between atoms: C_22  and  O_23 
ROOT
HETATM    1  C   UNL     1       6.713  27.020  56.553  1.00  0.00     0.062 C 
HETATM    2  C   UNL     1       6.236  25.701  55.932  1.00  0.00     0.202 C 
HETATM    3  N   UNL     1       7.193  24.619  56.198  1.00  0.00    -0.083 N 
HETATM    4  C   UNL     1       8.463  24.825  56.662  1.00  0.00     0.726 A 
HETATM    5  N   UNL     1       8.842  26.066  57.016  1.00  0.00    -0.192 N 
HETATM    6  N   UNL     1       6.981  23.319  55.906  1.00  0.00    -0.140 NA
HETATM    7  C   UNL     1       8.199  22.809  56.139  1.00  0.00     0.166 A 
HETATM    8  N   UNL     1       9.125  23.697  56.638  1.00  0.00    -0.046 NA
HETATM    9  C   UNL     1       7.988  27.162  57.000  1.00  0.00     0.037 C 
HETATM   10  C   UNL     1       8.611  28.461  57.454  1.00  0.00     0.070 C 
HETATM   11  H   UNL     1       9.793  26.203  57.347  1.00  0.00     0.184 HD
ENDROOT
BRANCH   1  12
HETATM   12  C   UNL     1       5.677  28.100  56.595  1.00  0.00     0.256 C 
HETATM   13  N   UNL     1       5.842  29.074  55.637  1.00  0.00    -0.323 N 
HETATM   14  H   UNL     1       6.768  29.143  55.233  1.00  0.00     0.169 HD
HETATM   15  O   UNL     1       4.872  28.138  57.516  1.00  0.00    -0.267 OA
BRANCH  13  16
HETATM   16  C   UNL     1       4.935  30.087  55.249  1.00  0.00     0.041 A 
HETATM   17  C   UNL     1       3.959  29.991  54.238  1.00  0.00    -0.035 A 
HETATM   18  C   UNL     1       3.739  28.793  53.356  1.00  0.00     0.050 C 
HETATM   19  C   UNL     1       3.133  31.107  53.985  1.00  0.00     0.009 A 
HETATM   20  C   UNL     1       3.303  32.310  54.666  1.00  0.00     0.001 A 
HETATM   21  C   UNL     1       4.303  32.421  55.621  1.00  0.00     0.002 A 
HETATM   22  C   UNL     1       5.113  31.321  55.904  1.00  0.00     0.030 A 
ENDBRANCH  13  16
ENDBRANCH   1  12
BRANCH   2  23
HETATM   23  C   UNL     1       6.004  25.787  54.420  1.00  0.00    -0.028 A 
HETATM   24  C   UNL     1       6.904  26.461  53.573  1.00  0.00     0.011 A 
HETATM   25  C   UNL     1       6.678  26.518  52.196  1.00  0.00     0.024 A 
HETATM   26  C   UNL     1       5.551  25.908  51.652  1.00  0.00     0.034 A 
HETATM   27 CL   UNL     1       5.272  25.983  49.956  1.00  0.00    -0.084 Cl
HETATM   28  C   UNL     1       4.649  25.234  52.473  1.00  0.00     0.024 A 
HETATM   29  C   UNL     1       4.875  25.171  53.850  1.00  0.00     0.011 A 
ENDBRANCH   2  23
BRANCH   7  30
HETATM   30  C   UNL     1       8.570  21.418  55.781  1.00  0.00     0.085 C 
BRANCH  30  31
HETATM   31  C   UNL     1       7.737  20.865  54.624  1.00  0.00     0.034 C 
BRANCH  31  32
HETATM   32  C   UNL     1       8.205  21.358  53.258  1.00  0.00     0.164 C 
BRANCH  32  33
HETATM   33  O   UNL     1       7.514  22.555  52.913  1.00  0.00    -0.401 OA
HETATM   34  H   UNL     1       6.567  22.343  52.858  1.00  0.00     0.209 HD
ENDBRANCH  32  33
ENDBRANCH  31  32
ENDBRANCH  30  31
ENDBRANCH   7  30
TORSDOF 7
ENDMDL
MODEL 10
REMARK VINA RESULT:      -8.4      2.929      4.197
REMARK  7 active torsions:
REMARK  status: ('A' for Active; 'I' for Inactive)
REMARK    1  A    between atoms: C_3  and  N_4 
REMARK       I    between atoms: N_4  and  C_5 
REMARK    2  A    between atoms: C_5  and  C_6 
REMARK    3  A    between atoms: C_7  and  C_8 
REMARK    4  A    between atoms: C_19  and  C_20 
REMARK    5  A    between atoms: C_20  and  C_21 
REMARK    6  A    between atoms: C_21  and  C_22 
REMARK    7  A    between atoms: C_22  and  O_23 
ROOT
HETATM    1  C   UNL     1       5.676  26.282  55.598  1.00  0.00     0.062 C 
HETATM    2  C   UNL     1       6.100  27.638  55.022  1.00  0.00     0.202 C 
HETATM    3  N   UNL     1       6.013  28.692  56.040  1.00  0.00    -0.083 N 
HETATM    4  C   UNL     1       5.358  28.546  57.232  1.00  0.00     0.726 A 
HETATM    5  N   UNL     1       4.861  27.341  57.567  1.00  0.00    -0.192 N 
HETATM    6  N   UNL     1       6.456  29.956  55.875  1.00  0.00    -0.140 NA
HETATM    7  C   UNL     1       5.957  30.541  56.974  1.00  0.00     0.166 A 
HETATM    8  N   UNL     1       5.308  29.698  57.848  1.00  0.00    -0.046 NA
HETATM    9  C   UNL     1       5.030  26.200  56.792  1.00  0.00     0.037 C 
HETATM   10  C   UNL     1       4.408  24.947  57.360  1.00  0.00     0.070 C 
HETATM   11  H   UNL     1       4.368  27.252  58.450  1.00  0.00     0.184 HD
ENDROOT
BRANCH   1  12
HETATM   12  C   UNL     1       6.011  25.105  54.736  1.00  0.00     0.256 C 
HETATM   13  N   UNL     1       7.143  24.428  55.126  1.00  0.00    -0.323 N 
HETATM   14  H   UNL     1       7.783  24.943  55.717  1.00  0.00     0.169 HD
HETATM   15  O   UNL     1       5.383  24.906  53.705  1.00  0.00    -0.267 OA
BRANCH  13  16
HETATM   16  C   UNL     1       7.605  23.163  54.691  1.00  0.00     0.041 A 
HETATM   17  C   UNL     1       8.058  22.840  53.397  1.00  0.00    -0.035 A 
HETATM   18  C   UNL     1       8.088  23.786  52.227  1.00  0.00     0.050 C 
HETATM   19  C   UNL     1       8.487  21.521  53.139  1.00  0.00     0.009 A 
HETATM   20  C   UNL     1       8.414  20.527  54.111  1.00  0.00     0.001 A 
HETATM   21  C   UNL     1       7.914  20.834  55.368  1.00  0.00     0.002 A 
HETATM   22  C   UNL     1       7.509  22.138  55.651  1.00  0.00     0.030 A 
ENDBRANCH  13  16
ENDBRANCH   1  12
BRANCH   2  23
HETATM   23  C   UNL     1       5.278  28.068  53.803  1.00  0.00    -0.028 A 
HETATM   24  C   UNL     1       3.889  28.280  53.887  1.00  0.00     0.011 A 
HETATM   25  C   UNL     1       3.160  28.681  52.765  1.00  0.00     0.024 A 
HETATM   26  C   UNL     1       3.810  28.870  51.548  1.00  0.00     0.034 A 
HETATM   27 CL   UNL     1       2.911  29.359  50.165  1.00  0.00    -0.084 Cl
HETATM   28  C   UNL     1       5.184  28.666  51.443  1.00  0.00     0.024 A 
HETATM   29  C   UNL     1       5.916  28.269  52.565  1.00  0.00     0.011 A 
ENDBRANCH   2  23
BRANCH   7  30
HETATM   30  C   UNL     1       5.993  32.008  57.191  1.00  0.00     0.085 C 
BRANCH  30  31
HETATM   31  C   UNL     1       5.415  32.417  58.547  1.00  0.00     0.034 C 
BRANCH  31  32
HETATM   32  C   UNL     1       6.473  32.530  59.641  1.00  0.00     0.164 C 
BRANCH  32  33
HETATM   33  O   UNL     1       6.745  31.242  60.185  1.00  0.00    -0.401 OA
HETATM   34  H   UNL     1       6.095  30.622  59.814  1.00  0.00     0.209 HD
ENDBRANCH  32  33
ENDBRANCH  31  32
ENDBRANCH  30  31
ENDBRANCH   7  30
TORSDOF 7
ENDMDL
