MODEL 1
REMARK VINA RESULT:     -10.1      0.000      0.000
REMARK  6 active torsions:
REMARK  status: ('A' for Active; 'I' for Inactive)
REMARK    1  A    between atoms: C_5  and  C_6 
REMARK    2  A    between atoms: C_12  and  C_13 
REMARK       I    between atoms: C_13  and  N_14 
REMARK    3  A    between atoms: N_14  and  C_15 
REMARK    4  A    between atoms: C_18  and  C_19 
REMARK    5  A    between atoms: C_19  and  O_20 
REMARK    6  A    between atoms: C_25  and  C_26 
ROOT
HETATM    1  C   UNL     1       7.241  25.771  55.157  1.00  0.00     0.097 C 
HETATM    2  N   UNL     1       6.106  26.432  54.473  1.00  0.00    -0.268 NA
HETATM    3  C   UNL     1       5.782  27.700  54.870  1.00  0.00     0.118 A 
HETATM    4  N   UNL     1       6.230  28.194  56.076  1.00  0.00    -0.245 N 
HETATM    5  N   UNL     1       5.756  29.408  56.380  1.00  0.00    -0.182 NA
HETATM    6  C   UNL     1       5.039  29.733  55.302  1.00  0.00     0.159 A 
HETATM    7  C   UNL     1       4.996  28.701  54.328  1.00  0.00     0.091 A 
HETATM    8  C   UNL     1       7.000  27.442  57.048  1.00  0.00     0.221 C 
HETATM    9  C   UNL     1       7.036  25.947  56.674  1.00  0.00     0.061 C 
HETATM   10  H   UNL     1       5.322  25.782  54.367  1.00  0.00     0.130 HD
ENDROOT
BRANCH   7  11
HETATM   11  C   UNL     1       4.250  28.774  53.080  1.00  0.00     0.261 C 
HETATM   12  N   UNL     1       4.894  28.217  51.992  1.00  0.00    -0.323 N 
HETATM   13  H   UNL     1       5.847  27.914  52.161  1.00  0.00     0.169 HD
HETATM   14  O   UNL     1       3.131  29.274  53.069  1.00  0.00    -0.267 OA
BRANCH  12  15
HETATM   15  C   UNL     1       4.343  27.952  50.720  1.00  0.00     0.035 A 
HETATM   16  C   UNL     1       3.479  28.819  50.050  1.00  0.00     0.030 A 
HETATM   17  C   UNL     1       2.903  28.460  48.825  1.00  0.00     0.012 A 
HETATM   18  C   UNL     1       3.171  27.218  48.240  1.00  0.00    -0.030 A 
HETATM   19  C   UNL     1       4.070  26.364  48.901  1.00  0.00     0.012 A 
HETATM   20  C   UNL     1       4.653  26.727  50.122  1.00  0.00     0.030 A 
BRANCH  18  21
HETATM   21  C   UNL     1       2.542  26.756  46.940  1.00  0.00     0.147 C 
HETATM   22  C   UNL     1       2.601  25.258  46.651  1.00  0.00     0.044 C 
BRANCH  21  23
HETATM   23  O   UNL     1       1.169  27.146  46.915  1.00  0.00    -0.391 OA
HETATM   24  H   UNL     1       0.975  27.471  46.019  1.00  0.00     0.210 HD
ENDBRANCH  21  23
ENDBRANCH  18  21
ENDBRANCH  12  15
ENDBRANCH   7  11
BRANCH   1  25
HETATM   25  C   UNL     1       7.406  24.340  54.662  1.00  0.00    -0.040 A 
HETATM   26  C   UNL     1       7.638  24.104  53.294  1.00  0.00     0.009 A 
HETATM   27  C   UNL     1       7.908  22.820  52.812  1.00  0.00     0.007 A 
HETATM   28  C   UNL     1       7.968  21.732  53.687  1.00  0.00    -0.062 A 
HETATM   29  C   UNL     1       8.342  20.370  53.185  1.00  0.00     0.048 C 
HETATM   30  C   UNL     1       7.755  21.954  55.049  1.00  0.00     0.007 A 
HETATM   31  C   UNL     1       7.474  23.237  55.529  1.00  0.00     0.009 A 
ENDBRANCH   1  25
BRANCH   8  32
HETATM   32  C   UNL     1       8.391  28.024  57.182  1.00  0.00     0.409 C 
HETATM   33  F   UNL     1       8.529  28.844  58.244  1.00  0.00    -0.169 F 
HETATM   34  F   UNL     1       9.289  27.018  57.358  1.00  0.00    -0.169 F 
HETATM   35  F   UNL     1       8.783  28.698  56.080  1.00  0.00    -0.169 F 
ENDBRANCH   8  32
TORSDOF 6
ENDMDL
MODEL 2
REMARK VINA RESULT:      -9.8      4.003      7.717
REMARK  6 active torsions:
REMARK  status: ('A' for Active; 'I' for Inactive)
REMARK    1  A    between atoms: C_5  and  C_6 
REMARK    2  A    between atoms: C_12  and  C_13 
REMARK       I    between atoms: C_13  and  N_14 
REMARK    3  A    between atoms: N_14  and  C_15 
REMARK    4  A    between atoms: C_18  and  C_19 
REMARK    5  A    between atoms: C_19  and  O_20 
REMARK    6  A    between atoms: C_25  and  C_26 
ROOT
HETATM    1  C   UNL     1       5.876  30.801  57.094  1.00  0.00     0.097 C 
HETATM    2  N   UNL     1       6.154  29.479  56.486  1.00  0.00    -0.268 NA
HETATM    3  C   UNL     1       5.427  29.127  55.382  1.00  0.00     0.118 A 
HETATM    4  N   UNL     1       4.256  29.785  55.073  1.00  0.00    -0.245 N 
HETATM    5  N   UNL     1       3.600  29.272  54.025  1.00  0.00    -0.182 NA
HETATM    6  C   UNL     1       4.413  28.301  53.604  1.00  0.00     0.159 A 
HETATM    7  C   UNL     1       5.564  28.142  54.420  1.00  0.00     0.091 A 
HETATM    8  C   UNL     1       3.650  30.827  55.880  1.00  0.00     0.221 C 
HETATM    9  C   UNL     1       4.348  30.928  57.251  1.00  0.00     0.061 C 
HETATM   10  H   UNL     1       6.243  28.761  57.210  1.00  0.00     0.130 HD
ENDROOT
BRANCH   7  11
HETATM   11  C   UNL     1       6.589  27.129  54.214  1.00  0.00     0.261 C 
HETATM   12  N   UNL     1       6.204  25.846  54.548  1.00  0.00    -0.323 N 
HETATM   13  H   UNL     1       5.295  25.767  54.989  1.00  0.00     0.169 HD
HETATM   14  O   UNL     1       7.677  27.452  53.750  1.00  0.00    -0.267 OA
BRANCH  12  15
HETATM   15  C   UNL     1       6.895  24.649  54.264  1.00  0.00     0.035 A 
HETATM   16  C   UNL     1       7.093  24.151  52.976  1.00  0.00     0.030 A 
HETATM   17  C   UNL     1       7.717  22.915  52.767  1.00  0.00     0.012 A 
HETATM   18  C   UNL     1       8.155  22.139  53.845  1.00  0.00    -0.030 A 
HETATM   19  C   UNL     1       7.985  22.661  55.138  1.00  0.00     0.012 A 
HETATM   20  C   UNL     1       7.369  23.901  55.346  1.00  0.00     0.030 A 
BRANCH  18  21
HETATM   21  C   UNL     1       8.796  20.774  53.684  1.00  0.00     0.147 C 
HETATM   22  C   UNL     1       8.791  19.870  54.914  1.00  0.00     0.044 C 
BRANCH  21  23
HETATM   23  O   UNL     1       8.143  20.068  52.628  1.00  0.00    -0.391 OA
HETATM   24  H   UNL     1       8.481  19.156  52.635  1.00  0.00     0.210 HD
ENDBRANCH  21  23
ENDBRANCH  18  21
ENDBRANCH  12  15
ENDBRANCH   7  11
BRANCH   1  25
HETATM   25  C   UNL     1       6.700  30.992  58.360  1.00  0.00    -0.040 A 
HETATM   26  C   UNL     1       7.830  30.182  58.578  1.00  0.00     0.009 A 
HETATM   27  C   UNL     1       8.681  30.397  59.666  1.00  0.00     0.007 A 
HETATM   28  C   UNL     1       8.435  31.439  60.564  1.00  0.00    -0.062 A 
HETATM   29  C   UNL     1       9.393  31.724  61.682  1.00  0.00     0.048 C 
HETATM   30  C   UNL     1       7.326  32.261  60.352  1.00  0.00     0.007 A 
HETATM   31  C   UNL     1       6.468  32.038  59.269  1.00  0.00     0.009 A 
ENDBRANCH   1  25
BRANCH   8  32
HETATM   32  C   UNL     1       3.671  32.147  55.137  1.00  0.00     0.409 C 
HETATM   33  F   UNL     1       2.563  32.363  54.399  1.00  0.00    -0.169 F 
HETATM   34  F   UNL     1       3.739  33.170  56.031  1.00  0.00    -0.169 F 
HETATM   35  F   UNL     1       4.745  32.274  54.329  1.00  0.00    -0.169 F 
ENDBRANCH   8  32
TORSDOF 6
ENDMDL
MODEL 3
REMARK VINA RESULT:      -9.7      4.020      8.051
REMARK  6 active torsions:
REMARK  status: ('A' for Active; 'I' for Inactive)
REMARK    1  A    between atoms: C_5  and  C_6 
REMARK    2  A    between atoms: C_12  and  C_13 
REMARK       I    between atoms: C_13  and  N_14 
REMARK    3  A    between atoms: N_14  and  C_15 
REMARK    4  A    between atoms: C_18  and  C_19 
REMARK    5  A    between atoms: C_19  and  O_20 
REMARK    6  A    between atoms: C_25  and  C_26 
ROOT
HETATM    1  C   UNL     1       6.738  24.644  53.495  1.00  0.00     0.097 C 
HETATM    2  N   UNL     1       6.942  25.733  54.477  1.00  0.00    -0.268 NA
HETATM    3  C   UNL     1       6.484  26.978  54.143  1.00  0.00     0.118 A 
HETATM    4  N   UNL     1       6.191  27.289  52.833  1.00  0.00    -0.245 N 
HETATM    5  N   UNL     1       5.849  28.569  52.638  1.00  0.00    -0.182 NA
HETATM    6  C   UNL     1       5.852  29.076  53.872  1.00  0.00     0.159 A 
HETATM    7  C   UNL     1       6.260  28.140  54.859  1.00  0.00     0.091 A 
HETATM    8  C   UNL     1       6.391  26.402  51.702  1.00  0.00     0.221 C 
HETATM    9  C   UNL     1       7.206  25.163  52.121  1.00  0.00     0.061 C 
HETATM   10  H   UNL     1       7.888  25.694  54.867  1.00  0.00     0.130 HD
ENDROOT
BRANCH   7  11
HETATM   11  C   UNL     1       6.397  28.441  56.277  1.00  0.00     0.261 C 
HETATM   12  N   UNL     1       7.116  29.587  56.555  1.00  0.00    -0.323 N 
HETATM   13  H   UNL     1       7.551  30.031  55.754  1.00  0.00     0.169 HD
HETATM   14  O   UNL     1       5.865  27.712  57.107  1.00  0.00    -0.267 OA
BRANCH  12  15
HETATM   15  C   UNL     1       7.233  30.238  57.802  1.00  0.00     0.035 A 
HETATM   16  C   UNL     1       6.445  31.322  58.191  1.00  0.00     0.030 A 
HETATM   17  C   UNL     1       6.666  31.974  59.410  1.00  0.00     0.012 A 
HETATM   18  C   UNL     1       7.688  31.562  60.272  1.00  0.00    -0.030 A 
HETATM   19  C   UNL     1       8.454  30.448  59.891  1.00  0.00     0.012 A 
HETATM   20  C   UNL     1       8.227  29.790  58.676  1.00  0.00     0.030 A 
BRANCH  18  21
HETATM   21  C   UNL     1       8.004  32.256  61.582  1.00  0.00     0.147 C 
HETATM   22  C   UNL     1       6.951  33.227  62.109  1.00  0.00     0.044 C 
BRANCH  21  23
HETATM   23  O   UNL     1       8.230  31.274  62.594  1.00  0.00    -0.391 OA
HETATM   24  H   UNL     1       7.916  30.421  62.246  1.00  0.00     0.210 HD
ENDBRANCH  21  23
ENDBRANCH  18  21
ENDBRANCH  12  15
ENDBRANCH   7  11
BRANCH   1  25
HETATM   25  C   UNL     1       7.387  23.354  53.983  1.00  0.00    -0.040 A 
HETATM   26  C   UNL     1       7.471  23.103  55.364  1.00  0.00     0.009 A 
HETATM   27  C   UNL     1       7.953  21.885  55.855  1.00  0.00     0.007 A 
HETATM   28  C   UNL     1       8.353  20.875  54.977  1.00  0.00    -0.062 A 
HETATM   29  C   UNL     1       8.789  19.539  55.499  1.00  0.00     0.048 C 
HETATM   30  C   UNL     1       8.261  21.105  53.602  1.00  0.00     0.007 A 
HETATM   31  C   UNL     1       7.789  22.328  53.112  1.00  0.00     0.009 A 
ENDBRANCH   1  25
BRANCH   8  32
HETATM   32  C   UNL     1       5.059  26.022  51.091  1.00  0.00     0.409 C 
HETATM   33  F   UNL     1       4.624  24.802  51.469  1.00  0.00    -0.169 F 
HETATM   34  F   UNL     1       4.106  26.906  51.492  1.00  0.00    -0.169 F 
HETATM   35  F   UNL     1       5.073  26.061  49.741  1.00  0.00    -0.169 F 
ENDBRANCH   8  32
TORSDOF 6
ENDMDL
MODEL 4
REMARK VINA RESULT:      -9.6      1.289      1.796
REMARK  6 active torsions:
REMARK  status: ('A' for Active; 'I' for Inactive)
REMARK    1  A    between atoms: C_5  and  C_6 
REMARK    2  A    between atoms: C_12  and  C_13 
REMARK       I    between atoms: C_13  and  N_14 
REMARK    3  A    between atoms: N_14  and  C_15 
REMARK    4  A    between atoms: C_18  and  C_19 
REMARK    5  A    between atoms: C_19  and  O_20 
REMARK    6  A    between atoms: C_25  and  C_26 
ROOT
HETATM    1  C   UNL     1       7.182  25.869  54.889  1.00  0.00     0.097 C 
HETATM    2  N   UNL     1       6.306  26.541  53.901  1.00  0.00    -0.268 NA
HETATM    3  C   UNL     1       5.816  27.775  54.230  1.00  0.00     0.118 A 
HETATM    4  N   UNL     1       5.823  28.207  55.538  1.00  0.00    -0.245 N 
HETATM    5  N   UNL     1       5.223  29.389  55.727  1.00  0.00    -0.182 NA
HETATM    6  C   UNL     1       4.886  29.760  54.490  1.00  0.00     0.159 A 
HETATM    7  C   UNL     1       5.209  28.787  53.508  1.00  0.00     0.091 A 
HETATM    8  C   UNL     1       6.262  27.417  56.673  1.00  0.00     0.221 C 
HETATM    9  C   UNL     1       6.484  25.949  56.260  1.00  0.00     0.061 C 
HETATM   10  H   UNL     1       5.629  25.879  53.512  1.00  0.00     0.130 HD
ENDROOT
BRANCH   7  11
HETATM   11  C   UNL     1       4.911  28.915  52.088  1.00  0.00     0.261 C 
HETATM   12  N   UNL     1       3.669  28.439  51.717  1.00  0.00    -0.323 N 
HETATM   13  H   UNL     1       3.149  27.967  52.448  1.00  0.00     0.169 HD
HETATM   14  O   UNL     1       5.729  29.440  51.341  1.00  0.00    -0.267 OA
BRANCH  12  15
HETATM   15  C   UNL     1       3.026  28.618  50.473  1.00  0.00     0.035 A 
HETATM   16  C   UNL     1       2.021  29.557  50.244  1.00  0.00     0.030 A 
HETATM   17  C   UNL     1       1.367  29.628  49.007  1.00  0.00     0.012 A 
HETATM   18  C   UNL     1       1.699  28.754  47.967  1.00  0.00    -0.030 A 
HETATM   19  C   UNL     1       2.736  27.834  48.192  1.00  0.00     0.012 A 
HETATM   20  C   UNL     1       3.396  27.769  49.426  1.00  0.00     0.030 A 
BRANCH  18  21
HETATM   21  C   UNL     1       0.996  28.752  46.623  1.00  0.00     0.147 C 
HETATM   22  C   UNL     1       0.335  27.443  46.202  1.00  0.00     0.044 C 
BRANCH  21  23
HETATM   23  O   UNL     1      -0.011  29.765  46.616  1.00  0.00    -0.391 OA
HETATM   24  H   UNL     1      -0.066  30.114  45.710  1.00  0.00     0.210 HD
ENDBRANCH  21  23
ENDBRANCH  18  21
ENDBRANCH  12  15
ENDBRANCH   7  11
BRANCH   1  25
HETATM   25  C   UNL     1       7.561  24.474  54.408  1.00  0.00    -0.040 A 
HETATM   26  C   UNL     1       7.599  23.411  55.329  1.00  0.00     0.009 A 
HETATM   27  C   UNL     1       7.828  22.096  54.915  1.00  0.00     0.007 A 
HETATM   28  C   UNL     1       8.014  21.801  53.562  1.00  0.00    -0.062 A 
HETATM   29  C   UNL     1       8.176  20.381  53.107  1.00  0.00     0.048 C 
HETATM   30  C   UNL     1       7.964  22.844  52.634  1.00  0.00     0.007 A 
HETATM   31  C   UNL     1       7.745  24.161  53.051  1.00  0.00     0.009 A 
ENDBRANCH   1  25
BRANCH   8  32
HETATM   32  C   UNL     1       7.506  28.025  57.286  1.00  0.00     0.409 C 
HETATM   33  F   UNL     1       8.367  27.108  57.772  1.00  0.00    -0.169 F 
HETATM   34  F   UNL     1       8.187  28.721  56.336  1.00  0.00    -0.169 F 
HETATM   35  F   UNL     1       7.227  28.902  58.274  1.00  0.00    -0.169 F 
ENDBRANCH   8  32
TORSDOF 6
ENDMDL
MODEL 5
REMARK VINA RESULT:      -9.6      1.821      2.588
REMARK  6 active torsions:
REMARK  status: ('A' for Active; 'I' for Inactive)
REMARK    1  A    between atoms: C_5  and  C_6 
REMARK    2  A    between atoms: C_12  and  C_13 
REMARK       I    between atoms: C_13  and  N_14 
REMARK    3  A    between atoms: N_14  and  C_15 
REMARK    4  A    between atoms: C_18  and  C_19 
REMARK    5  A    between atoms: C_19  and  O_20 
REMARK    6  A    between atoms: C_25  and  C_26 
ROOT
HETATM    1  C   UNL     1       6.631  25.691  54.862  1.00  0.00     0.097 C 
HETATM    2  N   UNL     1       5.647  26.185  53.871  1.00  0.00    -0.268 NA
HETATM    3  C   UNL     1       4.964  27.330  54.178  1.00  0.00     0.118 A 
HETATM    4  N   UNL     1       4.913  27.790  55.476  1.00  0.00    -0.245 N 
HETATM    5  N   UNL     1       4.130  28.863  55.645  1.00  0.00    -0.182 NA
HETATM    6  C   UNL     1       3.724  29.142  54.405  1.00  0.00     0.159 A 
HETATM    7  C   UNL     1       4.192  28.211  53.441  1.00  0.00     0.091 A 
HETATM    8  C   UNL     1       5.487  27.112  56.622  1.00  0.00     0.221 C 
HETATM    9  C   UNL     1       5.943  25.690  56.240  1.00  0.00     0.061 C 
HETATM   10  H   UNL     1       5.083  25.412  53.507  1.00  0.00     0.130 HD
ENDROOT
BRANCH   7  11
HETATM   11  C   UNL     1       3.863  28.252  52.024  1.00  0.00     0.261 C 
HETATM   12  N   UNL     1       2.658  28.862  51.731  1.00  0.00    -0.323 N 
HETATM   13  H   UNL     1       2.096  29.119  52.535  1.00  0.00     0.169 HD
HETATM   14  O   UNL     1       4.649  27.793  51.203  1.00  0.00    -0.267 OA
BRANCH  12  15
HETATM   15  C   UNL     1       2.180  29.234  50.457  1.00  0.00     0.035 A 
HETATM   16  C   UNL     1       1.658  28.334  49.527  1.00  0.00     0.030 A 
HETATM   17  C   UNL     1       1.275  28.757  48.248  1.00  0.00     0.012 A 
HETATM   18  C   UNL     1       1.411  30.094  47.862  1.00  0.00    -0.030 A 
HETATM   19  C   UNL     1       1.904  31.003  48.814  1.00  0.00     0.012 A 
HETATM   20  C   UNL     1       2.278  30.580  50.096  1.00  0.00     0.030 A 
BRANCH  18  21
HETATM   21  C   UNL     1       1.057  30.603  46.478  1.00  0.00     0.147 C 
HETATM   22  C   UNL     1       2.135  31.402  45.750  1.00  0.00     0.044 C 
BRANCH  21  23
HETATM   23  O   UNL     1       0.705  29.497  45.645  1.00  0.00    -0.391 OA
HETATM   24  H   UNL     1       1.325  28.775  45.844  1.00  0.00     0.210 HD
ENDBRANCH  21  23
ENDBRANCH  18  21
ENDBRANCH  12  15
ENDBRANCH   7  11
BRANCH   1  25
HETATM   25  C   UNL     1       7.228  24.365  54.407  1.00  0.00    -0.040 A 
HETATM   26  C   UNL     1       7.280  23.286  55.308  1.00  0.00     0.009 A 
HETATM   27  C   UNL     1       7.713  22.019  54.904  1.00  0.00     0.007 A 
HETATM   28  C   UNL     1       8.095  21.790  53.579  1.00  0.00    -0.062 A 
HETATM   29  C   UNL     1       8.478  20.414  53.124  1.00  0.00     0.048 C 
HETATM   30  C   UNL     1       8.034  22.849  52.670  1.00  0.00     0.007 A 
HETATM   31  C   UNL     1       7.611  24.118  53.079  1.00  0.00     0.009 A 
ENDBRANCH   1  25
BRANCH   8  32
HETATM   32  C   UNL     1       6.621  27.931  57.203  1.00  0.00     0.409 C 
HETATM   33  F   UNL     1       7.464  27.210  57.971  1.00  0.00    -0.169 F 
HETATM   34  F   UNL     1       7.373  28.446  56.193  1.00  0.00    -0.169 F 
HETATM   35  F   UNL     1       6.187  28.982  57.931  1.00  0.00    -0.169 F 
ENDBRANCH   8  32
TORSDOF 6
ENDMDL
MODEL 6
REMARK VINA RESULT:      -9.3      3.232      7.044
REMARK  6 active torsions:
REMARK  status: ('A' for Active; 'I' for Inactive)
REMARK    1  A    between atoms: C_5  and  C_6 
REMARK    2  A    between atoms: C_12  and  C_13 
REMARK       I    between atoms: C_13  and  N_14 
REMARK    3  A    between atoms: N_14  and  C_15 
REMARK    4  A    between atoms: C_18  and  C_19 
REMARK    5  A    between atoms: C_19  and  O_20 
REMARK    6  A    between atoms: C_25  and  C_26 
ROOT
HETATM    1  C   UNL     1       3.954  29.400  53.450  1.00  0.00     0.097 C 
HETATM    2  N   UNL     1       5.121  28.630  53.940  1.00  0.00    -0.268 NA
HETATM    3  C   UNL     1       5.568  28.900  55.205  1.00  0.00     0.118 A 
HETATM    4  N   UNL     1       5.204  30.066  55.844  1.00  0.00    -0.245 N 
HETATM    5  N   UNL     1       5.793  30.244  57.033  1.00  0.00    -0.182 NA
HETATM    6  C   UNL     1       6.500  29.124  57.193  1.00  0.00     0.159 A 
HETATM    7  C   UNL     1       6.421  28.249  56.078  1.00  0.00     0.091 A 
HETATM    8  C   UNL     1       4.404  31.122  55.255  1.00  0.00     0.221 C 
HETATM    9  C   UNL     1       4.224  30.889  53.742  1.00  0.00     0.061 C 
HETATM   10  H   UNL     1       5.841  28.566  53.215  1.00  0.00     0.130 HD
ENDROOT
BRANCH   7  11
HETATM   11  C   UNL     1       7.129  26.981  55.970  1.00  0.00     0.261 C 
HETATM   12  N   UNL     1       6.551  26.072  55.105  1.00  0.00    -0.323 N 
HETATM   13  H   UNL     1       5.652  26.347  54.725  1.00  0.00     0.169 HD
HETATM   14  O   UNL     1       8.167  26.810  56.598  1.00  0.00    -0.267 OA
BRANCH  12  15
HETATM   15  C   UNL     1       7.113  24.864  54.640  1.00  0.00     0.035 A 
HETATM   16  C   UNL     1       7.511  24.647  53.321  1.00  0.00     0.030 A 
HETATM   17  C   UNL     1       7.987  23.397  52.906  1.00  0.00     0.012 A 
HETATM   18  C   UNL     1       8.070  22.326  53.801  1.00  0.00    -0.030 A 
HETATM   19  C   UNL     1       7.702  22.559  55.137  1.00  0.00     0.012 A 
HETATM   20  C   UNL     1       7.234  23.812  55.553  1.00  0.00     0.030 A 
BRANCH  18  21
HETATM   21  C   UNL     1       8.533  20.939  53.400  1.00  0.00     0.147 C 
HETATM   22  C   UNL     1       8.781  19.949  54.536  1.00  0.00     0.044 C 
BRANCH  21  23
HETATM   23  O   UNL     1       7.570  20.355  52.522  1.00  0.00    -0.391 OA
HETATM   24  H   UNL     1       6.868  21.013  52.384  1.00  0.00     0.210 HD
ENDBRANCH  21  23
ENDBRANCH  18  21
ENDBRANCH  12  15
ENDBRANCH   7  11
BRANCH   1  25
HETATM   25  C   UNL     1       3.649  29.044  52.000  1.00  0.00    -0.040 A 
HETATM   26  C   UNL     1       4.530  28.204  51.295  1.00  0.00     0.009 A 
HETATM   27  C   UNL     1       4.233  27.758  50.003  1.00  0.00     0.007 A 
HETATM   28  C   UNL     1       3.038  28.128  49.382  1.00  0.00    -0.062 A 
HETATM   29  C   UNL     1       2.679  27.583  48.032  1.00  0.00     0.048 C 
HETATM   30  C   UNL     1       2.147  28.950  50.077  1.00  0.00     0.007 A 
HETATM   31  C   UNL     1       2.450  29.405  51.364  1.00  0.00     0.009 A 
ENDBRANCH   1  25
BRANCH   8  32
HETATM   32  C   UNL     1       3.074  31.235  55.971  1.00  0.00     0.409 C 
HETATM   33  F   UNL     1       2.719  30.110  56.623  1.00  0.00    -0.169 F 
HETATM   34  F   UNL     1       3.147  32.214  56.913  1.00  0.00    -0.169 F 
HETATM   35  F   UNL     1       2.063  31.577  55.143  1.00  0.00    -0.169 F 
ENDBRANCH   8  32
TORSDOF 6
ENDMDL
MODEL 7
REMARK VINA RESULT:      -9.2      4.165      8.290
REMARK  6 active torsions:
REMARK  status: ('A' for Active; 'I' for Inactive)
REMARK    1  A    between atoms: C_5  and  C_6 
REMARK    2  A    between atoms: C_12  and  C_13 
REMARK       I    between atoms: C_13  and  N_14 
REMARK    3  A    between atoms: N_14  and  C_15 
REMARK    4  A    between atoms: C_18  and  C_19 
REMARK    5  A    between atoms: C_19  and  O_20 
REMARK    6  A    between atoms: C_25  and  C_26 
ROOT
HETATM    1  C   UNL     1       5.038  27.382  52.664  1.00  0.00     0.097 C 
HETATM    2  N   UNL     1       5.295  28.269  53.821  1.00  0.00    -0.268 NA
HETATM    3  C   UNL     1       4.732  29.516  53.798  1.00  0.00     0.118 A 
HETATM    4  N   UNL     1       4.269  30.055  52.617  1.00  0.00    -0.245 N 
HETATM    5  N   UNL     1       3.835  31.317  52.725  1.00  0.00    -0.182 NA
HETATM    6  C   UNL     1       3.956  31.569  54.030  1.00  0.00     0.159 A 
HETATM    7  C   UNL     1       4.530  30.493  54.756  1.00  0.00     0.091 A 
HETATM    8  C   UNL     1       4.383  29.426  51.315  1.00  0.00     0.221 C 
HETATM    9  C   UNL     1       5.310  28.196  51.384  1.00  0.00     0.061 C 
HETATM   10  H   UNL     1       6.281  28.229  54.094  1.00  0.00     0.130 HD
ENDROOT
BRANCH   7  11
HETATM   11  C   UNL     1       4.816  30.519  56.184  1.00  0.00     0.261 C 
HETATM   12  N   UNL     1       6.148  30.347  56.506  1.00  0.00    -0.323 N 
HETATM   13  H   UNL     1       6.757  30.124  55.727  1.00  0.00     0.169 HD
HETATM   14  O   UNL     1       3.906  30.712  56.982  1.00  0.00    -0.267 OA
BRANCH  12  15
HETATM   15  C   UNL     1       6.749  30.534  57.769  1.00  0.00     0.035 A 
HETATM   16  C   UNL     1       6.419  31.571  58.642  1.00  0.00     0.030 A 
HETATM   17  C   UNL     1       7.110  31.748  59.848  1.00  0.00     0.012 A 
HETATM   18  C   UNL     1       8.157  30.893  60.208  1.00  0.00    -0.030 A 
HETATM   19  C   UNL     1       8.461  29.829  59.342  1.00  0.00     0.012 A 
HETATM   20  C   UNL     1       7.764  29.648  58.141  1.00  0.00     0.030 A 
BRANCH  18  21
HETATM   21  C   UNL     1       8.972  31.061  61.476  1.00  0.00     0.147 C 
HETATM   22  C   UNL     1       8.403  32.007  62.530  1.00  0.00     0.044 C 
BRANCH  21  23
HETATM   23  O   UNL     1       9.151  29.786  62.094  1.00  0.00    -0.391 OA
HETATM   24  H   UNL     1       8.707  29.817  62.958  1.00  0.00     0.210 HD
ENDBRANCH  21  23
ENDBRANCH  18  21
ENDBRANCH  12  15
ENDBRANCH   7  11
BRANCH   1  25
HETATM   25  C   UNL     1       5.811  26.077  52.807  1.00  0.00    -0.040 A 
HETATM   26  C   UNL     1       6.824  25.768  51.880  1.00  0.00     0.009 A 
HETATM   27  C   UNL     1       7.635  24.641  52.037  1.00  0.00     0.007 A 
HETATM   28  C   UNL     1       7.466  23.793  53.135  1.00  0.00    -0.062 A 
HETATM   29  C   UNL     1       8.390  22.631  53.350  1.00  0.00     0.048 C 
HETATM   30  C   UNL     1       6.475  24.095  54.071  1.00  0.00     0.007 A 
HETATM   31  C   UNL     1       5.656  25.218  53.907  1.00  0.00     0.009 A 
ENDBRANCH   1  25
BRANCH   8  32
HETATM   32  C   UNL     1       3.011  29.070  50.781  1.00  0.00     0.409 C 
HETATM   33  F   UNL     1       2.447  30.054  50.052  1.00  0.00    -0.169 F 
HETATM   34  F   UNL     1       3.111  27.994  49.955  1.00  0.00    -0.169 F 
HETATM   35  F   UNL     1       2.145  28.723  51.758  1.00  0.00    -0.169 F 
ENDBRANCH   8  32
TORSDOF 6
ENDMDL
MODEL 8
REMARK VINA RESULT:      -9.2      4.913      8.830
REMARK  6 active torsions:
REMARK  status: ('A' for Active; 'I' for Inactive)
REMARK    1  A    between atoms: C_5  and  C_6 
REMARK    2  A    between atoms: C_12  and  C_13 
REMARK       I    between atoms: C_13  and  N_14 
REMARK    3  A    between atoms: N_14  and  C_15 
REMARK    4  A    between atoms: C_18  and  C_19 
REMARK    5  A    between atoms: C_19  and  O_20 
REMARK    6  A    between atoms: C_25  and  C_26 
ROOT
HETATM    1  C   UNL     1       5.632  32.027  58.813  1.00  0.00     0.097 C 
HETATM    2  N   UNL     1       5.895  30.620  58.432  1.00  0.00    -0.268 NA
HETATM    3  C   UNL     1       5.286  30.149  57.301  1.00  0.00     0.118 A 
HETATM    4  N   UNL     1       4.208  30.812  56.757  1.00  0.00    -0.245 N 
HETATM    5  N   UNL     1       3.652  30.186  55.711  1.00  0.00    -0.182 NA
HETATM    6  C   UNL     1       4.444  29.127  55.535  1.00  0.00     0.159 A 
HETATM    7  C   UNL     1       5.474  29.031  56.507  1.00  0.00     0.091 A 
HETATM    8  C   UNL     1       3.578  31.986  57.329  1.00  0.00     0.221 C 
HETATM    9  C   UNL     1       4.109  32.249  58.752  1.00  0.00     0.061 C 
HETATM   10  H   UNL     1       5.847  30.010  59.253  1.00  0.00     0.130 HD
ENDROOT
BRANCH   7  11
HETATM   11  C   UNL     1       6.447  27.951  56.577  1.00  0.00     0.261 C 
HETATM   12  N   UNL     1       6.004  26.745  56.071  1.00  0.00    -0.323 N 
HETATM   13  H   UNL     1       5.027  26.720  55.803  1.00  0.00     0.169 HD
HETATM   14  O   UNL     1       7.565  28.168  57.032  1.00  0.00    -0.267 OA
BRANCH  12  15
HETATM   15  C   UNL     1       6.779  25.594  55.812  1.00  0.00     0.035 A 
HETATM   16  C   UNL     1       7.120  25.156  54.531  1.00  0.00     0.030 A 
HETATM   17  C   UNL     1       7.824  23.961  54.340  1.00  0.00     0.012 A 
HETATM   18  C   UNL     1       8.201  23.166  55.428  1.00  0.00    -0.030 A 
HETATM   19  C   UNL     1       7.886  23.629  56.716  1.00  0.00     0.012 A 
HETATM   20  C   UNL     1       7.190  24.830  56.907  1.00  0.00     0.030 A 
BRANCH  18  21
HETATM   21  C   UNL     1       8.923  21.841  55.281  1.00  0.00     0.147 C 
HETATM   22  C   UNL     1       8.141  20.592  55.678  1.00  0.00     0.044 C 
BRANCH  21  23
HETATM   23  O   UNL     1       9.337  21.677  53.924  1.00  0.00    -0.391 OA
HETATM   24  H   UNL     1       9.840  20.846  53.872  1.00  0.00     0.210 HD
ENDBRANCH  21  23
ENDBRANCH  18  21
ENDBRANCH  12  15
ENDBRANCH   7  11
BRANCH   1  25
HETATM   25  C   UNL     1       6.308  32.357  60.138  1.00  0.00    -0.040 A 
HETATM   26  C   UNL     1       5.692  33.264  61.021  1.00  0.00     0.009 A 
HETATM   27  C   UNL     1       6.214  33.511  62.294  1.00  0.00     0.007 A 
HETATM   28  C   UNL     1       7.363  32.846  62.729  1.00  0.00    -0.062 A 
HETATM   29  C   UNL     1       7.876  33.045  64.124  1.00  0.00     0.048 C 
HETATM   30  C   UNL     1       7.977  31.932  61.870  1.00  0.00     0.007 A 
HETATM   31  C   UNL     1       7.460  31.694  60.592  1.00  0.00     0.009 A 
ENDBRANCH   1  25
BRANCH   8  32
HETATM   32  C   UNL     1       3.776  33.184  56.423  1.00  0.00     0.409 C 
HETATM   33  F   UNL     1       2.785  33.344  55.523  1.00  0.00    -0.169 F 
HETATM   34  F   UNL     1       3.799  34.320  57.170  1.00  0.00    -0.169 F 
HETATM   35  F   UNL     1       4.947  33.143  55.753  1.00  0.00    -0.169 F 
ENDBRANCH   8  32
TORSDOF 6
ENDMDL
MODEL 9
REMARK VINA RESULT:      -9.1      8.488     12.341
REMARK  6 active torsions:
REMARK  status: ('A' for Active; 'I' for Inactive)
REMARK    1  A    between atoms: C_5  and  C_6 
REMARK    2  A    between atoms: C_12  and  C_13 
REMARK       I    between atoms: C_13  and  N_14 
REMARK    3  A    between atoms: N_14  and  C_15 
REMARK    4  A    between atoms: C_18  and  C_19 
REMARK    5  A    between atoms: C_19  and  O_20 
REMARK    6  A    between atoms: C_25  and  C_26 
ROOT
HETATM    1  C   UNL     1       4.369  35.013  62.144  1.00  0.00     0.097 C 
HETATM    2  N   UNL     1       5.561  34.171  61.888  1.00  0.00    -0.268 NA
HETATM    3  C   UNL     1       6.335  33.831  62.963  1.00  0.00     0.118 A 
HETATM    4  N   UNL     1       6.235  34.527  64.148  1.00  0.00    -0.245 N 
HETATM    5  N   UNL     1       7.120  34.151  65.079  1.00  0.00    -0.182 NA
HETATM    6  C   UNL     1       7.759  33.133  64.498  1.00  0.00     0.159 A 
HETATM    7  C   UNL     1       7.331  32.893  63.166  1.00  0.00     0.091 A 
HETATM    8  C   UNL     1       5.393  35.688  64.362  1.00  0.00     0.221 C 
HETATM    9  C   UNL     1       4.815  36.195  63.026  1.00  0.00     0.061 C 
HETATM   10  H   UNL     1       6.064  34.503  61.060  1.00  0.00     0.130 HD
ENDROOT
BRANCH   7  11
HETATM   11  C   UNL     1       7.891  31.874  62.289  1.00  0.00     0.261 C 
HETATM   12  N   UNL     1       7.750  32.137  60.941  1.00  0.00    -0.323 N 
HETATM   13  H   UNL     1       7.189  32.950  60.714  1.00  0.00     0.169 HD
HETATM   14  O   UNL     1       8.457  30.900  62.773  1.00  0.00    -0.267 OA
BRANCH  12  15
HETATM   15  C   UNL     1       8.367  31.452  59.871  1.00  0.00     0.035 A 
HETATM   16  C   UNL     1       7.835  30.313  59.266  1.00  0.00     0.030 A 
HETATM   17  C   UNL     1       8.538  29.634  58.263  1.00  0.00     0.012 A 
HETATM   18  C   UNL     1       9.797  30.074  57.842  1.00  0.00    -0.030 A 
HETATM   19  C   UNL     1      10.312  31.242  58.430  1.00  0.00     0.012 A 
HETATM   20  C   UNL     1       9.604  31.926  59.427  1.00  0.00     0.030 A 
BRANCH  18  21
HETATM   21  C   UNL     1      10.625  29.355  56.794  1.00  0.00     0.147 C 
HETATM   22  C   UNL     1      10.207  29.559  55.341  1.00  0.00     0.044 C 
BRANCH  21  23
HETATM   23  O   UNL     1      11.989  29.760  56.912  1.00  0.00    -0.391 OA
HETATM   24  H   UNL     1      12.523  28.954  57.018  1.00  0.00     0.210 HD
ENDBRANCH  21  23
ENDBRANCH  18  21
ENDBRANCH  12  15
ENDBRANCH   7  11
BRANCH   1  25
HETATM   25  C   UNL     1       3.677  35.374  60.835  1.00  0.00    -0.040 A 
HETATM   26  C   UNL     1       4.034  34.696  59.655  1.00  0.00     0.009 A 
HETATM   27  C   UNL     1       3.348  34.912  58.456  1.00  0.00     0.007 A 
HETATM   28  C   UNL     1       2.274  35.804  58.403  1.00  0.00    -0.062 A 
HETATM   29  C   UNL     1       1.484  35.973  57.140  1.00  0.00     0.048 C 
HETATM   30  C   UNL     1       1.899  36.473  59.571  1.00  0.00     0.007 A 
HETATM   31  C   UNL     1       2.593  36.264  60.768  1.00  0.00     0.009 A 
ENDBRANCH   1  25
BRANCH   8  32
HETATM   32  C   UNL     1       4.303  35.369  65.364  1.00  0.00     0.409 C 
HETATM   33  F   UNL     1       3.975  34.061  65.401  1.00  0.00    -0.169 F 
HETATM   34  F   UNL     1       4.728  35.690  66.615  1.00  0.00    -0.169 F 
HETATM   35  F   UNL     1       3.174  36.078  65.150  1.00  0.00    -0.169 F 
ENDBRANCH   8  32
TORSDOF 6
ENDMDL
MODEL 10
REMARK VINA RESULT:      -8.9      4.883      8.338
REMARK  6 active torsions:
REMARK  status: ('A' for Active; 'I' for Inactive)
REMARK    1  A    between atoms: C_5  and  C_6 
REMARK    2  A    between atoms: C_12  and  C_13 
REMARK       I    between atoms: C_13  and  N_14 
REMARK    3  A    between atoms: N_14  and  C_15 
REMARK    4  A    between atoms: C_18  and  C_19 
REMARK    5  A    between atoms: C_19  and  O_20 
REMARK    6  A    between atoms: C_25  and  C_26 
ROOT
HETATM    1  C   UNL     1       6.426  32.053  60.664  1.00  0.00     0.097 C 
HETATM    2  N   UNL     1       6.369  31.336  59.370  1.00  0.00    -0.268 NA
HETATM    3  C   UNL     1       7.541  30.837  58.873  1.00  0.00     0.118 A 
HETATM    4  N   UNL     1       8.753  31.289  59.347  1.00  0.00    -0.245 N 
HETATM    5  N   UNL     1       9.814  30.788  58.702  1.00  0.00    -0.182 NA
HETATM    6  C   UNL     1       9.268  29.932  57.837  1.00  0.00     0.159 A 
HETATM    7  C   UNL     1       7.849  29.928  57.876  1.00  0.00     0.091 A 
HETATM    8  C   UNL     1       8.921  32.345  60.327  1.00  0.00     0.221 C 
HETATM    9  C   UNL     1       7.583  33.066  60.584  1.00  0.00     0.061 C 
HETATM   10  H   UNL     1       5.780  31.843  58.703  1.00  0.00     0.130 HD
ENDROOT
BRANCH   7  11
HETATM   11  C   UNL     1       7.000  29.124  57.008  1.00  0.00     0.261 C 
HETATM   12  N   UNL     1       7.379  29.118  55.680  1.00  0.00    -0.323 N 
HETATM   13  H   UNL     1       8.136  29.748  55.442  1.00  0.00     0.169 HD
HETATM   14  O   UNL     1       6.059  28.501  57.486  1.00  0.00    -0.267 OA
BRANCH  12  15
HETATM   15  C   UNL     1       6.886  28.277  54.658  1.00  0.00     0.035 A 
HETATM   16  C   UNL     1       7.568  27.160  54.174  1.00  0.00     0.030 A 
HETATM   17  C   UNL     1       7.061  26.414  53.102  1.00  0.00     0.012 A 
HETATM   18  C   UNL     1       5.860  26.771  52.481  1.00  0.00    -0.030 A 
HETATM   19  C   UNL     1       5.160  27.875  52.996  1.00  0.00     0.012 A 
HETATM   20  C   UNL     1       5.663  28.615  54.074  1.00  0.00     0.030 A 
BRANCH  18  21
HETATM   21  C   UNL     1       5.285  26.030  51.290  1.00  0.00     0.147 C 
HETATM   22  C   UNL     1       4.697  24.649  51.566  1.00  0.00     0.044 C 
BRANCH  21  23
HETATM   23  O   UNL     1       4.259  26.823  50.691  1.00  0.00    -0.391 OA
HETATM   24  H   UNL     1       3.406  26.427  50.935  1.00  0.00     0.210 HD
ENDBRANCH  21  23
ENDBRANCH  18  21
ENDBRANCH  12  15
ENDBRANCH   7  11
BRANCH   1  25
HETATM   25  C   UNL     1       5.059  32.621  61.023  1.00  0.00    -0.040 A 
HETATM   26  C   UNL     1       4.765  32.919  62.367  1.00  0.00     0.009 A 
HETATM   27  C   UNL     1       3.569  33.547  62.729  1.00  0.00     0.007 A 
HETATM   28  C   UNL     1       2.635  33.908  61.755  1.00  0.00    -0.062 A 
HETATM   29  C   UNL     1       1.392  34.657  62.132  1.00  0.00     0.048 C 
HETATM   30  C   UNL     1       2.920  33.632  60.416  1.00  0.00     0.007 A 
HETATM   31  C   UNL     1       4.111  32.993  60.056  1.00  0.00     0.009 A 
ENDBRANCH   1  25
BRANCH   8  32
HETATM   32  C   UNL     1       9.516  31.787  61.604  1.00  0.00     0.409 C 
HETATM   33  F   UNL     1       9.446  30.443  61.684  1.00  0.00    -0.169 F 
HETATM   34  F   UNL     1      10.837  32.104  61.666  1.00  0.00    -0.169 F 
HETATM   35  F   UNL     1       8.946  32.303  62.714  1.00  0.00    -0.169 F 
ENDBRANCH   8  32
TORSDOF 6
ENDMDL
