MODEL 1
REMARK VINA RESULT:     -10.1      0.000      0.000
REMARK  6 active torsions:
REMARK  status: ('A' for Active; 'I' for Inactive)
REMARK    1  A    between atoms: C_2  and  O_3 
REMARK    2  A    between atoms: C_2  and  C_4 
REMARK    3  A    between atoms: C_7  and  N_8 
REMARK       I    between atoms: N_8  and  C_9 
REMARK    4  A    between atoms: C_9  and  C_10 
REMARK    5  A    between atoms: C_13  and  C_14 
REMARK    6  A    between atoms: C_19  and  C_20 
ROOT
HETATM    1  C   UNL     1       6.429  27.899  54.586  1.00  0.00     0.096 A 
HETATM    2  C   UNL     1       6.861  26.969  53.659  1.00  0.00     0.138 A 
HETATM    3  N   UNL     1       5.730  26.542  53.001  1.00  0.00    -0.240 N 
HETATM    4  C   UNL     1       5.717  25.522  51.966  1.00  0.00     0.221 C 
HETATM    5  C   UNL     1       7.152  25.224  51.485  1.00  0.00     0.066 C 
HETATM    6  C   UNL     1       8.138  25.146  52.663  1.00  0.00     0.118 C 
HETATM    7  N   UNL     1       8.082  26.438  53.370  1.00  0.00    -0.365 N 
HETATM    8  N   UNL     1       4.593  27.009  53.537  1.00  0.00    -0.181 NA
HETATM    9  C   UNL     1       5.018  27.848  54.486  1.00  0.00     0.160 A 
HETATM   10  H   UNL     1       8.835  26.537  54.054  1.00  0.00     0.161 HD
ENDROOT
BRANCH   1  11
HETATM   11  C   UNL     1       7.207  28.702  55.511  1.00  0.00     0.261 C 
HETATM   12  N   UNL     1       6.509  29.040  56.655  1.00  0.00    -0.323 N 
HETATM   13  H   UNL     1       5.611  28.582  56.766  1.00  0.00     0.169 HD
HETATM   14  O   UNL     1       8.375  28.979  55.269  1.00  0.00    -0.267 OA
BRANCH  12  15
HETATM   15  C   UNL     1       6.957  29.826  57.733  1.00  0.00     0.035 A 
HETATM   16  C   UNL     1       8.028  29.477  58.555  1.00  0.00     0.030 A 
HETATM   17  C   UNL     1       8.418  30.312  59.609  1.00  0.00     0.012 A 
HETATM   18  C   UNL     1       7.741  31.511  59.862  1.00  0.00    -0.030 A 
HETATM   19  C   UNL     1       6.662  31.856  59.038  1.00  0.00     0.012 A 
HETATM   20  C   UNL     1       6.283  31.028  57.976  1.00  0.00     0.030 A 
BRANCH  18  21
HETATM   21  C   UNL     1       8.153  32.382  61.030  1.00  0.00     0.147 C 
HETATM   22  C   UNL     1       9.507  31.976  61.592  1.00  0.00     0.044 C 
BRANCH  21  23
HETATM   23  O   UNL     1       7.181  32.314  62.072  1.00  0.00    -0.391 OA
HETATM   24  H   UNL     1       7.475  31.617  62.684  1.00  0.00     0.210 HD
ENDBRANCH  21  23
ENDBRANCH  18  21
ENDBRANCH  12  15
ENDBRANCH   1  11
BRANCH   4  25
HETATM   25  C   UNL     1       4.870  25.943  50.786  1.00  0.00     0.409 C 
HETATM   26  F   UNL     1       4.133  27.046  51.050  1.00  0.00    -0.169 F 
HETATM   27  F   UNL     1       5.680  26.265  49.739  1.00  0.00    -0.169 F 
HETATM   28  F   UNL     1       4.043  24.978  50.337  1.00  0.00    -0.169 F 
ENDBRANCH   4  25
BRANCH   6  29
HETATM   29  C   UNL     1       7.927  23.940  53.578  1.00  0.00    -0.035 A 
HETATM   30  C   UNL     1       7.968  22.638  53.035  1.00  0.00     0.012 A 
HETATM   31  C   UNL     1       7.779  21.511  53.839  1.00  0.00     0.043 A 
HETATM   32  C   UNL     1       7.567  21.669  55.201  1.00  0.00     0.116 A 
HETATM   33  F   UNL     1       7.389  20.588  55.972  1.00  0.00    -0.206 F 
HETATM   34  C   UNL     1       7.545  22.931  55.773  1.00  0.00     0.043 A 
HETATM   35  C   UNL     1       7.729  24.059  54.968  1.00  0.00     0.012 A 
ENDBRANCH   6  29
TORSDOF 6
ENDMDL
MODEL 2
REMARK VINA RESULT:      -9.9      4.097      8.341
REMARK  6 active torsions:
REMARK  status: ('A' for Active; 'I' for Inactive)
REMARK    1  A    between atoms: C_2  and  O_3 
REMARK    2  A    between atoms: C_2  and  C_4 
REMARK    3  A    between atoms: C_7  and  N_8 
REMARK       I    between atoms: N_8  and  C_9 
REMARK    4  A    between atoms: C_9  and  C_10 
REMARK    5  A    between atoms: C_13  and  C_14 
REMARK    6  A    between atoms: C_19  and  C_20 
ROOT
HETATM    1  C   UNL     1       5.635  27.654  53.461  1.00  0.00     0.096 A 
HETATM    2  C   UNL     1       5.885  26.841  54.551  1.00  0.00     0.138 A 
HETATM    3  N   UNL     1       7.055  27.307  55.108  1.00  0.00    -0.240 N 
HETATM    4  C   UNL     1       7.712  26.710  56.257  1.00  0.00     0.221 C 
HETATM    5  C   UNL     1       6.773  25.705  56.954  1.00  0.00     0.066 C 
HETATM    6  C   UNL     1       6.016  24.837  55.935  1.00  0.00     0.118 C 
HETATM    7  N   UNL     1       5.253  25.747  55.063  1.00  0.00    -0.365 N 
HETATM    8  N   UNL     1       7.654  28.254  54.372  1.00  0.00    -0.181 NA
HETATM    9  C   UNL     1       6.783  28.479  53.384  1.00  0.00     0.160 A 
HETATM   10  H   UNL     1       4.583  25.247  54.475  1.00  0.00     0.161 HD
ENDROOT
BRANCH   1  11
HETATM   11  C   UNL     1       4.508  27.643  52.548  1.00  0.00     0.261 C 
HETATM   12  N   UNL     1       4.887  27.561  51.221  1.00  0.00    -0.323 N 
HETATM   13  H   UNL     1       5.873  27.384  51.062  1.00  0.00     0.169 HD
HETATM   14  O   UNL     1       3.359  27.658  52.972  1.00  0.00    -0.267 OA
BRANCH  12  15
HETATM   15  C   UNL     1       4.052  27.555  50.088  1.00  0.00     0.035 A 
HETATM   16  C   UNL     1       3.181  28.594  49.761  1.00  0.00     0.030 A 
HETATM   17  C   UNL     1       2.381  28.518  48.615  1.00  0.00     0.012 A 
HETATM   18  C   UNL     1       2.434  27.398  47.776  1.00  0.00    -0.030 A 
HETATM   19  C   UNL     1       3.306  26.354  48.111  1.00  0.00     0.012 A 
HETATM   20  C   UNL     1       4.116  26.438  49.248  1.00  0.00     0.030 A 
BRANCH  18  21
HETATM   21  C   UNL     1       1.533  27.317  46.562  1.00  0.00     0.147 C 
HETATM   22  C   UNL     1       0.093  27.674  46.899  1.00  0.00     0.044 C 
BRANCH  21  23
HETATM   23  O   UNL     1       1.566  26.005  46.003  1.00  0.00    -0.391 OA
HETATM   24  H   UNL     1       2.245  25.509  46.491  1.00  0.00     0.210 HD
ENDBRANCH  21  23
ENDBRANCH  18  21
ENDBRANCH  12  15
ENDBRANCH   1  11
BRANCH   4  25
HETATM   25  C   UNL     1       8.150  27.762  57.252  1.00  0.00     0.409 C 
HETATM   26  F   UNL     1       7.447  28.911  57.126  1.00  0.00    -0.169 F 
HETATM   27  F   UNL     1       7.921  27.311  58.517  1.00  0.00    -0.169 F 
HETATM   28  F   UNL     1       9.462  28.058  57.191  1.00  0.00    -0.169 F 
ENDBRANCH   4  25
BRANCH   6  29
HETATM   29  C   UNL     1       6.903  23.856  55.166  1.00  0.00    -0.035 A 
HETATM   30  C   UNL     1       7.765  22.994  55.877  1.00  0.00     0.012 A 
HETATM   31  C   UNL     1       8.590  22.085  55.210  1.00  0.00     0.043 A 
HETATM   32  C   UNL     1       8.551  22.011  53.825  1.00  0.00     0.116 A 
HETATM   33  F   UNL     1       9.340  21.137  53.187  1.00  0.00    -0.206 F 
HETATM   34  C   UNL     1       7.698  22.825  53.097  1.00  0.00     0.043 A 
HETATM   35  C   UNL     1       6.876  23.738  53.763  1.00  0.00     0.012 A 
ENDBRANCH   6  29
TORSDOF 6
ENDMDL
MODEL 3
REMARK VINA RESULT:      -9.8      3.829      7.994
REMARK  6 active torsions:
REMARK  status: ('A' for Active; 'I' for Inactive)
REMARK    1  A    between atoms: C_2  and  O_3 
REMARK    2  A    between atoms: C_2  and  C_4 
REMARK    3  A    between atoms: C_7  and  N_8 
REMARK       I    between atoms: N_8  and  C_9 
REMARK    4  A    between atoms: C_9  and  C_10 
REMARK    5  A    between atoms: C_13  and  C_14 
REMARK    6  A    between atoms: C_19  and  C_20 
ROOT
HETATM    1  C   UNL     1       5.211  27.288  53.417  1.00  0.00     0.096 A 
HETATM    2  C   UNL     1       4.692  28.095  54.413  1.00  0.00     0.138 A 
HETATM    3  N   UNL     1       4.693  29.372  53.900  1.00  0.00    -0.240 N 
HETATM    4  C   UNL     1       4.268  30.551  54.633  1.00  0.00     0.221 C 
HETATM    5  C   UNL     1       3.524  30.147  55.922  1.00  0.00     0.066 C 
HETATM    6  C   UNL     1       4.226  28.980  56.637  1.00  0.00     0.118 C 
HETATM    7  N   UNL     1       4.281  27.853  55.690  1.00  0.00    -0.365 N 
HETATM    8  N   UNL     1       5.312  29.470  52.715  1.00  0.00    -0.181 NA
HETATM    9  C   UNL     1       5.609  28.202  52.413  1.00  0.00     0.160 A 
HETATM   10  H   UNL     1       4.568  26.982  56.141  1.00  0.00     0.161 HD
ENDROOT
BRANCH   1  11
HETATM   11  C   UNL     1       5.388  25.848  53.403  1.00  0.00     0.261 C 
HETATM   12  N   UNL     1       6.548  25.438  54.033  1.00  0.00    -0.323 N 
HETATM   13  H   UNL     1       7.048  26.164  54.535  1.00  0.00     0.169 HD
HETATM   14  O   UNL     1       4.537  25.118  52.909  1.00  0.00    -0.267 OA
BRANCH  12  15
HETATM   15  C   UNL     1       7.030  24.123  54.174  1.00  0.00     0.035 A 
HETATM   16  C   UNL     1       7.428  23.325  53.102  1.00  0.00     0.030 A 
HETATM   17  C   UNL     1       7.900  22.025  53.319  1.00  0.00     0.012 A 
HETATM   18  C   UNL     1       7.979  21.498  54.615  1.00  0.00    -0.030 A 
HETATM   19  C   UNL     1       7.573  22.301  55.688  1.00  0.00     0.012 A 
HETATM   20  C   UNL     1       7.115  23.605  55.470  1.00  0.00     0.030 A 
BRANCH  18  21
HETATM   21  C   UNL     1       8.455  20.077  54.827  1.00  0.00     0.147 C 
HETATM   22  C   UNL     1       9.444  19.975  55.979  1.00  0.00     0.044 C 
BRANCH  21  23
HETATM   23  O   UNL     1       9.071  19.574  53.643  1.00  0.00    -0.391 OA
HETATM   24  H   UNL     1       8.838  20.187  52.924  1.00  0.00     0.210 HD
ENDBRANCH  21  23
ENDBRANCH  18  21
ENDBRANCH  12  15
ENDBRANCH   1  11
BRANCH   4  25
HETATM   25  C   UNL     1       3.369  31.432  53.792  1.00  0.00     0.409 C 
HETATM   26  F   UNL     1       2.744  30.739  52.812  1.00  0.00    -0.169 F 
HETATM   27  F   UNL     1       2.388  31.957  54.576  1.00  0.00    -0.169 F 
HETATM   28  F   UNL     1       4.003  32.480  53.232  1.00  0.00    -0.169 F 
ENDBRANCH   4  25
BRANCH   6  29
HETATM   29  C   UNL     1       5.587  29.340  57.237  1.00  0.00    -0.035 A 
HETATM   30  C   UNL     1       6.619  28.379  57.245  1.00  0.00     0.012 A 
HETATM   31  C   UNL     1       7.875  28.671  57.785  1.00  0.00     0.043 A 
HETATM   32  C   UNL     1       8.122  29.934  58.304  1.00  0.00     0.116 A 
HETATM   33  F   UNL     1       9.327  30.213  58.818  1.00  0.00    -0.206 F 
HETATM   34  C   UNL     1       7.138  30.910  58.289  1.00  0.00     0.043 A 
HETATM   35  C   UNL     1       5.880  30.617  57.754  1.00  0.00     0.012 A 
ENDBRANCH   6  29
TORSDOF 6
ENDMDL
MODEL 4
REMARK VINA RESULT:      -9.6      3.302      5.960
REMARK  6 active torsions:
REMARK  status: ('A' for Active; 'I' for Inactive)
REMARK    1  A    between atoms: C_2  and  O_3 
REMARK    2  A    between atoms: C_2  and  C_4 
REMARK    3  A    between atoms: C_7  and  N_8 
REMARK       I    between atoms: N_8  and  C_9 
REMARK    4  A    between atoms: C_9  and  C_10 
REMARK    5  A    between atoms: C_13  and  C_14 
REMARK    6  A    between atoms: C_19  and  C_20 
ROOT
HETATM    1  C   UNL     1       7.629  29.766  58.124  1.00  0.00     0.096 A 
HETATM    2  C   UNL     1       6.681  28.880  57.646  1.00  0.00     0.138 A 
HETATM    3  N   UNL     1       7.383  27.907  56.971  1.00  0.00    -0.240 N 
HETATM    4  C   UNL     1       6.773  26.794  56.266  1.00  0.00     0.221 C 
HETATM    5  C   UNL     1       5.283  26.668  56.643  1.00  0.00     0.066 C 
HETATM    6  C   UNL     1       4.596  28.043  56.698  1.00  0.00     0.118 C 
HETATM    7  N   UNL     1       5.319  28.857  57.691  1.00  0.00    -0.365 N 
HETATM    8  N   UNL     1       8.690  28.182  56.847  1.00  0.00    -0.181 NA
HETATM    9  C   UNL     1       8.842  29.300  57.564  1.00  0.00     0.160 A 
HETATM   10  H   UNL     1       4.821  29.719  57.921  1.00  0.00     0.161 HD
ENDROOT
BRANCH   1  11
HETATM   11  C   UNL     1       7.447  30.947  58.947  1.00  0.00     0.261 C 
HETATM   12  N   UNL     1       7.517  30.680  60.301  1.00  0.00    -0.323 N 
HETATM   13  H   UNL     1       7.816  29.741  60.542  1.00  0.00     0.169 HD
HETATM   14  O   UNL     1       7.300  32.050  58.434  1.00  0.00    -0.267 OA
BRANCH  12  15
HETATM   15  C   UNL     1       7.359  31.588  61.364  1.00  0.00     0.035 A 
HETATM   16  C   UNL     1       8.278  31.733  62.403  1.00  0.00     0.030 A 
HETATM   17  C   UNL     1       8.054  32.660  63.428  1.00  0.00     0.012 A 
HETATM   18  C   UNL     1       6.904  33.460  63.433  1.00  0.00    -0.030 A 
HETATM   19  C   UNL     1       5.981  33.308  62.390  1.00  0.00     0.012 A 
HETATM   20  C   UNL     1       6.213  32.391  61.360  1.00  0.00     0.030 A 
BRANCH  18  21
HETATM   21  C   UNL     1       6.660  34.430  64.569  1.00  0.00     0.147 C 
HETATM   22  C   UNL     1       6.935  33.798  65.925  1.00  0.00     0.044 C 
BRANCH  21  23
HETATM   23  O   UNL     1       5.313  34.901  64.544  1.00  0.00    -0.391 OA
HETATM   24  H   UNL     1       5.118  35.239  65.435  1.00  0.00     0.210 HD
ENDBRANCH  21  23
ENDBRANCH  18  21
ENDBRANCH  12  15
ENDBRANCH   1  11
BRANCH   4  25
HETATM   25  C   UNL     1       7.479  25.491  56.573  1.00  0.00     0.409 C 
HETATM   26  F   UNL     1       8.264  25.579  57.671  1.00  0.00    -0.169 F 
HETATM   27  F   UNL     1       6.555  24.527  56.840  1.00  0.00    -0.169 F 
HETATM   28  F   UNL     1       8.226  25.022  55.554  1.00  0.00    -0.169 F 
ENDBRANCH   4  25
BRANCH   6  29
HETATM   29  C   UNL     1       4.452  28.726  55.337  1.00  0.00    -0.035 A 
HETATM   30  C   UNL     1       4.416  27.941  54.165  1.00  0.00     0.012 A 
HETATM   31  C   UNL     1       4.285  28.529  52.904  1.00  0.00     0.043 A 
HETATM   32  C   UNL     1       4.169  29.908  52.799  1.00  0.00     0.116 A 
HETATM   33  F   UNL     1       4.041  30.470  51.590  1.00  0.00    -0.206 F 
HETATM   34  C   UNL     1       4.175  30.707  53.931  1.00  0.00     0.043 A 
HETATM   35  C   UNL     1       4.311  30.120  55.192  1.00  0.00     0.012 A 
ENDBRANCH   6  29
TORSDOF 6
ENDMDL
MODEL 5
REMARK VINA RESULT:      -9.6      5.829      8.608
REMARK  6 active torsions:
REMARK  status: ('A' for Active; 'I' for Inactive)
REMARK    1  A    between atoms: C_2  and  O_3 
REMARK    2  A    between atoms: C_2  and  C_4 
REMARK    3  A    between atoms: C_7  and  N_8 
REMARK       I    between atoms: N_8  and  C_9 
REMARK    4  A    between atoms: C_9  and  C_10 
REMARK    5  A    between atoms: C_13  and  C_14 
REMARK    6  A    between atoms: C_19  and  C_20 
ROOT
HETATM    1  C   UNL     1       4.990  27.571  51.319  1.00  0.00     0.096 A 
HETATM    2  C   UNL     1       4.989  28.168  50.072  1.00  0.00     0.138 A 
HETATM    3  N   UNL     1       4.643  29.483  50.285  1.00  0.00    -0.240 N 
HETATM    4  C   UNL     1       4.477  30.469  49.232  1.00  0.00     0.221 C 
HETATM    5  C   UNL     1       5.047  29.939  47.901  1.00  0.00     0.066 C 
HETATM    6  C   UNL     1       4.671  28.465  47.673  1.00  0.00     0.118 C 
HETATM    7  N   UNL     1       5.201  27.695  48.811  1.00  0.00    -0.365 N 
HETATM    8  N   UNL     1       4.272  29.738  51.548  1.00  0.00    -0.181 NA
HETATM    9  C   UNL     1       4.503  28.583  52.179  1.00  0.00     0.160 A 
HETATM   10  H   UNL     1       5.153  26.687  48.651  1.00  0.00     0.161 HD
ENDROOT
BRANCH   1  11
HETATM   11  C   UNL     1       5.334  26.210  51.684  1.00  0.00     0.261 C 
HETATM   12  N   UNL     1       6.223  26.140  52.741  1.00  0.00    -0.323 N 
HETATM   13  H   UNL     1       6.412  27.021  53.206  1.00  0.00     0.169 HD
HETATM   14  O   UNL     1       4.818  25.259  51.110  1.00  0.00    -0.267 OA
BRANCH  12  15
HETATM   15  C   UNL     1       6.777  24.984  53.322  1.00  0.00     0.035 A 
HETATM   16  C   UNL     1       6.508  24.566  54.624  1.00  0.00     0.030 A 
HETATM   17  C   UNL     1       7.095  23.402  55.134  1.00  0.00     0.012 A 
HETATM   18  C   UNL     1       7.967  22.636  54.350  1.00  0.00    -0.030 A 
HETATM   19  C   UNL     1       8.239  23.062  53.043  1.00  0.00     0.012 A 
HETATM   20  C   UNL     1       7.639  24.217  52.531  1.00  0.00     0.030 A 
BRANCH  18  21
HETATM   21  C   UNL     1       8.622  21.401  54.931  1.00  0.00     0.147 C 
HETATM   22  C   UNL     1       8.725  20.278  53.910  1.00  0.00     0.044 C 
BRANCH  21  23
HETATM   23  O   UNL     1       7.890  20.932  56.061  1.00  0.00    -0.391 OA
HETATM   24  H   UNL     1       7.646  20.009  55.874  1.00  0.00     0.210 HD
ENDBRANCH  21  23
ENDBRANCH  18  21
ENDBRANCH  12  15
ENDBRANCH   1  11
BRANCH   4  25
HETATM   25  C   UNL     1       5.156  31.774  49.584  1.00  0.00     0.409 C 
HETATM   26  F   UNL     1       6.314  31.584  50.258  1.00  0.00    -0.169 F 
HETATM   27  F   UNL     1       5.484  32.437  48.441  1.00  0.00    -0.169 F 
HETATM   28  F   UNL     1       4.384  32.617  50.298  1.00  0.00    -0.169 F 
ENDBRANCH   4  25
BRANCH   6  29
HETATM   29  C   UNL     1       3.182  28.231  47.416  1.00  0.00    -0.035 A 
HETATM   30  C   UNL     1       2.413  29.245  46.807  1.00  0.00     0.012 A 
HETATM   31  C   UNL     1       1.049  29.067  46.557  1.00  0.00     0.043 A 
HETATM   32  C   UNL     1       0.441  27.867  46.894  1.00  0.00     0.116 A 
HETATM   33  F   UNL     1      -0.865  27.697  46.651  1.00  0.00    -0.206 F 
HETATM   34  C   UNL     1       1.171  26.840  47.470  1.00  0.00     0.043 A 
HETATM   35  C   UNL     1       2.534  27.018  47.725  1.00  0.00     0.012 A 
ENDBRANCH   6  29
TORSDOF 6
ENDMDL
MODEL 6
REMARK VINA RESULT:      -9.3      5.507      8.434
REMARK  6 active torsions:
REMARK  status: ('A' for Active; 'I' for Inactive)
REMARK    1  A    between atoms: C_2  and  O_3 
REMARK    2  A    between atoms: C_2  and  C_4 
REMARK    3  A    between atoms: C_7  and  N_8 
REMARK       I    between atoms: N_8  and  C_9 
REMARK    4  A    between atoms: C_9  and  C_10 
REMARK    5  A    between atoms: C_13  and  C_14 
REMARK    6  A    between atoms: C_19  and  C_20 
ROOT
HETATM    1  C   UNL     1       4.772  27.018  50.537  1.00  0.00     0.096 A 
HETATM    2  C   UNL     1       3.928  28.084  50.286  1.00  0.00     0.138 A 
HETATM    3  N   UNL     1       3.414  27.868  49.027  1.00  0.00    -0.240 N 
HETATM    4  C   UNL     1       2.509  28.774  48.343  1.00  0.00     0.221 C 
HETATM    5  C   UNL     1       1.957  29.828  49.324  1.00  0.00     0.066 C 
HETATM    6  C   UNL     1       3.055  30.361  50.259  1.00  0.00     0.118 C 
HETATM    7  N   UNL     1       3.609  29.207  50.989  1.00  0.00    -0.365 N 
HETATM    8  N   UNL     1       3.978  26.830  48.392  1.00  0.00    -0.181 NA
HETATM    9  C   UNL     1       4.787  26.303  49.316  1.00  0.00     0.160 A 
HETATM   10  H   UNL     1       4.217  29.493  51.759  1.00  0.00     0.161 HD
ENDROOT
BRANCH   1  11
HETATM   11  C   UNL     1       5.534  26.713  51.734  1.00  0.00     0.261 C 
HETATM   12  N   UNL     1       5.675  25.356  51.955  1.00  0.00    -0.323 N 
HETATM   13  H   UNL     1       5.356  24.759  51.200  1.00  0.00     0.169 HD
HETATM   14  O   UNL     1       6.019  27.611  52.411  1.00  0.00    -0.267 OA
BRANCH  12  15
HETATM   15  C   UNL     1       6.329  24.725  53.030  1.00  0.00     0.035 A 
HETATM   16  C   UNL     1       5.954  24.880  54.364  1.00  0.00     0.030 A 
HETATM   17  C   UNL     1       6.652  24.218  55.381  1.00  0.00     0.012 A 
HETATM   18  C   UNL     1       7.742  23.390  55.082  1.00  0.00    -0.030 A 
HETATM   19  C   UNL     1       8.119  23.242  53.741  1.00  0.00     0.012 A 
HETATM   20  C   UNL     1       7.412  23.893  52.725  1.00  0.00     0.030 A 
BRANCH  18  21
HETATM   21  C   UNL     1       8.509  22.713  56.197  1.00  0.00     0.147 C 
HETATM   22  C   UNL     1       8.189  21.229  56.287  1.00  0.00     0.044 C 
BRANCH  21  23
HETATM   23  O   UNL     1       8.212  23.326  57.451  1.00  0.00    -0.391 OA
HETATM   24  H   UNL     1       9.043  23.348  57.956  1.00  0.00     0.210 HD
ENDBRANCH  21  23
ENDBRANCH  18  21
ENDBRANCH  12  15
ENDBRANCH   1  11
BRANCH   4  25
HETATM   25  C   UNL     1       1.356  28.030  47.706  1.00  0.00     0.409 C 
HETATM   26  F   UNL     1       0.836  27.089  48.527  1.00  0.00    -0.169 F 
HETATM   27  F   UNL     1       0.347  28.903  47.436  1.00  0.00    -0.169 F 
HETATM   28  F   UNL     1       1.668  27.443  46.534  1.00  0.00    -0.169 F 
ENDBRANCH   4  25
BRANCH   6  29
HETATM   29  C   UNL     1       4.119  31.207  49.558  1.00  0.00    -0.035 A 
HETATM   30  C   UNL     1       3.746  32.039  48.481  1.00  0.00     0.012 A 
HETATM   31  C   UNL     1       4.689  32.827  47.815  1.00  0.00     0.043 A 
HETATM   32  C   UNL     1       6.013  32.809  48.230  1.00  0.00     0.116 A 
HETATM   33  F   UNL     1       6.916  33.567  47.593  1.00  0.00    -0.206 F 
HETATM   34  C   UNL     1       6.409  32.023  49.300  1.00  0.00     0.043 A 
HETATM   35  C   UNL     1       5.468  31.231  49.963  1.00  0.00     0.012 A 
ENDBRANCH   6  29
TORSDOF 6
ENDMDL
MODEL 7
REMARK VINA RESULT:      -9.1      5.090      8.061
REMARK  6 active torsions:
REMARK  status: ('A' for Active; 'I' for Inactive)
REMARK    1  A    between atoms: C_2  and  O_3 
REMARK    2  A    between atoms: C_2  and  C_4 
REMARK    3  A    between atoms: C_7  and  N_8 
REMARK       I    between atoms: N_8  and  C_9 
REMARK    4  A    between atoms: C_9  and  C_10 
REMARK    5  A    between atoms: C_13  and  C_14 
REMARK    6  A    between atoms: C_19  and  C_20 
ROOT
HETATM    1  C   UNL     1       5.154  28.358  52.815  1.00  0.00     0.096 A 
HETATM    2  C   UNL     1       5.083  29.094  51.647  1.00  0.00     0.138 A 
HETATM    3  N   UNL     1       3.941  29.856  51.752  1.00  0.00    -0.240 N 
HETATM    4  C   UNL     1       3.452  30.751  50.718  1.00  0.00     0.221 C 
HETATM    5  C   UNL     1       4.535  30.976  49.644  1.00  0.00     0.066 C 
HETATM    6  C   UNL     1       5.254  29.666  49.282  1.00  0.00     0.118 C 
HETATM    7  N   UNL     1       5.850  29.134  50.521  1.00  0.00    -0.365 N 
HETATM    8  N   UNL     1       3.195  29.552  52.825  1.00  0.00    -0.181 NA
HETATM    9  C   UNL     1       3.942  28.658  53.480  1.00  0.00     0.160 A 
HETATM   10  H   UNL     1       6.496  28.364  50.339  1.00  0.00     0.161 HD
ENDROOT
BRANCH   1  11
HETATM   11  C   UNL     1       6.182  27.432  53.254  1.00  0.00     0.261 C 
HETATM   12  N   UNL     1       5.796  26.108  53.153  1.00  0.00    -0.323 N 
HETATM   13  H   UNL     1       4.919  25.948  52.669  1.00  0.00     0.169 HD
HETATM   14  O   UNL     1       7.277  27.840  53.619  1.00  0.00    -0.267 OA
BRANCH  12  15
HETATM   15  C   UNL     1       6.537  24.968  53.515  1.00  0.00     0.035 A 
HETATM   16  C   UNL     1       6.584  24.453  54.810  1.00  0.00     0.030 A 
HETATM   17  C   UNL     1       7.344  23.312  55.096  1.00  0.00     0.012 A 
HETATM   18  C   UNL     1       8.074  22.667  54.090  1.00  0.00    -0.030 A 
HETATM   19  C   UNL     1       8.028  23.190  52.791  1.00  0.00     0.012 A 
HETATM   20  C   UNL     1       7.257  24.322  52.505  1.00  0.00     0.030 A 
BRANCH  18  21
HETATM   21  C   UNL     1       8.919  21.457  54.425  1.00  0.00     0.147 C 
HETATM   22  C   UNL     1       8.753  20.345  53.399  1.00  0.00     0.044 C 
BRANCH  21  23
HETATM   23  O   UNL     1       8.579  20.951  55.714  1.00  0.00    -0.391 OA
HETATM   24  H   UNL     1       7.671  21.247  55.901  1.00  0.00     0.210 HD
ENDBRANCH  21  23
ENDBRANCH  18  21
ENDBRANCH  12  15
ENDBRANCH   1  11
BRANCH   4  25
HETATM   25  C   UNL     1       3.033  32.085  51.295  1.00  0.00     0.409 C 
HETATM   26  F   UNL     1       3.840  32.485  52.304  1.00  0.00    -0.169 F 
HETATM   27  F   UNL     1       3.123  33.043  50.331  1.00  0.00    -0.169 F 
HETATM   28  F   UNL     1       1.759  32.114  51.734  1.00  0.00    -0.169 F 
ENDBRANCH   4  25
BRANCH   6  29
HETATM   29  C   UNL     1       4.378  28.654  48.543  1.00  0.00    -0.035 A 
HETATM   30  C   UNL     1       3.278  29.109  47.786  1.00  0.00     0.012 A 
HETATM   31  C   UNL     1       2.454  28.214  47.097  1.00  0.00     0.043 A 
HETATM   32  C   UNL     1       2.730  26.855  47.140  1.00  0.00     0.116 A 
HETATM   33  F   UNL     1       1.942  25.999  46.477  1.00  0.00    -0.206 F 
HETATM   34  C   UNL     1       3.817  26.376  47.853  1.00  0.00     0.043 A 
HETATM   35  C   UNL     1       4.639  27.269  48.546  1.00  0.00     0.012 A 
ENDBRANCH   6  29
TORSDOF 6
ENDMDL
MODEL 8
REMARK VINA RESULT:      -8.9      9.951     14.151
REMARK  6 active torsions:
REMARK  status: ('A' for Active; 'I' for Inactive)
REMARK    1  A    between atoms: C_2  and  O_3 
REMARK    2  A    between atoms: C_2  and  C_4 
REMARK    3  A    between atoms: C_7  and  N_8 
REMARK       I    between atoms: N_8  and  C_9 
REMARK    4  A    between atoms: C_9  and  C_10 
REMARK    5  A    between atoms: C_13  and  C_14 
REMARK    6  A    between atoms: C_19  and  C_20 
ROOT
HETATM    1  C   UNL     1       6.079  34.020  65.292  1.00  0.00     0.096 A 
HETATM    2  C   UNL     1       5.482  34.511  64.146  1.00  0.00     0.138 A 
HETATM    3  N   UNL     1       6.208  33.997  63.095  1.00  0.00    -0.240 N 
HETATM    4  C   UNL     1       5.953  34.295  61.697  1.00  0.00     0.221 C 
HETATM    5  C   UNL     1       4.586  34.990  61.534  1.00  0.00     0.066 C 
HETATM    6  C   UNL     1       4.357  36.050  62.625  1.00  0.00     0.118 C 
HETATM    7  N   UNL     1       4.444  35.367  63.927  1.00  0.00    -0.365 N 
HETATM    8  N   UNL     1       7.312  33.341  63.481  1.00  0.00    -0.181 NA
HETATM    9  C   UNL     1       7.223  33.339  64.814  1.00  0.00     0.160 A 
HETATM   10  H   UNL     1       4.127  35.960  64.696  1.00  0.00     0.161 HD
ENDROOT
BRANCH   1  11
HETATM   11  C   UNL     1       5.690  34.202  66.678  1.00  0.00     0.261 C 
HETATM   12  N   UNL     1       6.763  34.451  67.514  1.00  0.00    -0.323 N 
HETATM   13  H   UNL     1       7.649  34.607  67.045  1.00  0.00     0.169 HD
HETATM   14  O   UNL     1       4.510  34.177  67.006  1.00  0.00    -0.267 OA
BRANCH  12  15
HETATM   15  C   UNL     1       6.739  34.647  68.907  1.00  0.00     0.035 A 
HETATM   16  C   UNL     1       6.085  33.797  69.798  1.00  0.00     0.030 A 
HETATM   17  C   UNL     1       6.106  34.055  71.174  1.00  0.00     0.012 A 
HETATM   18  C   UNL     1       6.780  35.172  71.684  1.00  0.00    -0.030 A 
HETATM   19  C   UNL     1       7.432  36.027  70.785  1.00  0.00     0.012 A 
HETATM   20  C   UNL     1       7.422  35.759  69.412  1.00  0.00     0.030 A 
BRANCH  18  21
HETATM   21  C   UNL     1       6.760  35.457  73.170  1.00  0.00     0.147 C 
HETATM   22  C   UNL     1       5.737  34.598  73.899  1.00  0.00     0.044 C 
BRANCH  21  23
HETATM   23  O   UNL     1       6.466  36.831  73.412  1.00  0.00    -0.391 OA
HETATM   24  H   UNL     1       7.094  37.350  72.880  1.00  0.00     0.210 HD
ENDBRANCH  21  23
ENDBRANCH  18  21
ENDBRANCH  12  15
ENDBRANCH   1  11
BRANCH   4  25
HETATM   25  C   UNL     1       5.982  33.041  60.850  1.00  0.00     0.409 C 
HETATM   26  F   UNL     1       5.223  33.157  59.736  1.00  0.00    -0.169 F 
HETATM   27  F   UNL     1       7.255  32.813  60.423  1.00  0.00    -0.169 F 
HETATM   28  F   UNL     1       5.602  31.929  61.508  1.00  0.00    -0.169 F 
ENDBRANCH   4  25
BRANCH   6  29
HETATM   29  C   UNL     1       5.272  37.271  62.513  1.00  0.00    -0.035 A 
HETATM   30  C   UNL     1       5.739  37.899  63.687  1.00  0.00     0.012 A 
HETATM   31  C   UNL     1       6.576  39.017  63.625  1.00  0.00     0.043 A 
HETATM   32  C   UNL     1       6.974  39.508  62.390  1.00  0.00     0.116 A 
HETATM   33  F   UNL     1       7.778  40.578  62.333  1.00  0.00    -0.206 F 
HETATM   34  C   UNL     1       6.554  38.901  61.218  1.00  0.00     0.043 A 
HETATM   35  C   UNL     1       5.713  37.786  61.278  1.00  0.00     0.012 A 
ENDBRANCH   6  29
TORSDOF 6
ENDMDL
MODEL 9
REMARK VINA RESULT:      -8.5      3.449      6.071
REMARK  6 active torsions:
REMARK  status: ('A' for Active; 'I' for Inactive)
REMARK    1  A    between atoms: C_2  and  O_3 
REMARK    2  A    between atoms: C_2  and  C_4 
REMARK    3  A    between atoms: C_7  and  N_8 
REMARK       I    between atoms: N_8  and  C_9 
REMARK    4  A    between atoms: C_9  and  C_10 
REMARK    5  A    between atoms: C_13  and  C_14 
REMARK    6  A    between atoms: C_19  and  C_20 
ROOT
HETATM    1  C   UNL     1       5.392  27.315  52.660  1.00  0.00     0.096 A 
HETATM    2  C   UNL     1       4.519  27.834  51.720  1.00  0.00     0.138 A 
HETATM    3  N   UNL     1       4.760  27.136  50.558  1.00  0.00    -0.240 N 
HETATM    4  C   UNL     1       4.091  27.388  49.295  1.00  0.00     0.221 C 
HETATM    5  C   UNL     1       2.868  28.304  49.505  1.00  0.00     0.066 C 
HETATM    6  C   UNL     1       3.182  29.452  50.479  1.00  0.00     0.118 C 
HETATM    7  N   UNL     1       3.606  28.845  51.753  1.00  0.00    -0.365 N 
HETATM    8  N   UNL     1       5.821  26.319  50.638  1.00  0.00    -0.181 NA
HETATM    9  C   UNL     1       6.192  26.414  51.918  1.00  0.00     0.160 A 
HETATM   10  H   UNL     1       3.660  29.530  52.509  1.00  0.00     0.161 HD
ENDROOT
BRANCH   1  11
HETATM   11  C   UNL     1       5.529  27.648  54.065  1.00  0.00     0.261 C 
HETATM   12  N   UNL     1       6.414  28.686  54.292  1.00  0.00    -0.323 N 
HETATM   13  H   UNL     1       6.742  29.164  53.461  1.00  0.00     0.169 HD
HETATM   14  O   UNL     1       4.865  27.065  54.914  1.00  0.00    -0.267 OA
BRANCH  12  15
HETATM   15  C   UNL     1       6.793  29.234  55.532  1.00  0.00     0.035 A 
HETATM   16  C   UNL     1       5.977  30.071  56.291  1.00  0.00     0.030 A 
HETATM   17  C   UNL     1       6.423  30.579  57.518  1.00  0.00     0.012 A 
HETATM   18  C   UNL     1       7.697  30.259  58.006  1.00  0.00    -0.030 A 
HETATM   19  C   UNL     1       8.516  29.422  57.237  1.00  0.00     0.012 A 
HETATM   20  C   UNL     1       8.063  28.905  56.019  1.00  0.00     0.030 A 
BRANCH  18  21
HETATM   21  C   UNL     1       8.177  30.847  59.315  1.00  0.00     0.147 C 
HETATM   22  C   UNL     1       9.377  31.762  59.122  1.00  0.00     0.044 C 
BRANCH  21  23
HETATM   23  O   UNL     1       8.528  29.810  60.229  1.00  0.00    -0.391 OA
HETATM   24  H   UNL     1       8.151  30.057  61.092  1.00  0.00     0.210 HD
ENDBRANCH  21  23
ENDBRANCH  18  21
ENDBRANCH  12  15
ENDBRANCH   1  11
BRANCH   4  25
HETATM   25  C   UNL     1       3.646  26.100  48.637  1.00  0.00     0.409 C 
HETATM   26  F   UNL     1       2.387  26.182  48.149  1.00  0.00    -0.169 F 
HETATM   27  F   UNL     1       4.453  25.833  47.573  1.00  0.00    -0.169 F 
HETATM   28  F   UNL     1       3.719  25.023  49.443  1.00  0.00    -0.169 F 
ENDBRANCH   4  25
BRANCH   6  29
HETATM   29  C   UNL     1       4.173  30.482  49.934  1.00  0.00    -0.035 A 
HETATM   30  C   UNL     1       4.203  30.753  48.550  1.00  0.00     0.012 A 
HETATM   31  C   UNL     1       5.095  31.687  48.015  1.00  0.00     0.043 A 
HETATM   32  C   UNL     1       5.953  32.377  48.859  1.00  0.00     0.116 A 
HETATM   33  F   UNL     1       6.805  33.274  48.345  1.00  0.00    -0.206 F 
HETATM   34  C   UNL     1       5.933  32.154  50.226  1.00  0.00     0.043 A 
HETATM   35  C   UNL     1       5.046  31.216  50.761  1.00  0.00     0.012 A 
ENDBRANCH   6  29
TORSDOF 6
ENDMDL
MODEL 10
REMARK VINA RESULT:      -8.5      5.770     10.335
REMARK  6 active torsions:
REMARK  status: ('A' for Active; 'I' for Inactive)
REMARK    1  A    between atoms: C_2  and  O_3 
REMARK    2  A    between atoms: C_2  and  C_4 
REMARK    3  A    between atoms: C_7  and  N_8 
REMARK       I    between atoms: N_8  and  C_9 
REMARK    4  A    between atoms: C_9  and  C_10 
REMARK    5  A    between atoms: C_13  and  C_14 
REMARK    6  A    between atoms: C_19  and  C_20 
ROOT
HETATM    1  C   UNL     1       3.959  32.510  57.774  1.00  0.00     0.096 A 
HETATM    2  C   UNL     1       4.066  32.701  59.139  1.00  0.00     0.138 A 
HETATM    3  N   UNL     1       4.231  34.056  59.317  1.00  0.00    -0.240 N 
HETATM    4  C   UNL     1       4.430  34.698  60.604  1.00  0.00     0.221 C 
HETATM    5  C   UNL     1       4.113  33.716  61.751  1.00  0.00     0.066 C 
HETATM    6  C   UNL     1       4.678  32.315  61.468  1.00  0.00     0.118 C 
HETATM    7  N   UNL     1       4.086  31.848  60.202  1.00  0.00    -0.365 N 
HETATM    8  N   UNL     1       4.391  34.728  58.167  1.00  0.00    -0.181 NA
HETATM    9  C   UNL     1       4.206  33.793  57.231  1.00  0.00     0.160 A 
HETATM   10  H   UNL     1       4.267  30.857  60.032  1.00  0.00     0.161 HD
ENDROOT
BRANCH   1  11
HETATM   11  C   UNL     1       3.722  31.283  57.035  1.00  0.00     0.261 C 
HETATM   12  N   UNL     1       4.881  30.579  56.769  1.00  0.00    -0.323 N 
HETATM   13  H   UNL     1       5.714  30.927  57.229  1.00  0.00     0.169 HD
HETATM   14  O   UNL     1       2.582  30.936  56.749  1.00  0.00    -0.267 OA
BRANCH  12  15
HETATM   15  C   UNL     1       5.007  29.372  56.056  1.00  0.00     0.035 A 
HETATM   16  C   UNL     1       4.969  29.286  54.665  1.00  0.00     0.030 A 
HETATM   17  C   UNL     1       5.103  28.048  54.024  1.00  0.00     0.012 A 
HETATM   18  C   UNL     1       5.275  26.872  54.766  1.00  0.00    -0.030 A 
HETATM   19  C   UNL     1       5.307  26.962  56.163  1.00  0.00     0.012 A 
HETATM   20  C   UNL     1       5.187  28.201  56.801  1.00  0.00     0.030 A 
BRANCH  18  21
HETATM   21  C   UNL     1       5.380  25.538  54.057  1.00  0.00     0.147 C 
HETATM   22  C   UNL     1       6.565  25.493  53.104  1.00  0.00     0.044 C 
BRANCH  21  23
HETATM   23  O   UNL     1       4.187  25.266  53.324  1.00  0.00    -0.391 OA
HETATM   24  H   UNL     1       3.773  26.126  53.134  1.00  0.00     0.210 HD
ENDBRANCH  21  23
ENDBRANCH  18  21
ENDBRANCH  12  15
ENDBRANCH   1  11
BRANCH   4  25
HETATM   25  C   UNL     1       3.566  35.932  60.747  1.00  0.00     0.409 C 
HETATM   26  F   UNL     1       2.337  35.763  60.208  1.00  0.00    -0.169 F 
HETATM   27  F   UNL     1       3.372  36.197  62.068  1.00  0.00    -0.169 F 
HETATM   28  F   UNL     1       4.112  37.044  60.217  1.00  0.00    -0.169 F 
ENDBRANCH   4  25
BRANCH   6  29
HETATM   29  C   UNL     1       6.206  32.239  61.491  1.00  0.00    -0.035 A 
HETATM   30  C   UNL     1       6.888  32.328  62.723  1.00  0.00     0.012 A 
HETATM   31  C   UNL     1       8.283  32.264  62.784  1.00  0.00     0.043 A 
HETATM   32  C   UNL     1       9.013  32.089  61.618  1.00  0.00     0.116 A 
HETATM   33  F   UNL     1      10.349  32.024  61.678  1.00  0.00    -0.206 F 
HETATM   34  C   UNL     1       8.374  31.972  60.393  1.00  0.00     0.043 A 
HETATM   35  C   UNL     1       6.980  32.041  60.331  1.00  0.00     0.012 A 
ENDBRANCH   6  29
TORSDOF 6
ENDMDL
