MODEL 1
REMARK VINA RESULT:      -9.9      0.000      0.000
REMARK  4 active torsions:
REMARK  status: ('A' for Active; 'I' for Inactive)
REMARK    1  A    between atoms: C_6  and  N_7 
REMARK       I    between atoms: N_7  and  C_8 
REMARK    2  A    between atoms: C_8  and  C_9 
REMARK    3  A    between atoms: C_10  and  C_11 
REMARK    4  A    between atoms: C_13  and  O_14 
ROOT
HETATM    1  C   UNL     1       6.201  26.889  56.098  1.00  0.00     0.062 C 
HETATM    2  C   UNL     1       6.638  28.220  55.496  1.00  0.00     0.202 C 
HETATM    3  N   UNL     1       5.530  29.182  55.513  1.00  0.00    -0.084 N 
HETATM    4  C   UNL     1       4.357  28.988  56.196  1.00  0.00     0.725 A 
HETATM    5  N   UNL     1       4.168  27.838  56.870  1.00  0.00    -0.192 N 
HETATM    6  N   UNL     1       5.493  30.322  54.791  1.00  0.00    -0.149 NA
HETATM    7  C   UNL     1       4.305  30.812  55.167  1.00  0.00     0.275 A 
HETATM    8  N   UNL     1       3.575  30.021  56.018  1.00  0.00    -0.054 NA
HETATM    9  C   UNL     1       5.035  26.755  56.777  1.00  0.00     0.037 C 
HETATM   10  C   UNL     1       4.592  25.490  57.468  1.00  0.00     0.070 C 
HETATM   11  H   UNL     1       3.279  27.693  57.342  1.00  0.00     0.184 HD
ENDROOT
BRANCH   1  12
HETATM   12  C   UNL     1       7.119  25.753  55.834  1.00  0.00     0.256 C 
HETATM   13  N   UNL     1       6.533  24.782  55.047  1.00  0.00    -0.323 N 
HETATM   14  H   UNL     1       5.568  24.935  54.786  1.00  0.00     0.169 HD
HETATM   15  O   UNL     1       8.263  25.782  56.264  1.00  0.00    -0.267 OA
BRANCH  13  16
HETATM   16  C   UNL     1       7.132  23.604  54.538  1.00  0.00     0.041 A 
HETATM   17  C   UNL     1       7.558  23.583  53.192  1.00  0.00    -0.035 A 
HETATM   18  C   UNL     1       8.189  22.430  52.684  1.00  0.00     0.015 A 
HETATM   19  C   UNL     1       7.371  24.754  52.267  1.00  0.00     0.050 C 
HETATM   20  C   UNL     1       8.387  21.298  53.480  1.00  0.00    -0.061 A 
HETATM   21  C   UNL     1       9.099  20.093  52.944  1.00  0.00     0.048 C 
HETATM   22  C   UNL     1       7.962  21.329  54.807  1.00  0.00     0.009 A 
HETATM   23  C   UNL     1       7.337  22.467  55.327  1.00  0.00     0.030 A 
ENDBRANCH  13  16
ENDBRANCH   1  12
BRANCH   2  24
HETATM   24  C   UNL     1       7.858  28.833  56.176  1.00  0.00    -0.025 A 
HETATM   25  C   UNL     1       7.813  29.136  57.552  1.00  0.00     0.046 A 
HETATM   26  C   UNL     1       8.912  29.708  58.196  1.00  0.00     0.068 A 
HETATM   27  C   UNL     1      10.069  29.977  57.464  1.00  0.00     0.037 A 
HETATM   28  C   UNL     1      10.134  29.681  56.103  1.00  0.00     0.003 A 
HETATM   29  C   UNL     1       9.037  29.111  55.462  1.00  0.00     0.010 A 
BRANCH  26  30
HETATM   30  O   UNL     1       8.984  30.046  59.519  1.00  0.00    -0.356 OA
HETATM   31  C   UNL     1       7.953  30.884  60.026  1.00  0.00     0.210 C 
ENDBRANCH  26  30
ENDBRANCH   2  24
TORSDOF 4
ENDMDL
MODEL 2
REMARK VINA RESULT:      -9.6      2.634      4.284
REMARK  4 active torsions:
REMARK  status: ('A' for Active; 'I' for Inactive)
REMARK    1  A    between atoms: C_6  and  N_7 
REMARK       I    between atoms: N_7  and  C_8 
REMARK    2  A    between atoms: C_8  and  C_9 
REMARK    3  A    between atoms: C_10  and  C_11 
REMARK    4  A    between atoms: C_13  and  O_14 
ROOT
HETATM    1  C   UNL     1       5.796  27.225  56.457  1.00  0.00     0.062 C 
HETATM    2  C   UNL     1       4.624  28.041  55.923  1.00  0.00     0.202 C 
HETATM    3  N   UNL     1       4.510  29.314  56.644  1.00  0.00    -0.084 N 
HETATM    4  C   UNL     1       5.467  29.800  57.496  1.00  0.00     0.725 A 
HETATM    5  N   UNL     1       6.572  29.068  57.735  1.00  0.00    -0.192 N 
HETATM    6  N   UNL     1       3.420  30.110  56.627  1.00  0.00    -0.149 NA
HETATM    7  C   UNL     1       3.833  31.108  57.417  1.00  0.00     0.275 A 
HETATM    8  N   UNL     1       5.076  30.952  57.977  1.00  0.00    -0.054 NA
HETATM    9  C   UNL     1       6.724  27.759  57.289  1.00  0.00     0.037 C 
HETATM   10  C   UNL     1       7.950  27.031  57.779  1.00  0.00     0.070 C 
HETATM   11  H   UNL     1       7.256  29.425  58.397  1.00  0.00     0.184 HD
ENDROOT
BRANCH   1  12
HETATM   12  C   UNL     1       5.807  25.800  56.043  1.00  0.00     0.256 C 
HETATM   13  N   UNL     1       6.857  25.513  55.194  1.00  0.00    -0.323 N 
HETATM   14  H   UNL     1       7.450  26.288  54.932  1.00  0.00     0.169 HD
HETATM   15  O   UNL     1       4.971  25.030  56.491  1.00  0.00    -0.267 OA
BRANCH  13  16
HETATM   16  C   UNL     1       7.219  24.250  54.665  1.00  0.00     0.041 A 
HETATM   17  C   UNL     1       7.470  24.138  53.280  1.00  0.00    -0.035 A 
HETATM   18  C   UNL     1       7.868  22.896  52.746  1.00  0.00     0.015 A 
HETATM   19  C   UNL     1       7.337  25.304  52.337  1.00  0.00     0.050 C 
HETATM   20  C   UNL     1       8.001  21.765  53.558  1.00  0.00    -0.061 A 
HETATM   21  C   UNL     1       8.467  20.458  52.989  1.00  0.00     0.048 C 
HETATM   22  C   UNL     1       7.750  21.887  54.923  1.00  0.00     0.009 A 
HETATM   23  C   UNL     1       7.358  23.114  55.468  1.00  0.00     0.030 A 
ENDBRANCH  13  16
ENDBRANCH   1  12
BRANCH   2  24
HETATM   24  C   UNL     1       4.692  28.307  54.422  1.00  0.00    -0.025 A 
HETATM   25  C   UNL     1       3.500  28.438  53.681  1.00  0.00     0.046 A 
HETATM   26  C   UNL     1       3.535  28.671  52.304  1.00  0.00     0.068 A 
HETATM   27  C   UNL     1       4.768  28.779  51.661  1.00  0.00     0.037 A 
HETATM   28  C   UNL     1       5.958  28.656  52.378  1.00  0.00     0.003 A 
HETATM   29  C   UNL     1       5.922  28.423  53.751  1.00  0.00     0.010 A 
BRANCH  26  30
HETATM   30  O   UNL     1       2.450  28.812  51.484  1.00  0.00    -0.356 OA
HETATM   31  C   UNL     1       2.711  29.066  50.109  1.00  0.00     0.210 C 
ENDBRANCH  26  30
ENDBRANCH   2  24
TORSDOF 4
ENDMDL
MODEL 3
REMARK VINA RESULT:      -9.5      2.638      4.315
REMARK  4 active torsions:
REMARK  status: ('A' for Active; 'I' for Inactive)
REMARK    1  A    between atoms: C_6  and  N_7 
REMARK       I    between atoms: N_7  and  C_8 
REMARK    2  A    between atoms: C_8  and  C_9 
REMARK    3  A    between atoms: C_10  and  C_11 
REMARK    4  A    between atoms: C_13  and  O_14 
ROOT
HETATM    1  C   UNL     1       6.041  27.427  55.732  1.00  0.00     0.062 C 
HETATM    2  C   UNL     1       4.882  28.098  55.005  1.00  0.00     0.202 C 
HETATM    3  N   UNL     1       4.744  29.495  55.433  1.00  0.00    -0.084 N 
HETATM    4  C   UNL     1       5.675  30.161  56.187  1.00  0.00     0.725 A 
HETATM    5  N   UNL     1       6.776  29.508  56.605  1.00  0.00    -0.192 N 
HETATM    6  N   UNL     1       3.652  30.259  55.218  1.00  0.00    -0.149 NA
HETATM    7  C   UNL     1       4.038  31.406  55.787  1.00  0.00     0.275 A 
HETATM    8  N   UNL     1       5.267  31.386  56.400  1.00  0.00    -0.054 NA
HETATM    9  C   UNL     1       6.944  28.136  56.454  1.00  0.00     0.037 C 
HETATM   10  C   UNL     1       8.159  27.541  57.121  1.00  0.00     0.070 C 
HETATM   11  H   UNL     1       7.440  30.005  57.193  1.00  0.00     0.184 HD
ENDROOT
BRANCH   1  12
HETATM   12  C   UNL     1       6.069  25.947  55.632  1.00  0.00     0.256 C 
HETATM   13  N   UNL     1       7.043  25.501  54.761  1.00  0.00    -0.323 N 
HETATM   14  H   UNL     1       7.578  26.212  54.281  1.00  0.00     0.169 HD
HETATM   15  O   UNL     1       5.310  25.277  56.318  1.00  0.00    -0.267 OA
BRANCH  13  16
HETATM   16  C   UNL     1       7.403  24.161  54.480  1.00  0.00     0.041 A 
HETATM   17  C   UNL     1       7.735  23.808  53.154  1.00  0.00    -0.035 A 
HETATM   18  C   UNL     1       8.130  22.487  52.867  1.00  0.00     0.015 A 
HETATM   19  C   UNL     1       7.691  24.796  52.019  1.00  0.00     0.050 C 
HETATM   20  C   UNL     1       8.183  21.510  53.866  1.00  0.00    -0.061 A 
HETATM   21  C   UNL     1       8.648  20.118  53.560  1.00  0.00     0.048 C 
HETATM   22  C   UNL     1       7.853  21.869  55.172  1.00  0.00     0.009 A 
HETATM   23  C   UNL     1       7.462  23.177  55.473  1.00  0.00     0.030 A 
ENDBRANCH  13  16
ENDBRANCH   1  12
BRANCH   2  24
HETATM   24  C   UNL     1       4.990  28.038  53.484  1.00  0.00    -0.025 A 
HETATM   25  C   UNL     1       5.501  29.144  52.776  1.00  0.00     0.046 A 
HETATM   26  C   UNL     1       5.601  29.119  51.383  1.00  0.00     0.068 A 
HETATM   27  C   UNL     1       5.191  27.979  50.689  1.00  0.00     0.037 A 
HETATM   28  C   UNL     1       4.686  26.873  51.373  1.00  0.00     0.003 A 
HETATM   29  C   UNL     1       4.588  26.901  52.763  1.00  0.00     0.010 A 
BRANCH  26  30
HETATM   30  O   UNL     1       6.075  30.127  50.590  1.00  0.00    -0.356 OA
HETATM   31  C   UNL     1       5.479  30.273  49.308  1.00  0.00     0.210 C 
ENDBRANCH  26  30
ENDBRANCH   2  24
TORSDOF 4
ENDMDL
MODEL 4
REMARK VINA RESULT:      -9.2      2.611      3.848
REMARK  4 active torsions:
REMARK  status: ('A' for Active; 'I' for Inactive)
REMARK    1  A    between atoms: C_6  and  N_7 
REMARK       I    between atoms: N_7  and  C_8 
REMARK    2  A    between atoms: C_8  and  C_9 
REMARK    3  A    between atoms: C_10  and  C_11 
REMARK    4  A    between atoms: C_13  and  O_14 
ROOT
HETATM    1  C   UNL     1       6.099  26.334  52.179  1.00  0.00     0.062 C 
HETATM    2  C   UNL     1       6.401  27.792  52.501  1.00  0.00     0.202 C 
HETATM    3  N   UNL     1       5.557  28.684  51.696  1.00  0.00    -0.084 N 
HETATM    4  C   UNL     1       4.486  28.261  50.954  1.00  0.00     0.725 A 
HETATM    5  N   UNL     1       4.190  26.947  50.910  1.00  0.00    -0.192 N 
HETATM    6  N   UNL     1       5.785  30.002  51.519  1.00  0.00    -0.149 NA
HETATM    7  C   UNL     1       4.752  30.327  50.733  1.00  0.00     0.275 A 
HETATM    8  N   UNL     1       3.938  29.287  50.356  1.00  0.00    -0.054 NA
HETATM    9  C   UNL     1       5.016  25.967  51.449  1.00  0.00     0.037 C 
HETATM   10  C   UNL     1       4.616  24.540  51.173  1.00  0.00     0.070 C 
HETATM   11  H   UNL     1       3.414  26.645  50.326  1.00  0.00     0.184 HD
ENDROOT
BRANCH   1  12
HETATM   12  C   UNL     1       7.105  25.362  52.675  1.00  0.00     0.256 C 
HETATM   13  N   UNL     1       6.618  24.593  53.714  1.00  0.00    -0.323 N 
HETATM   14  H   UNL     1       5.681  24.802  54.028  1.00  0.00     0.169 HD
HETATM   15  O   UNL     1       8.198  25.289  52.133  1.00  0.00    -0.267 OA
BRANCH  13  16
HETATM   16  C   UNL     1       7.269  23.523  54.375  1.00  0.00     0.041 A 
HETATM   17  C   UNL     1       7.595  23.664  55.742  1.00  0.00    -0.035 A 
HETATM   18  C   UNL     1       8.209  22.594  56.421  1.00  0.00     0.015 A 
HETATM   19  C   UNL     1       7.304  24.921  56.517  1.00  0.00     0.050 C 
HETATM   20  C   UNL     1       8.521  21.399  55.764  1.00  0.00    -0.061 A 
HETATM   21  C   UNL     1       9.134  20.249  56.506  1.00  0.00     0.048 C 
HETATM   22  C   UNL     1       8.196  21.271  54.415  1.00  0.00     0.009 A 
HETATM   23  C   UNL     1       7.583  22.323  53.728  1.00  0.00     0.030 A 
ENDBRANCH  13  16
ENDBRANCH   1  12
BRANCH   2  24
HETATM   24  C   UNL     1       6.251  28.142  53.979  1.00  0.00    -0.025 A 
HETATM   25  C   UNL     1       7.388  28.493  54.732  1.00  0.00     0.046 A 
HETATM   26  C   UNL     1       7.280  28.806  56.090  1.00  0.00     0.068 A 
HETATM   27  C   UNL     1       6.025  28.774  56.699  1.00  0.00     0.037 A 
HETATM   28  C   UNL     1       4.887  28.432  55.969  1.00  0.00     0.003 A 
HETATM   29  C   UNL     1       4.998  28.120  54.616  1.00  0.00     0.010 A 
BRANCH  26  30
HETATM   30  O   UNL     1       8.308  29.157  56.920  1.00  0.00    -0.356 OA
HETATM   31  C   UNL     1       7.998  29.309  58.300  1.00  0.00     0.210 C 
ENDBRANCH  26  30
ENDBRANCH   2  24
TORSDOF 4
ENDMDL
MODEL 5
REMARK VINA RESULT:      -9.1      3.840      7.793
REMARK  4 active torsions:
REMARK  status: ('A' for Active; 'I' for Inactive)
REMARK    1  A    between atoms: C_6  and  N_7 
REMARK       I    between atoms: N_7  and  C_8 
REMARK    2  A    between atoms: C_8  and  C_9 
REMARK    3  A    between atoms: C_10  and  C_11 
REMARK    4  A    between atoms: C_13  and  O_14 
ROOT
HETATM    1  C   UNL     1       4.836  31.199  56.844  1.00  0.00     0.062 C 
HETATM    2  C   UNL     1       4.881  29.737  56.417  1.00  0.00     0.202 C 
HETATM    3  N   UNL     1       4.500  29.599  55.006  1.00  0.00    -0.084 N 
HETATM    4  C   UNL     1       4.368  30.655  54.142  1.00  0.00     0.725 A 
HETATM    5  N   UNL     1       4.556  31.908  54.597  1.00  0.00    -0.192 N 
HETATM    6  N   UNL     1       4.148  28.437  54.417  1.00  0.00    -0.149 NA
HETATM    7  C   UNL     1       3.909  28.857  53.169  1.00  0.00     0.275 A 
HETATM    8  N   UNL     1       4.024  30.209  52.961  1.00  0.00    -0.054 NA
HETATM    9  C   UNL     1       4.717  32.208  55.945  1.00  0.00     0.037 C 
HETATM   10  C   UNL     1       4.755  33.673  56.298  1.00  0.00     0.070 C 
HETATM   11  H   UNL     1       4.419  32.683  53.952  1.00  0.00     0.184 HD
ENDROOT
BRANCH   1  12
HETATM   12  C   UNL     1       4.875  31.424  58.311  1.00  0.00     0.256 C 
HETATM   13  N   UNL     1       6.147  31.719  58.758  1.00  0.00    -0.323 N 
HETATM   14  H   UNL     1       6.882  31.708  58.065  1.00  0.00     0.169 HD
HETATM   15  O   UNL     1       3.841  31.380  58.960  1.00  0.00    -0.267 OA
BRANCH  13  16
HETATM   16  C   UNL     1       6.542  32.063  60.074  1.00  0.00     0.041 A 
HETATM   17  C   UNL     1       7.687  31.447  60.625  1.00  0.00    -0.035 A 
HETATM   18  C   UNL     1       8.111  31.808  61.919  1.00  0.00     0.015 A 
HETATM   19  C   UNL     1       8.489  30.416  59.878  1.00  0.00     0.050 C 
HETATM   20  C   UNL     1       7.410  32.750  62.679  1.00  0.00    -0.061 A 
HETATM   21  C   UNL     1       7.895  33.160  64.037  1.00  0.00     0.048 C 
HETATM   22  C   UNL     1       6.281  33.350  62.126  1.00  0.00     0.009 A 
HETATM   23  C   UNL     1       5.849  33.006  60.841  1.00  0.00     0.030 A 
ENDBRANCH  13  16
ENDBRANCH   1  12
BRANCH   2  24
HETATM   24  C   UNL     1       6.233  29.068  56.649  1.00  0.00    -0.025 A 
HETATM   25  C   UNL     1       7.404  29.664  56.138  1.00  0.00     0.046 A 
HETATM   26  C   UNL     1       8.652  29.066  56.327  1.00  0.00     0.068 A 
HETATM   27  C   UNL     1       8.735  27.867  57.037  1.00  0.00     0.037 A 
HETATM   28  C   UNL     1       7.588  27.266  57.553  1.00  0.00     0.003 A 
HETATM   29  C   UNL     1       6.344  27.862  57.363  1.00  0.00     0.010 A 
BRANCH  26  30
HETATM   30  O   UNL     1       9.851  29.546  55.878  1.00  0.00    -0.356 OA
HETATM   31  C   UNL     1      10.918  29.593  56.816  1.00  0.00     0.210 C 
ENDBRANCH  26  30
ENDBRANCH   2  24
TORSDOF 4
ENDMDL
MODEL 6
REMARK VINA RESULT:      -8.9      2.514      4.796
REMARK  4 active torsions:
REMARK  status: ('A' for Active; 'I' for Inactive)
REMARK    1  A    between atoms: C_6  and  N_7 
REMARK       I    between atoms: N_7  and  C_8 
REMARK    2  A    between atoms: C_8  and  C_9 
REMARK    3  A    between atoms: C_10  and  C_11 
REMARK    4  A    between atoms: C_13  and  O_14 
ROOT
HETATM    1  C   UNL     1       6.773  28.488  55.355  1.00  0.00     0.062 C 
HETATM    2  C   UNL     1       5.258  28.600  55.240  1.00  0.00     0.202 C 
HETATM    3  N   UNL     1       4.726  29.486  56.282  1.00  0.00    -0.084 N 
HETATM    4  C   UNL     1       5.504  30.287  57.077  1.00  0.00     0.725 A 
HETATM    5  N   UNL     1       6.843  30.250  56.943  1.00  0.00    -0.192 N 
HETATM    6  N   UNL     1       3.427  29.552  56.642  1.00  0.00    -0.149 NA
HETATM    7  C   UNL     1       3.484  30.488  57.597  1.00  0.00     0.275 A 
HETATM    8  N   UNL     1       4.739  30.956  57.900  1.00  0.00    -0.054 NA
HETATM    9  C   UNL     1       7.498  29.315  56.148  1.00  0.00     0.037 C 
HETATM   10  C   UNL     1       9.003  29.311  56.236  1.00  0.00     0.070 C 
HETATM   11  H   UNL     1       7.408  30.823  57.565  1.00  0.00     0.184 HD
ENDROOT
BRANCH   1  12
HETATM   12  C   UNL     1       7.379  27.375  54.581  1.00  0.00     0.256 C 
HETATM   13  N   UNL     1       7.112  26.143  55.143  1.00  0.00    -0.323 N 
HETATM   14  H   UNL     1       6.588  26.146  56.008  1.00  0.00     0.169 HD
HETATM   15  O   UNL     1       7.986  27.614  53.548  1.00  0.00    -0.267 OA
BRANCH  13  16
HETATM   16  C   UNL     1       7.463  24.868  54.637  1.00  0.00     0.041 A 
HETATM   17  C   UNL     1       8.214  23.994  55.453  1.00  0.00    -0.035 A 
HETATM   18  C   UNL     1       8.539  22.709  54.976  1.00  0.00     0.015 A 
HETATM   19  C   UNL     1       8.683  24.377  56.831  1.00  0.00     0.050 C 
HETATM   20  C   UNL     1       8.149  22.286  53.702  1.00  0.00    -0.061 A 
HETATM   21  C   UNL     1       8.460  20.901  53.220  1.00  0.00     0.048 C 
HETATM   22  C   UNL     1       7.409  23.157  52.904  1.00  0.00     0.009 A 
HETATM   23  C   UNL     1       7.075  24.434  53.365  1.00  0.00     0.030 A 
ENDBRANCH  13  16
ENDBRANCH   1  12
BRANCH   2  24
HETATM   24  C   UNL     1       4.777  29.072  53.872  1.00  0.00    -0.025 A 
HETATM   25  C   UNL     1       4.593  28.136  52.834  1.00  0.00     0.046 A 
HETATM   26  C   UNL     1       4.164  28.544  51.569  1.00  0.00     0.068 A 
HETATM   27  C   UNL     1       3.910  29.896  51.337  1.00  0.00     0.037 A 
HETATM   28  C   UNL     1       4.082  30.836  52.352  1.00  0.00     0.003 A 
HETATM   29  C   UNL     1       4.511  30.428  53.614  1.00  0.00     0.010 A 
BRANCH  26  30
HETATM   30  O   UNL     1       3.954  27.731  50.489  1.00  0.00    -0.356 OA
HETATM   31  C   UNL     1       4.960  26.767  50.205  1.00  0.00     0.210 C 
ENDBRANCH  26  30
ENDBRANCH   2  24
TORSDOF 4
ENDMDL
MODEL 7
REMARK VINA RESULT:      -8.9      3.693      6.523
REMARK  4 active torsions:
REMARK  status: ('A' for Active; 'I' for Inactive)
REMARK    1  A    between atoms: C_6  and  N_7 
REMARK       I    between atoms: N_7  and  C_8 
REMARK    2  A    between atoms: C_8  and  C_9 
REMARK    3  A    between atoms: C_10  and  C_11 
REMARK    4  A    between atoms: C_13  and  O_14 
ROOT
HETATM    1  C   UNL     1       5.624  28.073  54.201  1.00  0.00     0.062 C 
HETATM    2  C   UNL     1       7.060  27.808  53.766  1.00  0.00     0.202 C 
HETATM    3  N   UNL     1       8.003  28.498  54.654  1.00  0.00    -0.084 N 
HETATM    4  C   UNL     1       7.649  29.084  55.842  1.00  0.00     0.725 A 
HETATM    5  N   UNL     1       6.358  29.075  56.223  1.00  0.00    -0.192 N 
HETATM    6  N   UNL     1       9.304  28.717  54.369  1.00  0.00    -0.149 NA
HETATM    7  C   UNL     1       9.694  29.358  55.478  1.00  0.00     0.275 A 
HETATM    8  N   UNL     1       8.709  29.610  56.399  1.00  0.00    -0.054 NA
HETATM    9  C   UNL     1       5.327  28.645  55.395  1.00  0.00     0.037 C 
HETATM   10  C   UNL     1       3.928  28.851  55.918  1.00  0.00     0.070 C 
HETATM   11  H   UNL     1       6.105  29.545  57.089  1.00  0.00     0.184 HD
ENDROOT
BRANCH   1  12
HETATM   12  C   UNL     1       4.590  27.710  53.200  1.00  0.00     0.256 C 
HETATM   13  N   UNL     1       4.416  28.696  52.249  1.00  0.00    -0.323 N 
HETATM   14  H   UNL     1       4.966  29.536  52.366  1.00  0.00     0.169 HD
HETATM   15  O   UNL     1       4.041  26.619  53.261  1.00  0.00    -0.267 OA
BRANCH  13  16
HETATM   16  C   UNL     1       3.576  28.659  51.110  1.00  0.00     0.041 A 
HETATM   17  C   UNL     1       3.997  27.931  49.976  1.00  0.00    -0.035 A 
HETATM   18  C   UNL     1       3.154  27.855  48.850  1.00  0.00     0.015 A 
HETATM   19  C   UNL     1       5.319  27.215  49.920  1.00  0.00     0.050 C 
HETATM   20  C   UNL     1       1.915  28.504  48.824  1.00  0.00    -0.061 A 
HETATM   21  C   UNL     1       1.005  28.381  47.638  1.00  0.00     0.048 C 
HETATM   22  C   UNL     1       1.511  29.221  49.948  1.00  0.00     0.009 A 
HETATM   23  C   UNL     1       2.334  29.302  51.075  1.00  0.00     0.030 A 
ENDBRANCH  13  16
ENDBRANCH   1  12
BRANCH   2  24
HETATM   24  C   UNL     1       7.418  26.327  53.691  1.00  0.00    -0.025 A 
HETATM   25  C   UNL     1       7.517  25.571  54.875  1.00  0.00     0.046 A 
HETATM   26  C   UNL     1       7.854  24.216  54.834  1.00  0.00     0.068 A 
HETATM   27  C   UNL     1       8.091  23.608  53.600  1.00  0.00     0.037 A 
HETATM   28  C   UNL     1       7.994  24.339  52.417  1.00  0.00     0.003 A 
HETATM   29  C   UNL     1       7.658  25.691  52.460  1.00  0.00     0.010 A 
BRANCH  26  30
HETATM   30  O   UNL     1       7.982  23.385  55.913  1.00  0.00    -0.356 OA
HETATM   31  C   UNL     1       7.989  21.987  55.651  1.00  0.00     0.210 C 
ENDBRANCH  26  30
ENDBRANCH   2  24
TORSDOF 4
ENDMDL
MODEL 8
REMARK VINA RESULT:      -8.8      3.069      5.832
REMARK  4 active torsions:
REMARK  status: ('A' for Active; 'I' for Inactive)
REMARK    1  A    between atoms: C_6  and  N_7 
REMARK       I    between atoms: N_7  and  C_8 
REMARK    2  A    between atoms: C_8  and  C_9 
REMARK    3  A    between atoms: C_10  and  C_11 
REMARK    4  A    between atoms: C_13  and  O_14 
ROOT
HETATM    1  C   UNL     1       5.671  29.159  55.232  1.00  0.00     0.062 C 
HETATM    2  C   UNL     1       7.015  28.466  55.418  1.00  0.00     0.202 C 
HETATM    3  N   UNL     1       7.783  29.110  56.489  1.00  0.00    -0.084 N 
HETATM    4  C   UNL     1       7.263  30.036  57.356  1.00  0.00     0.725 A 
HETATM    5  N   UNL     1       5.981  30.424  57.215  1.00  0.00    -0.192 N 
HETATM    6  N   UNL     1       9.107  28.940  56.693  1.00  0.00    -0.149 NA
HETATM    7  C   UNL     1       9.294  29.722  57.762  1.00  0.00     0.275 A 
HETATM    8  N   UNL     1       8.192  30.418  58.194  1.00  0.00    -0.054 NA
HETATM    9  C   UNL     1       5.195  30.060  56.128  1.00  0.00     0.037 C 
HETATM   10  C   UNL     1       3.838  30.711  56.044  1.00  0.00     0.070 C 
HETATM   11  H   UNL     1       5.620  31.138  57.843  1.00  0.00     0.184 HD
ENDROOT
BRANCH   1  12
HETATM   12  C   UNL     1       4.959  28.816  53.975  1.00  0.00     0.256 C 
HETATM   13  N   UNL     1       5.821  28.696  52.904  1.00  0.00    -0.323 N 
HETATM   14  H   UNL     1       6.797  28.889  53.087  1.00  0.00     0.169 HD
HETATM   15  O   UNL     1       3.751  28.631  53.992  1.00  0.00    -0.267 OA
BRANCH  13  16
HETATM   16  C   UNL     1       5.505  28.307  51.579  1.00  0.00     0.041 A 
HETATM   17  C   UNL     1       5.243  26.946  51.313  1.00  0.00    -0.035 A 
HETATM   18  C   UNL     1       4.891  26.551  50.007  1.00  0.00     0.015 A 
HETATM   19  C   UNL     1       5.318  25.884  52.377  1.00  0.00     0.050 C 
HETATM   20  C   UNL     1       4.813  27.479  48.963  1.00  0.00    -0.061 A 
HETATM   21  C   UNL     1       4.393  27.056  47.586  1.00  0.00     0.048 C 
HETATM   22  C   UNL     1       5.074  28.819  49.237  1.00  0.00     0.009 A 
HETATM   23  C   UNL     1       5.421  29.227  50.529  1.00  0.00     0.030 A 
ENDBRANCH  13  16
ENDBRANCH   1  12
BRANCH   2  24
HETATM   24  C   UNL     1       6.904  26.970  55.697  1.00  0.00    -0.025 A 
HETATM   25  C   UNL     1       7.692  26.062  54.962  1.00  0.00     0.046 A 
HETATM   26  C   UNL     1       7.601  24.687  55.190  1.00  0.00     0.068 A 
HETATM   27  C   UNL     1       6.719  24.213  56.163  1.00  0.00     0.037 A 
HETATM   28  C   UNL     1       5.935  25.096  56.903  1.00  0.00     0.003 A 
HETATM   29  C   UNL     1       6.026  26.467  56.674  1.00  0.00     0.010 A 
BRANCH  26  30
HETATM   30  O   UNL     1       8.309  23.714  54.540  1.00  0.00    -0.356 OA
HETATM   31  C   UNL     1       7.643  23.027  53.488  1.00  0.00     0.210 C 
ENDBRANCH  26  30
ENDBRANCH   2  24
TORSDOF 4
ENDMDL
MODEL 9
REMARK VINA RESULT:      -8.5      2.928      4.853
REMARK  4 active torsions:
REMARK  status: ('A' for Active; 'I' for Inactive)
REMARK    1  A    between atoms: C_6  and  N_7 
REMARK       I    between atoms: N_7  and  C_8 
REMARK    2  A    between atoms: C_8  and  C_9 
REMARK    3  A    between atoms: C_10  and  C_11 
REMARK    4  A    between atoms: C_13  and  O_14 
ROOT
HETATM    1  C   UNL     1       5.352  28.848  55.457  1.00  0.00     0.062 C 
HETATM    2  C   UNL     1       4.094  29.378  54.781  1.00  0.00     0.202 C 
HETATM    3  N   UNL     1       3.860  30.778  55.152  1.00  0.00    -0.084 N 
HETATM    4  C   UNL     1       4.775  31.560  55.808  1.00  0.00     0.725 A 
HETATM    5  N   UNL     1       5.954  31.026  56.180  1.00  0.00    -0.192 N 
HETATM    6  N   UNL     1       2.693  31.434  54.976  1.00  0.00    -0.149 NA
HETATM    7  C   UNL     1       3.012  32.638  55.464  1.00  0.00     0.275 A 
HETATM    8  N   UNL     1       4.274  32.755  55.991  1.00  0.00    -0.054 NA
HETATM    9  C   UNL     1       6.233  29.668  56.083  1.00  0.00     0.037 C 
HETATM   10  C   UNL     1       7.536  29.215  56.691  1.00  0.00     0.070 C 
HETATM   11  H   UNL     1       6.607  31.608  56.698  1.00  0.00     0.184 HD
ENDROOT
BRANCH   1  12
HETATM   12  C   UNL     1       5.505  27.371  55.425  1.00  0.00     0.256 C 
HETATM   13  N   UNL     1       6.382  26.960  54.442  1.00  0.00    -0.323 N 
HETATM   14  H   UNL     1       6.772  27.683  53.854  1.00  0.00     0.169 HD
HETATM   15  O   UNL     1       4.919  26.682  56.247  1.00  0.00    -0.267 OA
BRANCH  13  16
HETATM   16  C   UNL     1       6.822  25.640  54.174  1.00  0.00     0.041 A 
HETATM   17  C   UNL     1       6.368  24.995  53.004  1.00  0.00    -0.035 A 
HETATM   18  C   UNL     1       6.828  23.696  52.707  1.00  0.00     0.015 A 
HETATM   19  C   UNL     1       5.409  25.643  52.043  1.00  0.00     0.050 C 
HETATM   20  C   UNL     1       7.711  23.025  53.559  1.00  0.00    -0.061 A 
HETATM   21  C   UNL     1       8.230  21.661  53.212  1.00  0.00     0.048 C 
HETATM   22  C   UNL     1       8.152  23.671  54.712  1.00  0.00     0.009 A 
HETATM   23  C   UNL     1       7.708  24.961  55.018  1.00  0.00     0.030 A 
ENDBRANCH  13  16
ENDBRANCH   1  12
BRANCH   2  24
HETATM   24  C   UNL     1       4.109  29.247  53.261  1.00  0.00    -0.025 A 
HETATM   25  C   UNL     1       5.194  29.766  52.526  1.00  0.00     0.046 A 
HETATM   26  C   UNL     1       5.227  29.670  51.133  1.00  0.00     0.068 A 
HETATM   27  C   UNL     1       4.172  29.046  50.466  1.00  0.00     0.037 A 
HETATM   28  C   UNL     1       3.092  28.523  51.176  1.00  0.00     0.003 A 
HETATM   29  C   UNL     1       3.060  28.621  52.566  1.00  0.00     0.010 A 
BRANCH  26  30
HETATM   30  O   UNL     1       6.221  30.136  50.316  1.00  0.00    -0.356 OA
HETATM   31  C   UNL     1       5.904  31.249  49.489  1.00  0.00     0.210 C 
ENDBRANCH  26  30
ENDBRANCH   2  24
TORSDOF 4
ENDMDL
MODEL 10
REMARK VINA RESULT:      -8.5      3.107      6.359
REMARK  4 active torsions:
REMARK  status: ('A' for Active; 'I' for Inactive)
REMARK    1  A    between atoms: C_6  and  N_7 
REMARK       I    between atoms: N_7  and  C_8 
REMARK    2  A    between atoms: C_8  and  C_9 
REMARK    3  A    between atoms: C_10  and  C_11 
REMARK    4  A    between atoms: C_13  and  O_14 
ROOT
HETATM    1  C   UNL     1       6.393  25.130  53.778  1.00  0.00     0.062 C 
HETATM    2  C   UNL     1       6.302  25.185  55.298  1.00  0.00     0.202 C 
HETATM    3  N   UNL     1       7.346  24.353  55.907  1.00  0.00    -0.084 N 
HETATM    4  C   UNL     1       8.397  23.811  55.214  1.00  0.00     0.725 A 
HETATM    5  N   UNL     1       8.481  24.006  53.884  1.00  0.00    -0.192 N 
HETATM    6  N   UNL     1       7.349  23.948  57.195  1.00  0.00    -0.149 NA
HETATM    7  C   UNL     1       8.486  23.243  57.228  1.00  0.00     0.275 A 
HETATM    8  N   UNL     1       9.153  23.128  56.034  1.00  0.00    -0.054 NA
HETATM    9  C   UNL     1       7.463  24.594  53.139  1.00  0.00     0.037 C 
HETATM   10  C   UNL     1       7.651  24.590  51.644  1.00  0.00     0.070 C 
HETATM   11  H   UNL     1       9.246  23.568  53.377  1.00  0.00     0.184 HD
ENDROOT
BRANCH   1  12
HETATM   12  C   UNL     1       5.204  25.654  53.060  1.00  0.00     0.256 C 
HETATM   13  N   UNL     1       5.432  26.902  52.516  1.00  0.00    -0.323 N 
HETATM   14  H   UNL     1       6.337  27.314  52.698  1.00  0.00     0.169 HD
HETATM   15  O   UNL     1       4.197  24.968  52.971  1.00  0.00    -0.267 OA
BRANCH  13  16
HETATM   16  C   UNL     1       4.555  27.666  51.707  1.00  0.00     0.041 A 
HETATM   17  C   UNL     1       3.764  28.664  52.315  1.00  0.00    -0.035 A 
HETATM   18  C   UNL     1       2.915  29.456  51.516  1.00  0.00     0.015 A 
HETATM   19  C   UNL     1       3.793  28.930  53.796  1.00  0.00     0.050 C 
HETATM   20  C   UNL     1       2.825  29.260  50.135  1.00  0.00    -0.061 A 
HETATM   21  C   UNL     1       1.952  30.136  49.287  1.00  0.00     0.048 C 
HETATM   22  C   UNL     1       3.610  28.271  49.546  1.00  0.00     0.009 A 
HETATM   23  C   UNL     1       4.460  27.480  50.324  1.00  0.00     0.030 A 
ENDBRANCH  13  16
ENDBRANCH   1  12
BRANCH   2  24
HETATM   24  C   UNL     1       6.375  26.598  55.869  1.00  0.00    -0.025 A 
HETATM   25  C   UNL     1       7.527  27.381  55.651  1.00  0.00     0.046 A 
HETATM   26  C   UNL     1       7.624  28.673  56.173  1.00  0.00     0.068 A 
HETATM   27  C   UNL     1       6.561  29.191  56.914  1.00  0.00     0.037 A 
HETATM   28  C   UNL     1       5.412  28.433  57.137  1.00  0.00     0.003 A 
HETATM   29  C   UNL     1       5.317  27.144  56.616  1.00  0.00     0.010 A 
BRANCH  26  30
HETATM   30  O   UNL     1       8.687  29.521  56.031  1.00  0.00    -0.356 OA
HETATM   31  C   UNL     1       9.853  29.225  56.789  1.00  0.00     0.210 C 
ENDBRANCH  26  30
ENDBRANCH   2  24
TORSDOF 4
ENDMDL
