MODEL 1
REMARK VINA RESULT:     -10.3      0.000      0.000
REMARK  6 active torsions:
REMARK  status: ('A' for Active; 'I' for Inactive)
REMARK    1  A    between atoms: C_3  and  N_4 
REMARK       I    between atoms: N_4  and  C_5 
REMARK    2  A    between atoms: C_5  and  C_6 
REMARK    3  A    between atoms: C_14  and  N_15 
REMARK       I    between atoms: N_15  and  C_16 
REMARK       I    between atoms: C_16  and  N_17 
REMARK    4  A    between atoms: N_17  and  C_18 
REMARK    5  A    between atoms: C_18  and  C_19 
REMARK    6  A    between atoms: C_19  and  N_20 
ROOT
HETATM    1  N   UNL     1       7.596  28.800  54.705  1.00  0.00    -0.309 N 
HETATM    2  C   UNL     1       7.145  27.626  54.188  1.00  0.00     0.321 C 
HETATM    3  N   UNL     1       6.896  26.607  55.063  1.00  0.00    -0.337 N 
HETATM    4  O   UNL     1       7.002  27.490  52.977  1.00  0.00    -0.247 OA
HETATM    5  H   UNL     1       7.987  29.401  53.986  1.00  0.00     0.170 HD
HETATM    6  H   UNL     1       7.518  26.672  55.864  1.00  0.00     0.164 HD
ENDROOT
BRANCH   1   7
HETATM    7  C   UNL     1       7.632  29.301  56.019  1.00  0.00     0.036 A 
HETATM    8  C   UNL     1       8.683  29.091  56.905  1.00  0.00     0.032 A 
HETATM    9  C   UNL     1       8.647  29.637  58.194  1.00  0.00     0.032 A 
HETATM   10  C   UNL     1       7.559  30.399  58.629  1.00  0.00     0.041 A 
HETATM   11  C   UNL     1       6.469  30.580  57.756  1.00  0.00    -0.033 A 
HETATM   12  C   UNL     1       5.245  31.367  58.148  1.00  0.00     0.050 C 
HETATM   13  C   UNL     1       6.516  30.017  56.464  1.00  0.00     0.038 A 
BRANCH  10  14
HETATM   14  N   UNL     1       7.524  31.008  59.901  1.00  0.00    -0.321 N 
HETATM   15  C   UNL     1       8.214  32.124  60.347  1.00  0.00     0.279 C 
HETATM   16  O   UNL     1       9.063  32.736  59.708  1.00  0.00    -0.265 OA
HETATM   17  H   UNL     1       6.910  30.605  60.601  1.00  0.00     0.169 HD
BRANCH  15  18
HETATM   18  C   UNL     1       7.829  32.513  61.692  1.00  0.00     0.142 A 
HETATM   19  O   UNL     1       6.763  33.362  61.867  1.00  0.00    -0.317 OA
HETATM   20  C   UNL     1       6.644  33.583  63.201  1.00  0.00     0.143 A 
HETATM   21  C   UNL     1       7.602  32.884  63.895  1.00  0.00     0.027 A 
HETATM   22  C   UNL     1       8.367  32.193  62.924  1.00  0.00     0.045 A 
ENDBRANCH  15  18
ENDBRANCH  10  14
ENDBRANCH   1   7
BRANCH   3  23
HETATM   23  C   UNL     1       6.678  25.246  54.572  1.00  0.00     0.108 C 
HETATM   24  C   UNL     1       5.332  25.167  53.851  1.00  0.00     0.034 C 
BRANCH  23  25
HETATM   25  C   UNL     1       7.848  24.605  53.766  1.00  0.00     0.259 C 
BRANCH  25  26
HETATM   26  N   UNL     1       8.199  23.148  54.022  1.00  0.00    -0.069 N 
HETATM   27  H   UNL     1       9.222  23.149  53.912  1.00  0.00     0.280 HD
HETATM   28  C   UNL     1       7.944  22.637  55.413  1.00  0.00     0.239 C 
HETATM   29  C   UNL     1       8.714  21.328  55.610  1.00  0.00     0.007 C 
HETATM   30  C   UNL     1       8.310  20.297  54.547  1.00  0.00     0.007 C 
HETATM   31  C   UNL     1       8.477  20.776  57.015  1.00  0.00     0.011 C 
HETATM   32  C   UNL     1       8.459  20.861  53.135  1.00  0.00     0.028 C 
HETATM   33  C   UNL     1       7.715  22.182  52.966  1.00  0.00     0.235 C 
ENDBRANCH  25  26
ENDBRANCH  23  25
ENDBRANCH   3  23
TORSDOF 6
ENDMDL
MODEL 2
REMARK VINA RESULT:      -9.8      2.138      3.567
REMARK  6 active torsions:
REMARK  status: ('A' for Active; 'I' for Inactive)
REMARK    1  A    between atoms: C_3  and  N_4 
REMARK       I    between atoms: N_4  and  C_5 
REMARK    2  A    between atoms: C_5  and  C_6 
REMARK    3  A    between atoms: C_14  and  N_15 
REMARK       I    between atoms: N_15  and  C_16 
REMARK       I    between atoms: C_16  and  N_17 
REMARK    4  A    between atoms: N_17  and  C_18 
REMARK    5  A    between atoms: C_18  and  C_19 
REMARK    6  A    between atoms: C_19  and  N_20 
ROOT
HETATM    1  N   UNL     1       7.893  29.947  57.332  1.00  0.00    -0.309 N 
HETATM    2  C   UNL     1       7.503  28.742  56.838  1.00  0.00     0.321 C 
HETATM    3  N   UNL     1       6.877  27.882  57.697  1.00  0.00    -0.337 N 
HETATM    4  O   UNL     1       7.737  28.438  55.673  1.00  0.00    -0.247 OA
HETATM    5  H   UNL     1       8.556  30.408  56.717  1.00  0.00     0.170 HD
HETATM    6  H   UNL     1       7.216  28.024  58.644  1.00  0.00     0.164 HD
ENDROOT
BRANCH   1   7
HETATM    7  C   UNL     1       7.566  30.633  58.516  1.00  0.00     0.036 A 
HETATM    8  C   UNL     1       6.506  31.526  58.632  1.00  0.00     0.032 A 
HETATM    9  C   UNL     1       6.240  32.159  59.852  1.00  0.00     0.032 A 
HETATM   10  C   UNL     1       7.027  31.919  60.982  1.00  0.00     0.041 A 
HETATM   11  C   UNL     1       8.130  31.051  60.864  1.00  0.00    -0.033 A 
HETATM   12  C   UNL     1       9.046  30.751  62.022  1.00  0.00     0.050 C 
HETATM   13  C   UNL     1       8.391  30.428  59.626  1.00  0.00     0.038 A 
BRANCH  10  14
HETATM   14  N   UNL     1       6.744  32.498  62.237  1.00  0.00    -0.321 N 
HETATM   15  C   UNL     1       5.691  32.232  63.097  1.00  0.00     0.279 C 
HETATM   16  O   UNL     1       4.752  31.479  62.858  1.00  0.00    -0.265 OA
HETATM   17  H   UNL     1       7.388  33.198  62.589  1.00  0.00     0.169 HD
BRANCH  15  18
HETATM   18  C   UNL     1       5.803  32.955  64.351  1.00  0.00     0.142 A 
HETATM   19  O   UNL     1       4.675  33.168  65.106  1.00  0.00    -0.317 OA
HETATM   20  C   UNL     1       5.054  33.887  66.195  1.00  0.00     0.143 A 
HETATM   21  C   UNL     1       6.406  34.131  66.166  1.00  0.00     0.027 A 
HETATM   22  C   UNL     1       6.890  33.531  64.979  1.00  0.00     0.045 A 
ENDBRANCH  15  18
ENDBRANCH  10  14
ENDBRANCH   1   7
BRANCH   3  23
HETATM   23  C   UNL     1       6.676  26.481  57.326  1.00  0.00     0.108 C 
HETATM   24  C   UNL     1       5.399  26.345  56.498  1.00  0.00     0.034 C 
BRANCH  23  25
HETATM   25  C   UNL     1       7.900  25.750  56.697  1.00  0.00     0.259 C 
BRANCH  25  26
HETATM   26  N   UNL     1       7.658  24.763  55.565  1.00  0.00    -0.069 N 
HETATM   27  H   UNL     1       6.644  24.601  55.632  1.00  0.00     0.280 HD
HETATM   28  C   UNL     1       7.892  25.278  54.172  1.00  0.00     0.239 C 
HETATM   29  C   UNL     1       7.224  24.330  53.173  1.00  0.00     0.007 C 
HETATM   30  C   UNL     1       7.757  22.901  53.343  1.00  0.00     0.007 C 
HETATM   31  C   UNL     1       7.443  24.822  51.743  1.00  0.00     0.011 C 
HETATM   32  C   UNL     1       7.625  22.422  54.788  1.00  0.00     0.028 C 
HETATM   33  C   UNL     1       8.265  23.396  55.773  1.00  0.00     0.235 C 
ENDBRANCH  25  26
ENDBRANCH  23  25
ENDBRANCH   3  23
TORSDOF 6
ENDMDL
MODEL 3
REMARK VINA RESULT:      -9.6      2.340      3.949
REMARK  6 active torsions:
REMARK  status: ('A' for Active; 'I' for Inactive)
REMARK    1  A    between atoms: C_3  and  N_4 
REMARK       I    between atoms: N_4  and  C_5 
REMARK    2  A    between atoms: C_5  and  C_6 
REMARK    3  A    between atoms: C_14  and  N_15 
REMARK       I    between atoms: N_15  and  C_16 
REMARK       I    between atoms: C_16  and  N_17 
REMARK    4  A    between atoms: N_17  and  C_18 
REMARK    5  A    between atoms: C_18  and  C_19 
REMARK    6  A    between atoms: C_19  and  N_20 
ROOT
HETATM    1  N   UNL     1       9.329  30.168  58.190  1.00  0.00    -0.309 N 
HETATM    2  C   UNL     1       9.139  29.076  57.403  1.00  0.00     0.321 C 
HETATM    3  N   UNL     1       8.006  28.340  57.610  1.00  0.00    -0.337 N 
HETATM    4  O   UNL     1       9.974  28.758  56.562  1.00  0.00    -0.247 OA
HETATM    5  H   UNL     1      10.288  30.501  58.145  1.00  0.00     0.170 HD
HETATM    6  H   UNL     1       7.729  28.391  58.587  1.00  0.00     0.164 HD
ENDROOT
BRANCH   1   7
HETATM    7  C   UNL     1       8.466  30.880  59.043  1.00  0.00     0.036 A 
HETATM    8  C   UNL     1       7.215  31.357  58.665  1.00  0.00     0.032 A 
HETATM    9  C   UNL     1       6.411  32.047  59.581  1.00  0.00     0.032 A 
HETATM   10  C   UNL     1       6.838  32.280  60.891  1.00  0.00     0.041 A 
HETATM   11  C   UNL     1       8.121  31.839  61.272  1.00  0.00    -0.033 A 
HETATM   12  C   UNL     1       8.672  32.066  62.655  1.00  0.00     0.050 C 
HETATM   13  C   UNL     1       8.923  31.155  60.336  1.00  0.00     0.038 A 
BRANCH  10  14
HETATM   14  N   UNL     1       6.023  32.919  61.848  1.00  0.00    -0.321 N 
HETATM   15  C   UNL     1       5.244  32.350  62.844  1.00  0.00     0.279 C 
HETATM   16  O   UNL     1       5.067  31.147  63.006  1.00  0.00    -0.265 OA
HETATM   17  H   UNL     1       5.992  33.933  61.840  1.00  0.00     0.169 HD
BRANCH  15  18
HETATM   18  C   UNL     1       4.632  33.345  63.706  1.00  0.00     0.142 A 
HETATM   19  O   UNL     1       4.602  33.131  65.063  1.00  0.00    -0.317 OA
HETATM   20  C   UNL     1       3.954  34.187  65.619  1.00  0.00     0.143 A 
HETATM   21  C   UNL     1       3.575  35.086  64.651  1.00  0.00     0.027 A 
HETATM   22  C   UNL     1       4.012  34.545  63.417  1.00  0.00     0.045 A 
ENDBRANCH  15  18
ENDBRANCH  10  14
ENDBRANCH   1   7
BRANCH   3  23
HETATM   23  C   UNL     1       7.862  27.016  57.006  1.00  0.00     0.108 C 
HETATM   24  C   UNL     1       7.306  26.035  58.038  1.00  0.00     0.034 C 
BRANCH  23  25
HETATM   25  C   UNL     1       7.120  26.957  55.636  1.00  0.00     0.259 C 
BRANCH  25  26
HETATM   26  N   UNL     1       7.534  25.897  54.627  1.00  0.00    -0.069 N 
HETATM   27  H   UNL     1       8.560  25.960  54.655  1.00  0.00     0.280 HD
HETATM   28  C   UNL     1       7.206  24.475  54.985  1.00  0.00     0.239 C 
HETATM   29  C   UNL     1       8.032  23.537  54.099  1.00  0.00     0.007 C 
HETATM   30  C   UNL     1       7.767  23.822  52.614  1.00  0.00     0.007 C 
HETATM   31  C   UNL     1       7.724  22.079  54.433  1.00  0.00     0.011 C 
HETATM   32  C   UNL     1       7.987  25.295  52.278  1.00  0.00     0.028 C 
HETATM   33  C   UNL     1       7.184  26.216  53.192  1.00  0.00     0.235 C 
ENDBRANCH  25  26
ENDBRANCH  23  25
ENDBRANCH   3  23
TORSDOF 6
ENDMDL
MODEL 4
REMARK VINA RESULT:      -9.5      2.567      4.085
REMARK  6 active torsions:
REMARK  status: ('A' for Active; 'I' for Inactive)
REMARK    1  A    between atoms: C_3  and  N_4 
REMARK       I    between atoms: N_4  and  C_5 
REMARK    2  A    between atoms: C_5  and  C_6 
REMARK    3  A    between atoms: C_14  and  N_15 
REMARK       I    between atoms: N_15  and  C_16 
REMARK       I    between atoms: C_16  and  N_17 
REMARK    4  A    between atoms: N_17  and  C_18 
REMARK    5  A    between atoms: C_18  and  C_19 
REMARK    6  A    between atoms: C_19  and  N_20 
ROOT
HETATM    1  N   UNL     1       9.070  30.293  58.000  1.00  0.00    -0.309 N 
HETATM    2  C   UNL     1       8.693  29.264  57.197  1.00  0.00     0.321 C 
HETATM    3  N   UNL     1       7.776  28.380  57.694  1.00  0.00    -0.337 N 
HETATM    4  O   UNL     1       9.187  29.127  56.082  1.00  0.00    -0.247 OA
HETATM    5  H   UNL     1       9.915  30.743  57.663  1.00  0.00     0.170 HD
HETATM    6  H   UNL     1       7.871  28.307  58.703  1.00  0.00     0.164 HD
ENDROOT
BRANCH   1   7
HETATM    7  C   UNL     1       8.523  30.815  59.187  1.00  0.00     0.036 A 
HETATM    8  C   UNL     1       9.027  30.558  60.457  1.00  0.00     0.032 A 
HETATM    9  C   UNL     1       8.431  31.127  61.588  1.00  0.00     0.032 A 
HETATM   10  C   UNL     1       7.315  31.962  61.479  1.00  0.00     0.041 A 
HETATM   11  C   UNL     1       6.768  32.193  60.201  1.00  0.00    -0.033 A 
HETATM   12  C   UNL     1       5.554  33.060  59.990  1.00  0.00     0.050 C 
HETATM   13  C   UNL     1       7.375  31.605  59.072  1.00  0.00     0.038 A 
BRANCH  10  14
HETATM   14  N   UNL     1       6.732  32.595  62.596  1.00  0.00    -0.321 N 
HETATM   15  C   UNL     1       5.661  32.177  63.370  1.00  0.00     0.279 C 
HETATM   16  O   UNL     1       4.967  31.191  63.147  1.00  0.00    -0.265 OA
HETATM   17  H   UNL     1       7.140  33.470  62.908  1.00  0.00     0.169 HD
BRANCH  15  18
HETATM   18  C   UNL     1       5.426  33.048  64.508  1.00  0.00     0.142 A 
HETATM   19  O   UNL     1       4.135  33.361  64.858  1.00  0.00    -0.317 OA
HETATM   20  C   UNL     1       4.203  34.205  65.920  1.00  0.00     0.143 A 
HETATM   21  C   UNL     1       5.511  34.433  66.273  1.00  0.00     0.027 A 
HETATM   22  C   UNL     1       6.300  33.687  65.364  1.00  0.00     0.045 A 
ENDBRANCH  15  18
ENDBRANCH  10  14
ENDBRANCH   1   7
BRANCH   3  23
HETATM   23  C   UNL     1       7.528  27.109  57.014  1.00  0.00     0.108 C 
HETATM   24  C   UNL     1       7.538  25.968  58.031  1.00  0.00     0.034 C 
BRANCH  23  25
HETATM   25  C   UNL     1       6.303  27.066  56.051  1.00  0.00     0.259 C 
BRANCH  25  26
HETATM   26  N   UNL     1       6.514  26.592  54.622  1.00  0.00    -0.069 N 
HETATM   27  H   UNL     1       7.305  27.174  54.315  1.00  0.00     0.280 HD
HETATM   28  C   UNL     1       6.970  25.170  54.453  1.00  0.00     0.239 C 
HETATM   29  C   UNL     1       7.519  24.989  53.035  1.00  0.00     0.007 C 
HETATM   30  C   UNL     1       6.460  25.369  51.992  1.00  0.00     0.007 C 
HETATM   31  C   UNL     1       7.992  23.551  52.826  1.00  0.00     0.011 C 
HETATM   32  C   UNL     1       5.911  26.774  52.236  1.00  0.00     0.028 C 
HETATM   33  C   UNL     1       5.401  26.947  53.664  1.00  0.00     0.235 C 
ENDBRANCH  25  26
ENDBRANCH  23  25
ENDBRANCH   3  23
TORSDOF 6
ENDMDL
MODEL 5
REMARK VINA RESULT:      -9.5      3.028      4.566
REMARK  6 active torsions:
REMARK  status: ('A' for Active; 'I' for Inactive)
REMARK    1  A    between atoms: C_3  and  N_4 
REMARK       I    between atoms: N_4  and  C_5 
REMARK    2  A    between atoms: C_5  and  C_6 
REMARK    3  A    between atoms: C_14  and  N_15 
REMARK       I    between atoms: N_15  and  C_16 
REMARK       I    between atoms: C_16  and  N_17 
REMARK    4  A    between atoms: N_17  and  C_18 
REMARK    5  A    between atoms: C_18  and  C_19 
REMARK    6  A    between atoms: C_19  and  N_20 
ROOT
HETATM    1  N   UNL     1       8.509  30.131  57.381  1.00  0.00    -0.309 N 
HETATM    2  C   UNL     1       8.034  29.060  56.692  1.00  0.00     0.321 C 
HETATM    3  N   UNL     1       7.099  28.277  57.310  1.00  0.00    -0.337 N 
HETATM    4  O   UNL     1       8.460  28.798  55.571  1.00  0.00    -0.247 OA
HETATM    5  H   UNL     1       9.359  30.499  56.965  1.00  0.00     0.170 HD
HETATM    6  H   UNL     1       7.244  28.286  58.316  1.00  0.00     0.164 HD
ENDROOT
BRANCH   1   7
HETATM    7  C   UNL     1       8.056  30.783  58.542  1.00  0.00     0.036 A 
HETATM    8  C   UNL     1       6.934  31.604  58.588  1.00  0.00     0.032 A 
HETATM    9  C   UNL     1       6.542  32.207  59.790  1.00  0.00     0.032 A 
HETATM   10  C   UNL     1       7.263  32.008  60.971  1.00  0.00     0.041 A 
HETATM   11  C   UNL     1       8.426  31.215  60.926  1.00  0.00    -0.033 A 
HETATM   12  C   UNL     1       9.277  30.965  62.145  1.00  0.00     0.050 C 
HETATM   13  C   UNL     1       8.813  30.622  59.707  1.00  0.00     0.038 A 
BRANCH  10  14
HETATM   14  N   UNL     1       6.855  32.556  62.205  1.00  0.00    -0.321 N 
HETATM   15  C   UNL     1       5.843  32.131  63.051  1.00  0.00     0.279 C 
HETATM   16  O   UNL     1       5.052  31.224  62.811  1.00  0.00    -0.265 OA
HETATM   17  H   UNL     1       7.363  33.363  62.553  1.00  0.00     0.169 HD
BRANCH  15  18
HETATM   18  C   UNL     1       5.800  32.889  64.288  1.00  0.00     0.142 A 
HETATM   19  O   UNL     1       4.593  33.085  64.914  1.00  0.00    -0.317 OA
HETATM   20  C   UNL     1       4.833  33.841  66.016  1.00  0.00     0.143 A 
HETATM   21  C   UNL     1       6.173  34.127  66.124  1.00  0.00     0.027 A 
HETATM   22  C   UNL     1       6.797  33.513  65.011  1.00  0.00     0.045 A 
ENDBRANCH  15  18
ENDBRANCH  10  14
ENDBRANCH   1   7
BRANCH   3  23
HETATM   23  C   UNL     1       6.746  26.970  56.758  1.00  0.00     0.108 C 
HETATM   24  C   UNL     1       7.175  25.868  57.726  1.00  0.00     0.034 C 
BRANCH  23  25
HETATM   25  C   UNL     1       5.283  26.806  56.247  1.00  0.00     0.259 C 
BRANCH  25  26
HETATM   26  N   UNL     1       5.051  26.553  54.765  1.00  0.00    -0.069 N 
HETATM   27  H   UNL     1       4.024  26.511  54.711  1.00  0.00     0.280 HD
HETATM   28  C   UNL     1       5.459  27.657  53.831  1.00  0.00     0.239 C 
HETATM   29  C   UNL     1       4.796  27.426  52.470  1.00  0.00     0.007 C 
HETATM   30  C   UNL     1       5.171  26.047  51.912  1.00  0.00     0.007 C 
HETATM   31  C   UNL     1       5.191  28.530  51.490  1.00  0.00     0.011 C 
HETATM   32  C   UNL     1       4.863  24.935  52.913  1.00  0.00     0.028 C 
HETATM   33  C   UNL     1       5.502  25.198  54.273  1.00  0.00     0.235 C 
ENDBRANCH  25  26
ENDBRANCH  23  25
ENDBRANCH   3  23
TORSDOF 6
ENDMDL
MODEL 6
REMARK VINA RESULT:      -9.3      5.847      9.749
REMARK  6 active torsions:
REMARK  status: ('A' for Active; 'I' for Inactive)
REMARK    1  A    between atoms: C_3  and  N_4 
REMARK       I    between atoms: N_4  and  C_5 
REMARK    2  A    between atoms: C_5  and  C_6 
REMARK    3  A    between atoms: C_14  and  N_15 
REMARK       I    between atoms: N_15  and  C_16 
REMARK       I    between atoms: C_16  and  N_17 
REMARK    4  A    between atoms: N_17  and  C_18 
REMARK    5  A    between atoms: C_18  and  C_19 
REMARK    6  A    between atoms: C_19  and  N_20 
ROOT
HETATM    1  N   UNL     1       5.013  29.492  52.909  1.00  0.00    -0.309 N 
HETATM    2  C   UNL     1       4.635  30.228  51.830  1.00  0.00     0.321 C 
HETATM    3  N   UNL     1       5.144  29.869  50.614  1.00  0.00    -0.337 N 
HETATM    4  O   UNL     1       3.890  31.194  51.962  1.00  0.00    -0.247 OA
HETATM    5  H   UNL     1       4.799  29.966  53.781  1.00  0.00     0.170 HD
HETATM    6  H   UNL     1       6.068  29.461  50.727  1.00  0.00     0.164 HD
ENDROOT
BRANCH   1   7
HETATM    7  C   UNL     1       5.644  28.240  53.024  1.00  0.00     0.036 A 
HETATM    8  C   UNL     1       6.943  28.061  53.487  1.00  0.00     0.032 A 
HETATM    9  C   UNL     1       7.494  26.777  53.583  1.00  0.00     0.032 A 
HETATM   10  C   UNL     1       6.763  25.644  53.214  1.00  0.00     0.041 A 
HETATM   11  C   UNL     1       5.462  25.817  52.702  1.00  0.00    -0.033 A 
HETATM   12  C   UNL     1       4.611  24.655  52.259  1.00  0.00     0.050 C 
HETATM   13  C   UNL     1       4.925  27.116  52.603  1.00  0.00     0.038 A 
BRANCH  10  14
HETATM   14  N   UNL     1       7.273  24.337  53.357  1.00  0.00    -0.321 N 
HETATM   15  C   UNL     1       7.265  23.519  54.476  1.00  0.00     0.279 C 
HETATM   16  O   UNL     1       6.871  23.847  55.591  1.00  0.00    -0.265 OA
HETATM   17  H   UNL     1       7.698  23.905  52.543  1.00  0.00     0.169 HD
BRANCH  15  18
HETATM   18  C   UNL     1       7.789  22.194  54.200  1.00  0.00     0.142 A 
HETATM   19  O   UNL     1       8.101  21.363  55.247  1.00  0.00    -0.317 OA
HETATM   20  C   UNL     1       8.593  20.215  54.714  1.00  0.00     0.143 A 
HETATM   21  C   UNL     1       8.593  20.282  53.341  1.00  0.00     0.027 A 
HETATM   22  C   UNL     1       8.075  21.557  53.008  1.00  0.00     0.045 A 
ENDBRANCH  15  18
ENDBRANCH  10  14
ENDBRANCH   1   7
BRANCH   3  23
HETATM   23  C   UNL     1       5.012  30.763  49.463  1.00  0.00     0.108 C 
HETATM   24  C   UNL     1       6.116  31.819  49.500  1.00  0.00     0.034 C 
BRANCH  23  25
HETATM   25  C   UNL     1       4.858  30.081  48.070  1.00  0.00     0.259 C 
BRANCH  25  26
HETATM   26  N   UNL     1       4.153  28.736  47.990  1.00  0.00    -0.069 N 
HETATM   27  H   UNL     1       3.913  28.558  48.975  1.00  0.00     0.280 HD
HETATM   28  C   UNL     1       2.846  28.714  47.246  1.00  0.00     0.239 C 
HETATM   29  C   UNL     1       2.091  27.431  47.607  1.00  0.00     0.007 C 
HETATM   30  C   UNL     1       2.943  26.194  47.289  1.00  0.00     0.007 C 
HETATM   31  C   UNL     1       0.756  27.372  46.867  1.00  0.00     0.011 C 
HETATM   32  C   UNL     1       4.317  26.274  47.951  1.00  0.00     0.028 C 
HETATM   33  C   UNL     1       5.040  27.574  47.610  1.00  0.00     0.235 C 
ENDBRANCH  25  26
ENDBRANCH  23  25
ENDBRANCH   3  23
TORSDOF 6
ENDMDL
MODEL 7
REMARK VINA RESULT:      -9.0      3.337     10.474
REMARK  6 active torsions:
REMARK  status: ('A' for Active; 'I' for Inactive)
REMARK    1  A    between atoms: C_3  and  N_4 
REMARK       I    between atoms: N_4  and  C_5 
REMARK    2  A    between atoms: C_5  and  C_6 
REMARK    3  A    between atoms: C_14  and  N_15 
REMARK       I    between atoms: N_15  and  C_16 
REMARK       I    between atoms: C_16  and  N_17 
REMARK    4  A    between atoms: N_17  and  C_18 
REMARK    5  A    between atoms: C_18  and  C_19 
REMARK    6  A    between atoms: C_19  and  N_20 
ROOT
HETATM    1  N   UNL     1       7.080  26.253  56.489  1.00  0.00    -0.309 N 
HETATM    2  C   UNL     1       7.570  27.166  57.369  1.00  0.00     0.321 C 
HETATM    3  N   UNL     1       7.697  28.456  56.933  1.00  0.00    -0.337 N 
HETATM    4  O   UNL     1       7.909  26.827  58.498  1.00  0.00    -0.247 OA
HETATM    5  H   UNL     1       7.252  25.302  56.800  1.00  0.00     0.170 HD
HETATM    6  H   UNL     1       7.887  28.471  55.935  1.00  0.00     0.164 HD
ENDROOT
BRANCH   1   7
HETATM    7  C   UNL     1       6.418  26.391  55.255  1.00  0.00     0.036 A 
HETATM    8  C   UNL     1       5.221  27.079  55.085  1.00  0.00     0.032 A 
HETATM    9  C   UNL     1       4.633  27.180  53.818  1.00  0.00     0.032 A 
HETATM   10  C   UNL     1       5.223  26.595  52.694  1.00  0.00     0.041 A 
HETATM   11  C   UNL     1       6.412  25.859  52.863  1.00  0.00    -0.033 A 
HETATM   12  C   UNL     1       7.105  25.175  51.713  1.00  0.00     0.050 C 
HETATM   13  C   UNL     1       6.988  25.757  54.146  1.00  0.00     0.038 A 
BRANCH  10  14
HETATM   14  N   UNL     1       4.683  26.733  51.399  1.00  0.00    -0.321 N 
HETATM   15  C   UNL     1       4.869  27.759  50.486  1.00  0.00     0.279 C 
HETATM   16  O   UNL     1       5.493  28.793  50.699  1.00  0.00    -0.265 OA
HETATM   17  H   UNL     1       4.082  25.990  51.057  1.00  0.00     0.169 HD
BRANCH  15  18
HETATM   18  C   UNL     1       4.231  27.489  49.210  1.00  0.00     0.142 A 
HETATM   19  O   UNL     1       3.191  28.286  48.797  1.00  0.00    -0.317 OA
HETATM   20  C   UNL     1       2.765  27.799  47.603  1.00  0.00     0.143 A 
HETATM   21  C   UNL     1       3.516  26.710  47.229  1.00  0.00     0.027 A 
HETATM   22  C   UNL     1       4.462  26.510  48.263  1.00  0.00     0.045 A 
ENDBRANCH  15  18
ENDBRANCH  10  14
ENDBRANCH   1   7
BRANCH   3  23
HETATM   23  C   UNL     1       8.463  29.428  57.713  1.00  0.00     0.108 C 
HETATM   24  C   UNL     1       9.795  29.711  57.019  1.00  0.00     0.034 C 
BRANCH  23  25
HETATM   25  C   UNL     1       7.705  30.720  58.144  1.00  0.00     0.259 C 
BRANCH  25  26
HETATM   26  N   UNL     1       8.041  31.350  59.486  1.00  0.00    -0.069 N 
HETATM   27  H   UNL     1       8.670  32.118  59.214  1.00  0.00     0.280 HD
HETATM   28  C   UNL     1       6.902  32.002  60.219  1.00  0.00     0.239 C 
HETATM   29  C   UNL     1       7.471  32.918  61.307  1.00  0.00     0.007 C 
HETATM   30  C   UNL     1       8.378  32.128  62.261  1.00  0.00     0.007 C 
HETATM   31  C   UNL     1       6.340  33.598  62.076  1.00  0.00     0.011 C 
HETATM   32  C   UNL     1       9.465  31.370  61.501  1.00  0.00     0.028 C 
HETATM   33  C   UNL     1       8.884  30.490  60.399  1.00  0.00     0.235 C 
ENDBRANCH  25  26
ENDBRANCH  23  25
ENDBRANCH   3  23
TORSDOF 6
ENDMDL
MODEL 8
REMARK VINA RESULT:      -8.9      2.073     10.972
REMARK  6 active torsions:
REMARK  status: ('A' for Active; 'I' for Inactive)
REMARK    1  A    between atoms: C_3  and  N_4 
REMARK       I    between atoms: N_4  and  C_5 
REMARK    2  A    between atoms: C_5  and  C_6 
REMARK    3  A    between atoms: C_14  and  N_15 
REMARK       I    between atoms: N_15  and  C_16 
REMARK       I    between atoms: C_16  and  N_17 
REMARK    4  A    between atoms: N_17  and  C_18 
REMARK    5  A    between atoms: C_18  and  C_19 
REMARK    6  A    between atoms: C_19  and  N_20 
ROOT
HETATM    1  N   UNL     1       7.666  31.351  58.563  1.00  0.00    -0.309 N 
HETATM    2  C   UNL     1       7.725  31.778  59.852  1.00  0.00     0.321 C 
HETATM    3  N   UNL     1       7.608  30.834  60.834  1.00  0.00    -0.337 N 
HETATM    4  O   UNL     1       7.850  32.971  60.111  1.00  0.00    -0.247 OA
HETATM    5  H   UNL     1       7.511  32.120  57.919  1.00  0.00     0.170 HD
HETATM    6  H   UNL     1       7.019  30.069  60.516  1.00  0.00     0.164 HD
ENDROOT
BRANCH   1   7
HETATM    7  C   UNL     1       7.759  30.071  57.987  1.00  0.00     0.036 A 
HETATM    8  C   UNL     1       8.960  29.440  57.677  1.00  0.00     0.032 A 
HETATM    9  C   UNL     1       8.965  28.157  57.116  1.00  0.00     0.032 A 
HETATM   10  C   UNL     1       7.774  27.477  56.847  1.00  0.00     0.041 A 
HETATM   11  C   UNL     1       6.552  28.124  57.115  1.00  0.00    -0.033 A 
HETATM   12  C   UNL     1       5.220  27.477  56.836  1.00  0.00     0.050 C 
HETATM   13  C   UNL     1       6.562  29.419  57.671  1.00  0.00     0.038 A 
BRANCH  10  14
HETATM   14  N   UNL     1       7.754  26.162  56.338  1.00  0.00    -0.321 N 
HETATM   15  C   UNL     1       7.659  25.742  55.021  1.00  0.00     0.279 C 
HETATM   16  O   UNL     1       7.486  26.476  54.053  1.00  0.00    -0.265 OA
HETATM   17  H   UNL     1       7.831  25.398  57.002  1.00  0.00     0.169 HD
BRANCH  15  18
HETATM   18  C   UNL     1       7.783  24.302  54.887  1.00  0.00     0.142 A 
HETATM   19  O   UNL     1       8.503  23.599  55.823  1.00  0.00    -0.317 OA
HETATM   20  C   UNL     1       8.484  22.295  55.445  1.00  0.00     0.143 A 
HETATM   21  C   UNL     1       7.755  22.137  54.290  1.00  0.00     0.027 A 
HETATM   22  C   UNL     1       7.302  23.429  53.930  1.00  0.00     0.045 A 
ENDBRANCH  15  18
ENDBRANCH  10  14
ENDBRANCH   1   7
BRANCH   3  23
HETATM   23  C   UNL     1       7.386  31.235  62.223  1.00  0.00     0.108 C 
HETATM   24  C   UNL     1       8.550  32.103  62.701  1.00  0.00     0.034 C 
BRANCH  23  25
HETATM   25  C   UNL     1       5.988  31.841  62.554  1.00  0.00     0.259 C 
BRANCH  25  26
HETATM   26  N   UNL     1       5.922  33.230  63.170  1.00  0.00    -0.069 N 
HETATM   27  H   UNL     1       6.912  33.424  63.373  1.00  0.00     0.280 HD
HETATM   28  C   UNL     1       5.472  34.340  62.261  1.00  0.00     0.239 C 
HETATM   29  C   UNL     1       5.851  35.683  62.892  1.00  0.00     0.007 C 
HETATM   30  C   UNL     1       5.237  35.816  64.292  1.00  0.00     0.007 C 
HETATM   31  C   UNL     1       5.407  36.837  61.996  1.00  0.00     0.011 C 
HETATM   32  C   UNL     1       5.600  34.626  65.179  1.00  0.00     0.028 C 
HETATM   33  C   UNL     1       5.248  33.295  64.520  1.00  0.00     0.235 C 
ENDBRANCH  25  26
ENDBRANCH  23  25
ENDBRANCH   3  23
TORSDOF 6
ENDMDL
MODEL 9
REMARK VINA RESULT:      -8.8      4.049      5.935
REMARK  6 active torsions:
REMARK  status: ('A' for Active; 'I' for Inactive)
REMARK    1  A    between atoms: C_3  and  N_4 
REMARK       I    between atoms: N_4  and  C_5 
REMARK    2  A    between atoms: C_5  and  C_6 
REMARK    3  A    between atoms: C_14  and  N_15 
REMARK       I    between atoms: N_15  and  C_16 
REMARK       I    between atoms: C_16  and  N_17 
REMARK    4  A    between atoms: N_17  and  C_18 
REMARK    5  A    between atoms: C_18  and  C_19 
REMARK    6  A    between atoms: C_19  and  N_20 
ROOT
HETATM    1  N   UNL     1       5.138  26.658  54.505  1.00  0.00    -0.309 N 
HETATM    2  C   UNL     1       4.657  26.956  53.269  1.00  0.00     0.321 C 
HETATM    3  N   UNL     1       4.334  28.260  53.016  1.00  0.00    -0.337 N 
HETATM    4  O   UNL     1       4.497  26.074  52.432  1.00  0.00    -0.247 OA
HETATM    5  H   UNL     1       5.114  25.660  54.688  1.00  0.00     0.170 HD
HETATM    6  H   UNL     1       4.025  28.716  53.870  1.00  0.00     0.164 HD
ENDROOT
BRANCH   1   7
HETATM    7  C   UNL     1       5.628  27.466  55.548  1.00  0.00     0.036 A 
HETATM    8  C   UNL     1       4.822  28.223  56.393  1.00  0.00     0.032 A 
HETATM    9  C   UNL     1       5.390  28.991  57.416  1.00  0.00     0.032 A 
HETATM   10  C   UNL     1       6.773  29.027  57.617  1.00  0.00     0.041 A 
HETATM   11  C   UNL     1       7.601  28.300  56.740  1.00  0.00    -0.033 A 
HETATM   12  C   UNL     1       9.102  28.298  56.867  1.00  0.00     0.050 C 
HETATM   13  C   UNL     1       7.016  27.538  55.708  1.00  0.00     0.038 A 
BRANCH  10  14
HETATM   14  N   UNL     1       7.363  29.746  58.677  1.00  0.00    -0.321 N 
HETATM   15  C   UNL     1       7.302  31.104  58.945  1.00  0.00     0.279 C 
HETATM   16  O   UNL     1       6.772  31.946  58.227  1.00  0.00    -0.265 OA
HETATM   17  H   UNL     1       7.902  29.222  59.359  1.00  0.00     0.169 HD
BRANCH  15  18
HETATM   18  C   UNL     1       7.951  31.452  60.196  1.00  0.00     0.142 A 
HETATM   19  O   UNL     1       7.192  31.585  61.333  1.00  0.00    -0.317 OA
HETATM   20  C   UNL     1       8.034  31.941  62.337  1.00  0.00     0.143 A 
HETATM   21  C   UNL     1       9.326  32.028  61.876  1.00  0.00     0.027 A 
HETATM   22  C   UNL     1       9.274  31.712  60.496  1.00  0.00     0.045 A 
ENDBRANCH  15  18
ENDBRANCH  10  14
ENDBRANCH   1   7
BRANCH   3  23
HETATM   23  C   UNL     1       3.562  28.613  51.825  1.00  0.00     0.108 C 
HETATM   24  C   UNL     1       3.065  30.054  51.941  1.00  0.00     0.034 C 
BRANCH  23  25
HETATM   25  C   UNL     1       4.227  28.299  50.451  1.00  0.00     0.259 C 
BRANCH  25  26
HETATM   26  N   UNL     1       3.483  27.412  49.465  1.00  0.00    -0.069 N 
HETATM   27  H   UNL     1       2.924  26.816  50.090  1.00  0.00     0.280 HD
HETATM   28  C   UNL     1       2.492  28.099  48.568  1.00  0.00     0.239 C 
HETATM   29  C   UNL     1       1.563  27.047  47.956  1.00  0.00     0.007 C 
HETATM   30  C   UNL     1       2.373  25.988  47.195  1.00  0.00     0.007 C 
HETATM   31  C   UNL     1       0.541  27.710  47.034  1.00  0.00     0.011 C 
HETATM   32  C   UNL     1       3.459  25.373  48.076  1.00  0.00     0.028 C 
HETATM   33  C   UNL     1       4.353  26.437  48.706  1.00  0.00     0.235 C 
ENDBRANCH  25  26
ENDBRANCH  23  25
ENDBRANCH   3  23
TORSDOF 6
ENDMDL
MODEL 10
REMARK VINA RESULT:      -8.7      2.928      9.417
REMARK  6 active torsions:
REMARK  status: ('A' for Active; 'I' for Inactive)
REMARK    1  A    between atoms: C_3  and  N_4 
REMARK       I    between atoms: N_4  and  C_5 
REMARK    2  A    between atoms: C_5  and  C_6 
REMARK    3  A    between atoms: C_14  and  N_15 
REMARK       I    between atoms: N_15  and  C_16 
REMARK       I    between atoms: C_16  and  N_17 
REMARK    4  A    between atoms: N_17  and  C_18 
REMARK    5  A    between atoms: C_18  and  C_19 
REMARK    6  A    between atoms: C_19  and  N_20 
ROOT
HETATM    1  N   UNL     1       5.040  29.523  53.455  1.00  0.00    -0.309 N 
HETATM    2  C   UNL     1       4.814  30.456  54.417  1.00  0.00     0.321 C 
HETATM    3  N   UNL     1       4.984  30.072  55.718  1.00  0.00    -0.337 N 
HETATM    4  O   UNL     1       4.444  31.586  54.118  1.00  0.00    -0.247 OA
HETATM    5  H   UNL     1       4.656  29.808  52.558  1.00  0.00     0.170 HD
HETATM    6  H   UNL     1       4.768  29.085  55.823  1.00  0.00     0.164 HD
ENDROOT
BRANCH   1   7
HETATM    7  C   UNL     1       5.671  28.266  53.486  1.00  0.00     0.036 A 
HETATM    8  C   UNL     1       6.947  28.047  53.995  1.00  0.00     0.032 A 
HETATM    9  C   UNL     1       7.499  26.761  54.002  1.00  0.00     0.032 A 
HETATM   10  C   UNL     1       6.793  25.665  53.496  1.00  0.00     0.041 A 
HETATM   11  C   UNL     1       5.519  25.882  52.938  1.00  0.00    -0.033 A 
HETATM   12  C   UNL     1       4.696  24.765  52.350  1.00  0.00     0.050 C 
HETATM   13  C   UNL     1       4.979  27.185  52.930  1.00  0.00     0.038 A 
BRANCH  10  14
HETATM   14  N   UNL     1       7.303  24.351  53.545  1.00  0.00    -0.321 N 
HETATM   15  C   UNL     1       7.266  23.444  54.593  1.00  0.00     0.279 C 
HETATM   16  O   UNL     1       6.841  23.679  55.720  1.00  0.00    -0.265 OA
HETATM   17  H   UNL     1       7.751  23.988  52.711  1.00  0.00     0.169 HD
BRANCH  15  18
HETATM   18  C   UNL     1       7.801  22.146  54.223  1.00  0.00     0.142 A 
HETATM   19  O   UNL     1       8.098  21.236  55.207  1.00  0.00    -0.317 OA
HETATM   20  C   UNL     1       8.605  20.135  54.594  1.00  0.00     0.143 A 
HETATM   21  C   UNL     1       8.630  20.310  53.231  1.00  0.00     0.027 A 
HETATM   22  C   UNL     1       8.111  21.605  52.990  1.00  0.00     0.045 A 
ENDBRANCH  15  18
ENDBRANCH  10  14
ENDBRANCH   1   7
BRANCH   3  23
HETATM   23  C   UNL     1       4.502  30.919  56.809  1.00  0.00     0.108 C 
HETATM   24  C   UNL     1       2.981  30.804  56.918  1.00  0.00     0.034 C 
BRANCH  23  25
HETATM   25  C   UNL     1       5.231  30.767  58.178  1.00  0.00     0.259 C 
BRANCH  25  26
HETATM   26  N   UNL     1       6.750  30.706  58.193  1.00  0.00    -0.069 N 
HETATM   27  H   UNL     1       6.998  31.300  57.390  1.00  0.00     0.280 HD
HETATM   28  C   UNL     1       7.429  31.330  59.380  1.00  0.00     0.239 C 
HETATM   29  C   UNL     1       8.908  31.550  59.048  1.00  0.00     0.007 C 
HETATM   30  C   UNL     1       9.575  30.227  58.647  1.00  0.00     0.007 C 
HETATM   31  C   UNL     1       9.633  32.182  60.235  1.00  0.00     0.011 C 
HETATM   32  C   UNL     1       8.814  29.535  57.517  1.00  0.00     0.028 C 
HETATM   33  C   UNL     1       7.336  29.357  57.850  1.00  0.00     0.235 C 
ENDBRANCH  25  26
ENDBRANCH  23  25
ENDBRANCH   3  23
TORSDOF 6
ENDMDL
