MODEL 1
REMARK VINA RESULT:      -9.8      0.000      0.000
REMARK  7 active torsions:
REMARK  status: ('A' for Active; 'I' for Inactive)
REMARK    1  A    between atoms: C_7  and  C_8 
REMARK    2  A    between atoms: C_8  and  C_9 
REMARK    3  A    between atoms: C_9  and  C_10 
REMARK    4  A    between atoms: C_10  and  O_11 
REMARK    5  A    between atoms: C_13  and  C_14 
REMARK    6  A    between atoms: C_21  and  C_22 
REMARK       I    between atoms: C_22  and  N_23 
REMARK    7  A    between atoms: N_23  and  C_24 
ROOT
HETATM    1  C   UNL     1       4.669  28.014  56.582  1.00  0.00     0.070 C 
HETATM    2  C   UNL     1       5.249  27.377  55.344  1.00  0.00     0.037 C 
HETATM    3  N   UNL     1       4.345  27.154  54.303  1.00  0.00    -0.192 N 
HETATM    4  C   UNL     1       4.751  26.878  53.046  1.00  0.00     0.726 A 
HETATM    5  N   UNL     1       6.048  26.511  52.837  1.00  0.00    -0.083 N 
HETATM    6  N   UNL     1       6.328  26.387  51.525  1.00  0.00    -0.140 NA
HETATM    7  C   UNL     1       5.130  26.666  50.990  1.00  0.00     0.166 A 
HETATM    8  N   UNL     1       4.133  26.959  51.895  1.00  0.00    -0.046 NA
HETATM    9  C   UNL     1       7.035  26.364  53.906  1.00  0.00     0.202 C 
HETATM   10  C   UNL     1       6.559  27.041  55.191  1.00  0.00     0.062 C 
HETATM   11  H   UNL     1       3.420  27.566  54.413  1.00  0.00     0.184 HD
ENDROOT
BRANCH  10  12
HETATM   12  C   UNL     1       7.599  27.536  56.151  1.00  0.00     0.256 C 
HETATM   13  N   UNL     1       7.980  28.847  55.967  1.00  0.00    -0.323 N 
HETATM   14  H   UNL     1       7.650  29.338  55.147  1.00  0.00     0.169 HD
HETATM   15  O   UNL     1       7.982  26.796  57.050  1.00  0.00    -0.267 OA
BRANCH  13  16
HETATM   16  C   UNL     1       8.792  29.628  56.822  1.00  0.00     0.035 A 
HETATM   17  C   UNL     1       8.314  30.354  57.914  1.00  0.00     0.029 A 
HETATM   18  C   UNL     1       9.186  31.124  58.691  1.00  0.00     0.002 A 
HETATM   19  C   UNL     1      10.541  31.183  58.377  1.00  0.00     0.000 A 
HETATM   20  C   UNL     1      11.029  30.463  57.290  1.00  0.00     0.002 A 
HETATM   21  C   UNL     1      10.160  29.684  56.521  1.00  0.00     0.029 A 
ENDBRANCH  13  16
ENDBRANCH  10  12
BRANCH   9  22
HETATM   22  C   UNL     1       7.351  24.875  54.081  1.00  0.00    -0.028 A 
HETATM   23  C   UNL     1       7.996  24.175  53.046  1.00  0.00     0.011 A 
HETATM   24  C   UNL     1       8.294  22.817  53.179  1.00  0.00     0.019 A 
HETATM   25  C   UNL     1       7.943  22.142  54.346  1.00  0.00     0.011 A 
HETATM   26 BR   UNL     1       8.345  20.305  54.527  1.00  0.00    -0.051 Br
HETATM   27  C   UNL     1       7.291  22.811  55.378  1.00  0.00     0.019 A 
HETATM   28  C   UNL     1       6.989  24.169  55.244  1.00  0.00     0.011 A 
ENDBRANCH   9  22
BRANCH   7  29
HETATM   29  C   UNL     1       4.909  26.715  49.524  1.00  0.00     0.085 C 
BRANCH  29  30
HETATM   30  C   UNL     1       5.219  28.081  48.914  1.00  0.00     0.034 C 
BRANCH  30  31
HETATM   31  C   UNL     1       5.270  28.063  47.390  1.00  0.00     0.164 C 
BRANCH  31  32
HETATM   32  O   UNL     1       6.071  26.970  46.951  1.00  0.00    -0.401 OA
HETATM   33  H   UNL     1       5.535  26.163  47.030  1.00  0.00     0.209 HD
ENDBRANCH  31  32
ENDBRANCH  30  31
ENDBRANCH  29  30
ENDBRANCH   7  29
TORSDOF 7
ENDMDL
MODEL 2
REMARK VINA RESULT:      -8.9      3.501      7.947
REMARK  7 active torsions:
REMARK  status: ('A' for Active; 'I' for Inactive)
REMARK    1  A    between atoms: C_7  and  C_8 
REMARK    2  A    between atoms: C_8  and  C_9 
REMARK    3  A    between atoms: C_9  and  C_10 
REMARK    4  A    between atoms: C_10  and  O_11 
REMARK    5  A    between atoms: C_13  and  C_14 
REMARK    6  A    between atoms: C_21  and  C_22 
REMARK       I    between atoms: C_22  and  N_23 
REMARK    7  A    between atoms: N_23  and  C_24 
ROOT
HETATM    1  C   UNL     1       4.623  25.097  57.229  1.00  0.00     0.070 C 
HETATM    2  C   UNL     1       5.389  26.274  56.677  1.00  0.00     0.037 C 
HETATM    3  N   UNL     1       5.492  27.376  57.529  1.00  0.00    -0.192 N 
HETATM    4  C   UNL     1       6.379  28.369  57.314  1.00  0.00     0.726 A 
HETATM    5  N   UNL     1       6.980  28.464  56.093  1.00  0.00    -0.083 N 
HETATM    6  N   UNL     1       7.923  29.427  56.073  1.00  0.00    -0.140 NA
HETATM    7  C   UNL     1       7.815  29.903  57.323  1.00  0.00     0.166 A 
HETATM    8  N   UNL     1       6.867  29.287  58.110  1.00  0.00    -0.046 NA
HETATM    9  C   UNL     1       6.699  27.565  54.975  1.00  0.00     0.202 C 
HETATM   10  C   UNL     1       5.978  26.305  55.450  1.00  0.00     0.062 C 
HETATM   11  H   UNL     1       5.171  27.238  58.485  1.00  0.00     0.184 HD
ENDROOT
BRANCH  10  12
HETATM   12  C   UNL     1       6.147  25.052  54.645  1.00  0.00     0.256 C 
HETATM   13  N   UNL     1       7.262  24.306  54.962  1.00  0.00    -0.323 N 
HETATM   14  H   UNL     1       7.944  24.698  55.597  1.00  0.00     0.169 HD
HETATM   15  O   UNL     1       5.283  24.741  53.834  1.00  0.00    -0.267 OA
BRANCH  13  16
HETATM   16  C   UNL     1       7.577  23.006  54.504  1.00  0.00     0.035 A 
HETATM   17  C   UNL     1       7.841  22.682  53.172  1.00  0.00     0.029 A 
HETATM   18  C   UNL     1       8.115  21.361  52.803  1.00  0.00     0.002 A 
HETATM   19  C   UNL     1       8.120  20.351  53.761  1.00  0.00     0.000 A 
HETATM   20  C   UNL     1       7.859  20.661  55.092  1.00  0.00     0.002 A 
HETATM   21  C   UNL     1       7.596  21.983  55.463  1.00  0.00     0.029 A 
ENDBRANCH  13  16
ENDBRANCH  10  12
BRANCH   9  22
HETATM   22  C   UNL     1       5.929  28.342  53.902  1.00  0.00    -0.028 A 
HETATM   23  C   UNL     1       4.857  29.170  54.278  1.00  0.00     0.011 A 
HETATM   24  C   UNL     1       4.138  29.886  53.318  1.00  0.00     0.019 A 
HETATM   25  C   UNL     1       4.479  29.778  51.972  1.00  0.00     0.011 A 
HETATM   26 BR   UNL     1       3.506  30.747  50.675  1.00  0.00    -0.051 Br
HETATM   27  C   UNL     1       5.528  28.954  51.576  1.00  0.00     0.019 A 
HETATM   28  C   UNL     1       6.245  28.233  52.534  1.00  0.00     0.011 A 
ENDBRANCH   9  22
BRANCH   7  29
HETATM   29  C   UNL     1       8.698  30.978  57.840  1.00  0.00     0.085 C 
BRANCH  29  30
HETATM   30  C   UNL     1       9.525  30.547  59.049  1.00  0.00     0.034 C 
BRANCH  30  31
HETATM   31  C   UNL     1       9.042  31.161  60.359  1.00  0.00     0.164 C 
BRANCH  31  32
HETATM   32  O   UNL     1       7.771  30.618  60.703  1.00  0.00    -0.401 OA
HETATM   33  H   UNL     1       7.823  29.654  60.590  1.00  0.00     0.209 HD
ENDBRANCH  31  32
ENDBRANCH  30  31
ENDBRANCH  29  30
ENDBRANCH   7  29
TORSDOF 7
ENDMDL
MODEL 3
REMARK VINA RESULT:      -8.8      3.262      6.828
REMARK  7 active torsions:
REMARK  status: ('A' for Active; 'I' for Inactive)
REMARK    1  A    between atoms: C_7  and  C_8 
REMARK    2  A    between atoms: C_8  and  C_9 
REMARK    3  A    between atoms: C_9  and  C_10 
REMARK    4  A    between atoms: C_10  and  O_11 
REMARK    5  A    between atoms: C_13  and  C_14 
REMARK    6  A    between atoms: C_21  and  C_22 
REMARK       I    between atoms: C_22  and  N_23 
REMARK    7  A    between atoms: N_23  and  C_24 
ROOT
HETATM    1  C   UNL     1       5.418  26.849  51.033  1.00  0.00     0.070 C 
HETATM    2  C   UNL     1       5.287  27.559  52.358  1.00  0.00     0.037 C 
HETATM    3  N   UNL     1       4.768  28.855  52.296  1.00  0.00    -0.192 N 
HETATM    4  C   UNL     1       4.314  29.499  53.391  1.00  0.00     0.726 A 
HETATM    5  N   UNL     1       4.637  29.012  54.624  1.00  0.00    -0.083 N 
HETATM    6  N   UNL     1       4.014  29.690  55.608  1.00  0.00    -0.140 NA
HETATM    7  C   UNL     1       3.346  30.606  54.891  1.00  0.00     0.166 A 
HETATM    8  N   UNL     1       3.517  30.529  53.526  1.00  0.00    -0.046 NA
HETATM    9  C   UNL     1       5.481  27.839  54.840  1.00  0.00     0.202 C 
HETATM   10  C   UNL     1       5.618  27.016  53.561  1.00  0.00     0.062 C 
HETATM   11  H   UNL     1       4.394  29.148  51.395  1.00  0.00     0.184 HD
ENDROOT
BRANCH  10  12
HETATM   12  C   UNL     1       5.886  25.547  53.695  1.00  0.00     0.256 C 
HETATM   13  N   UNL     1       7.214  25.189  53.607  1.00  0.00    -0.323 N 
HETATM   14  H   UNL     1       7.888  25.891  53.335  1.00  0.00     0.169 HD
HETATM   15  O   UNL     1       4.953  24.788  53.934  1.00  0.00    -0.267 OA
BRANCH  13  16
HETATM   16  C   UNL     1       7.775  23.920  53.876  1.00  0.00     0.035 A 
HETATM   17  C   UNL     1       7.820  22.869  52.959  1.00  0.00     0.029 A 
HETATM   18  C   UNL     1       8.369  21.633  53.320  1.00  0.00     0.002 A 
HETATM   19  C   UNL     1       8.870  21.437  54.604  1.00  0.00     0.000 A 
HETATM   20  C   UNL     1       8.832  22.477  55.527  1.00  0.00     0.002 A 
HETATM   21  C   UNL     1       8.294  23.715  55.163  1.00  0.00     0.029 A 
ENDBRANCH  13  16
ENDBRANCH  10  12
BRANCH   9  22
HETATM   22  C   UNL     1       6.824  28.299  55.418  1.00  0.00    -0.028 A 
HETATM   23  C   UNL     1       7.891  28.591  54.549  1.00  0.00     0.011 A 
HETATM   24  C   UNL     1       9.125  29.010  55.050  1.00  0.00     0.019 A 
HETATM   25  C   UNL     1       9.308  29.136  56.426  1.00  0.00     0.011 A 
HETATM   26 BR   UNL     1      10.978  29.703  57.103  1.00  0.00    -0.051 Br
HETATM   27  C   UNL     1       8.271  28.839  57.304  1.00  0.00     0.019 A 
HETATM   28  C   UNL     1       7.037  28.415  56.804  1.00  0.00     0.011 A 
ENDBRANCH   9  22
BRANCH   7  29
HETATM   29  C   UNL     1       2.438  31.597  55.521  1.00  0.00     0.085 C 
BRANCH  29  30
HETATM   30  C   UNL     1       3.145  32.892  55.920  1.00  0.00     0.034 C 
BRANCH  30  31
HETATM   31  C   UNL     1       3.592  32.909  57.378  1.00  0.00     0.164 C 
BRANCH  31  32
HETATM   32  O   UNL     1       3.262  31.668  57.995  1.00  0.00    -0.401 OA
HETATM   33  H   UNL     1       3.991  31.435  58.594  1.00  0.00     0.209 HD
ENDBRANCH  31  32
ENDBRANCH  30  31
ENDBRANCH  29  30
ENDBRANCH   7  29
TORSDOF 7
ENDMDL
MODEL 4
REMARK VINA RESULT:      -8.5      3.482      6.599
REMARK  7 active torsions:
REMARK  status: ('A' for Active; 'I' for Inactive)
REMARK    1  A    between atoms: C_7  and  C_8 
REMARK    2  A    between atoms: C_8  and  C_9 
REMARK    3  A    between atoms: C_9  and  C_10 
REMARK    4  A    between atoms: C_10  and  O_11 
REMARK    5  A    between atoms: C_13  and  C_14 
REMARK    6  A    between atoms: C_21  and  C_22 
REMARK       I    between atoms: C_22  and  N_23 
REMARK    7  A    between atoms: N_23  and  C_24 
ROOT
HETATM    1  C   UNL     1       5.345  25.645  52.378  1.00  0.00     0.070 C 
HETATM    2  C   UNL     1       5.267  26.705  53.449  1.00  0.00     0.037 C 
HETATM    3  N   UNL     1       4.751  27.936  53.037  1.00  0.00    -0.192 N 
HETATM    4  C   UNL     1       4.341  28.873  53.917  1.00  0.00     0.726 A 
HETATM    5  N   UNL     1       4.707  28.754  55.226  1.00  0.00    -0.083 N 
HETATM    6  N   UNL     1       4.124  29.694  55.996  1.00  0.00    -0.140 NA
HETATM    7  C   UNL     1       3.434  30.377  55.070  1.00  0.00     0.166 A 
HETATM    8  N   UNL     1       3.554  29.910  53.779  1.00  0.00    -0.046 NA
HETATM    9  C   UNL     1       5.553  27.679  55.740  1.00  0.00     0.202 C 
HETATM   10  C   UNL     1       5.639  26.523  54.745  1.00  0.00     0.062 C 
HETATM   11  H   UNL     1       4.345  27.966  52.103  1.00  0.00     0.184 HD
ENDROOT
BRANCH  10  12
HETATM   12  C   UNL     1       5.904  25.149  55.284  1.00  0.00     0.256 C 
HETATM   13  N   UNL     1       6.841  24.422  54.581  1.00  0.00    -0.323 N 
HETATM   14  H   UNL     1       7.180  24.789  53.703  1.00  0.00     0.169 HD
HETATM   15  O   UNL     1       5.348  24.794  56.316  1.00  0.00    -0.267 OA
BRANCH  13  16
HETATM   16  C   UNL     1       7.419  23.188  54.956  1.00  0.00     0.035 A 
HETATM   17  C   UNL     1       7.884  22.894  56.239  1.00  0.00     0.029 A 
HETATM   18  C   UNL     1       8.471  21.655  56.516  1.00  0.00     0.002 A 
HETATM   19  C   UNL     1       8.607  20.702  55.510  1.00  0.00     0.000 A 
HETATM   20  C   UNL     1       8.147  20.983  54.227  1.00  0.00     0.002 A 
HETATM   21  C   UNL     1       7.549  22.216  53.953  1.00  0.00     0.029 A 
ENDBRANCH  13  16
ENDBRANCH  10  12
BRANCH   9  22
HETATM   22  C   UNL     1       6.918  28.265  56.115  1.00  0.00    -0.028 A 
HETATM   23  C   UNL     1       7.233  28.481  57.469  1.00  0.00     0.011 A 
HETATM   24  C   UNL     1       8.469  29.017  57.837  1.00  0.00     0.019 A 
HETATM   25  C   UNL     1       9.401  29.348  56.856  1.00  0.00     0.011 A 
HETATM   26 BR   UNL     1      11.073  30.073  57.354  1.00  0.00    -0.051 Br
HETATM   27  C   UNL     1       9.105  29.156  55.510  1.00  0.00     0.019 A 
HETATM   28  C   UNL     1       7.867  28.625  55.140  1.00  0.00     0.011 A 
ENDBRANCH   9  22
BRANCH   7  29
HETATM   29  C   UNL     1       2.554  31.520  55.421  1.00  0.00     0.085 C 
BRANCH  29  30
HETATM   30  C   UNL     1       2.852  32.780  54.610  1.00  0.00     0.034 C 
BRANCH  30  31
HETATM   31  C   UNL     1       1.769  33.109  53.588  1.00  0.00     0.164 C 
BRANCH  31  32
HETATM   32  O   UNL     1       1.783  32.138  52.546  1.00  0.00    -0.401 OA
HETATM   33  H   UNL     1       1.232  31.391  52.833  1.00  0.00     0.209 HD
ENDBRANCH  31  32
ENDBRANCH  30  31
ENDBRANCH  29  30
ENDBRANCH   7  29
TORSDOF 7
ENDMDL
MODEL 5
REMARK VINA RESULT:      -8.5      3.787      6.000
REMARK  7 active torsions:
REMARK  status: ('A' for Active; 'I' for Inactive)
REMARK    1  A    between atoms: C_7  and  C_8 
REMARK    2  A    between atoms: C_8  and  C_9 
REMARK    3  A    between atoms: C_9  and  C_10 
REMARK    4  A    between atoms: C_10  and  O_11 
REMARK    5  A    between atoms: C_13  and  C_14 
REMARK    6  A    between atoms: C_21  and  C_22 
REMARK       I    between atoms: C_22  and  N_23 
REMARK    7  A    between atoms: N_23  and  C_24 
ROOT
HETATM    1  C   UNL     1      10.001  29.812  55.906  1.00  0.00     0.070 C 
HETATM    2  C   UNL     1       8.658  29.164  55.673  1.00  0.00     0.037 C 
HETATM    3  N   UNL     1       8.512  28.512  54.447  1.00  0.00    -0.192 N 
HETATM    4  C   UNL     1       7.507  27.644  54.211  1.00  0.00     0.726 A 
HETATM    5  N   UNL     1       6.441  27.621  55.064  1.00  0.00    -0.083 N 
HETATM    6  N   UNL     1       5.583  26.626  54.766  1.00  0.00    -0.140 NA
HETATM    7  C   UNL     1       6.183  26.098  53.688  1.00  0.00     0.166 A 
HETATM    8  N   UNL     1       7.360  26.706  53.309  1.00  0.00    -0.046 NA
HETATM    9  C   UNL     1       6.301  28.511  56.215  1.00  0.00     0.202 C 
HETATM   10  C   UNL     1       7.634  29.167  56.569  1.00  0.00     0.062 C 
HETATM   11  H   UNL     1       9.357  28.407  53.888  1.00  0.00     0.184 HD
ENDROOT
BRANCH  10  12
HETATM   12  C   UNL     1       7.856  29.586  57.991  1.00  0.00     0.256 C 
HETATM   13  N   UNL     1       7.603  30.915  58.250  1.00  0.00    -0.323 N 
HETATM   14  H   UNL     1       7.421  31.535  57.473  1.00  0.00     0.169 HD
HETATM   15  O   UNL     1       8.170  28.740  58.822  1.00  0.00    -0.267 OA
BRANCH  13  16
HETATM   16  C   UNL     1       7.549  31.543  59.516  1.00  0.00     0.035 A 
HETATM   17  C   UNL     1       6.389  32.075  60.081  1.00  0.00     0.029 A 
HETATM   18  C   UNL     1       6.431  32.706  61.329  1.00  0.00     0.002 A 
HETATM   19  C   UNL     1       7.636  32.818  62.018  1.00  0.00     0.000 A 
HETATM   20  C   UNL     1       8.799  32.291  61.466  1.00  0.00     0.002 A 
HETATM   21  C   UNL     1       8.754  31.650  60.224  1.00  0.00     0.029 A 
ENDBRANCH  13  16
ENDBRANCH  10  12
BRANCH   9  22
HETATM   22  C   UNL     1       5.183  29.518  55.924  1.00  0.00    -0.028 A 
HETATM   23  C   UNL     1       4.354  29.958  56.972  1.00  0.00     0.011 A 
HETATM   24  C   UNL     1       3.326  30.872  56.732  1.00  0.00     0.019 A 
HETATM   25  C   UNL     1       3.111  31.352  55.442  1.00  0.00     0.011 A 
HETATM   26 BR   UNL     1       1.720  32.590  55.119  1.00  0.00    -0.051 Br
HETATM   27  C   UNL     1       3.910  30.920  54.388  1.00  0.00     0.019 A 
HETATM   28  C   UNL     1       4.936  30.001  54.625  1.00  0.00     0.011 A 
ENDBRANCH   9  22
BRANCH   7  29
HETATM   29  C   UNL     1       5.647  24.904  52.988  1.00  0.00     0.085 C 
BRANCH  29  30
HETATM   30  C   UNL     1       6.664  23.771  52.867  1.00  0.00     0.034 C 
BRANCH  30  31
HETATM   31  C   UNL     1       7.182  23.280  54.216  1.00  0.00     0.164 C 
BRANCH  31  32
HETATM   32  O   UNL     1       8.429  23.905  54.506  1.00  0.00    -0.401 OA
HETATM   33  H   UNL     1       8.592  23.807  55.459  1.00  0.00     0.209 HD
ENDBRANCH  31  32
ENDBRANCH  30  31
ENDBRANCH  29  30
ENDBRANCH   7  29
TORSDOF 7
ENDMDL
MODEL 6
REMARK VINA RESULT:      -8.5      4.883      7.518
REMARK  7 active torsions:
REMARK  status: ('A' for Active; 'I' for Inactive)
REMARK    1  A    between atoms: C_7  and  C_8 
REMARK    2  A    between atoms: C_8  and  C_9 
REMARK    3  A    between atoms: C_9  and  C_10 
REMARK    4  A    between atoms: C_10  and  O_11 
REMARK    5  A    between atoms: C_13  and  C_14 
REMARK    6  A    between atoms: C_21  and  C_22 
REMARK       I    between atoms: C_22  and  N_23 
REMARK    7  A    between atoms: N_23  and  C_24 
ROOT
HETATM    1  C   UNL     1      10.541  30.898  57.649  1.00  0.00     0.070 C 
HETATM    2  C   UNL     1       9.242  30.132  57.599  1.00  0.00     0.037 C 
HETATM    3  N   UNL     1       9.261  28.967  56.829  1.00  0.00    -0.192 N 
HETATM    4  C   UNL     1       8.296  28.029  56.922  1.00  0.00     0.726 A 
HETATM    5  N   UNL     1       7.126  28.345  57.549  1.00  0.00    -0.083 N 
HETATM    6  N   UNL     1       6.316  27.275  57.667  1.00  0.00    -0.140 NA
HETATM    7  C   UNL     1       7.055  26.339  57.052  1.00  0.00     0.166 A 
HETATM    8  N   UNL     1       8.272  26.768  56.570  1.00  0.00    -0.046 NA
HETATM    9  C   UNL     1       6.833  29.664  58.108  1.00  0.00     0.202 C 
HETATM   10  C   UNL     1       8.107  30.494  58.258  1.00  0.00     0.062 C 
HETATM   11  H   UNL     1      10.173  28.665  56.491  1.00  0.00     0.184 HD
ENDROOT
BRANCH  10  12
HETATM   12  C   UNL     1       8.136  31.551  59.320  1.00  0.00     0.256 C 
HETATM   13  N   UNL     1       7.288  31.328  60.383  1.00  0.00    -0.323 N 
HETATM   14  H   UNL     1       6.626  30.567  60.324  1.00  0.00     0.169 HD
HETATM   15  O   UNL     1       8.931  32.479  59.219  1.00  0.00    -0.267 OA
BRANCH  13  16
HETATM   16  C   UNL     1       7.238  32.047  61.599  1.00  0.00     0.035 A 
HETATM   17  C   UNL     1       8.220  31.990  62.589  1.00  0.00     0.029 A 
HETATM   18  C   UNL     1       8.075  32.714  63.777  1.00  0.00     0.002 A 
HETATM   19  C   UNL     1       6.941  33.494  63.990  1.00  0.00     0.000 A 
HETATM   20  C   UNL     1       5.955  33.559  63.011  1.00  0.00     0.002 A 
HETATM   21  C   UNL     1       6.105  32.845  61.818  1.00  0.00     0.029 A 
ENDBRANCH  13  16
ENDBRANCH  10  12
BRANCH   9  22
HETATM   22  C   UNL     1       5.763  30.337  57.241  1.00  0.00    -0.028 A 
HETATM   23  C   UNL     1       4.715  31.044  57.856  1.00  0.00     0.011 A 
HETATM   24  C   UNL     1       3.726  31.664  57.089  1.00  0.00     0.019 A 
HETATM   25  C   UNL     1       3.771  31.579  55.699  1.00  0.00     0.011 A 
HETATM   26 BR   UNL     1       2.433  32.417  54.662  1.00  0.00    -0.051 Br
HETATM   27  C   UNL     1       4.792  30.872  55.070  1.00  0.00     0.019 A 
HETATM   28  C   UNL     1       5.778  30.247  55.836  1.00  0.00     0.011 A 
ENDBRANCH   9  22
BRANCH   7  29
HETATM   29  C   UNL     1       6.618  24.924  56.953  1.00  0.00     0.085 C 
BRANCH  29  30
HETATM   30  C   UNL     1       7.298  24.162  55.816  1.00  0.00     0.034 C 
BRANCH  30  31
HETATM   31  C   UNL     1       8.388  23.210  56.297  1.00  0.00     0.164 C 
BRANCH  31  32
HETATM   32  O   UNL     1       8.300  23.056  57.710  1.00  0.00    -0.401 OA
HETATM   33  H   UNL     1       8.632  22.169  57.930  1.00  0.00     0.209 HD
ENDBRANCH  31  32
ENDBRANCH  30  31
ENDBRANCH  29  30
ENDBRANCH   7  29
TORSDOF 7
ENDMDL
MODEL 7
REMARK VINA RESULT:      -8.5      3.695      7.053
REMARK  7 active torsions:
REMARK  status: ('A' for Active; 'I' for Inactive)
REMARK    1  A    between atoms: C_7  and  C_8 
REMARK    2  A    between atoms: C_8  and  C_9 
REMARK    3  A    between atoms: C_9  and  C_10 
REMARK    4  A    between atoms: C_10  and  O_11 
REMARK    5  A    between atoms: C_13  and  C_14 
REMARK    6  A    between atoms: C_21  and  C_22 
REMARK       I    between atoms: C_22  and  N_23 
REMARK    7  A    between atoms: N_23  and  C_24 
ROOT
HETATM    1  C   UNL     1       4.651  24.864  57.438  1.00  0.00     0.070 C 
HETATM    2  C   UNL     1       5.029  26.053  56.589  1.00  0.00     0.037 C 
HETATM    3  N   UNL     1       4.282  27.212  56.814  1.00  0.00    -0.192 N 
HETATM    4  C   UNL     1       4.680  28.420  56.366  1.00  0.00     0.726 A 
HETATM    5  N   UNL     1       5.665  28.483  55.424  1.00  0.00    -0.083 N 
HETATM    6  N   UNL     1       6.034  29.754  55.169  1.00  0.00    -0.140 NA
HETATM    7  C   UNL     1       5.197  30.420  55.980  1.00  0.00     0.166 A 
HETATM    8  N   UNL     1       4.341  29.634  56.720  1.00  0.00    -0.046 NA
HETATM    9  C   UNL     1       6.305  27.308  54.836  1.00  0.00     0.202 C 
HETATM   10  C   UNL     1       6.032  26.057  55.670  1.00  0.00     0.062 C 
HETATM   11  H   UNL     1       3.656  27.196  57.617  1.00  0.00     0.184 HD
ENDROOT
BRANCH  10  12
HETATM   12  C   UNL     1       7.036  24.946  55.620  1.00  0.00     0.256 C 
HETATM   13  N   UNL     1       6.604  23.802  54.984  1.00  0.00    -0.323 N 
HETATM   14  H   UNL     1       5.631  23.733  54.717  1.00  0.00     0.169 HD
HETATM   15  O   UNL     1       8.161  25.135  56.068  1.00  0.00    -0.267 OA
BRANCH  13  16
HETATM   16  C   UNL     1       7.383  22.677  54.628  1.00  0.00     0.035 A 
HETATM   17  C   UNL     1       7.887  22.441  53.348  1.00  0.00     0.029 A 
HETATM   18  C   UNL     1       8.625  21.285  53.076  1.00  0.00     0.002 A 
HETATM   19  C   UNL     1       8.858  20.349  54.081  1.00  0.00     0.000 A 
HETATM   20  C   UNL     1       8.362  20.573  55.361  1.00  0.00     0.002 A 
HETATM   21  C   UNL     1       7.634  21.735  55.635  1.00  0.00     0.029 A 
ENDBRANCH  13  16
ENDBRANCH  10  12
BRANCH   9  22
HETATM   22  C   UNL     1       5.853  27.181  53.377  1.00  0.00    -0.028 A 
HETATM   23  C   UNL     1       4.817  28.001  52.896  1.00  0.00     0.011 A 
HETATM   24  C   UNL     1       4.386  27.903  51.572  1.00  0.00     0.019 A 
HETATM   25  C   UNL     1       4.980  26.980  50.715  1.00  0.00     0.011 A 
HETATM   26 BR   UNL     1       4.396  26.847  48.924  1.00  0.00    -0.051 Br
HETATM   27  C   UNL     1       5.998  26.148  51.174  1.00  0.00     0.019 A 
HETATM   28  C   UNL     1       6.427  26.241  52.500  1.00  0.00     0.011 A 
ENDBRANCH   9  22
BRANCH   7  29
HETATM   29  C   UNL     1       5.232  31.897  56.114  1.00  0.00     0.085 C 
BRANCH  29  30
HETATM   30  C   UNL     1       5.337  32.367  57.564  1.00  0.00     0.034 C 
BRANCH  30  31
HETATM   31  C   UNL     1       4.031  32.937  58.108  1.00  0.00     0.164 C 
BRANCH  31  32
HETATM   32  O   UNL     1       3.204  31.877  58.577  1.00  0.00    -0.401 OA
HETATM   33  H   UNL     1       2.958  32.080  59.495  1.00  0.00     0.209 HD
ENDBRANCH  31  32
ENDBRANCH  30  31
ENDBRANCH  29  30
ENDBRANCH   7  29
TORSDOF 7
ENDMDL
MODEL 8
REMARK VINA RESULT:      -8.2      4.226      6.818
REMARK  7 active torsions:
REMARK  status: ('A' for Active; 'I' for Inactive)
REMARK    1  A    between atoms: C_7  and  C_8 
REMARK    2  A    between atoms: C_8  and  C_9 
REMARK    3  A    between atoms: C_9  and  C_10 
REMARK    4  A    between atoms: C_10  and  O_11 
REMARK    5  A    between atoms: C_13  and  C_14 
REMARK    6  A    between atoms: C_21  and  C_22 
REMARK       I    between atoms: C_22  and  N_23 
REMARK    7  A    between atoms: N_23  and  C_24 
ROOT
HETATM    1  C   UNL     1      10.459  30.259  57.508  1.00  0.00     0.070 C 
HETATM    2  C   UNL     1       9.069  29.707  57.309  1.00  0.00     0.037 C 
HETATM    3  N   UNL     1       8.892  28.925  56.165  1.00  0.00    -0.192 N 
HETATM    4  C   UNL     1       7.818  28.125  56.000  1.00  0.00     0.726 A 
HETATM    5  N   UNL     1       6.736  28.300  56.813  1.00  0.00    -0.083 N 
HETATM    6  N   UNL     1       5.798  27.354  56.607  1.00  0.00    -0.140 NA
HETATM    7  C   UNL     1       6.373  26.649  55.620  1.00  0.00     0.166 A 
HETATM    8  N   UNL     1       7.608  27.101  55.212  1.00  0.00    -0.046 NA
HETATM    9  C   UNL     1       6.650  29.332  57.844  1.00  0.00     0.202 C 
HETATM   10  C   UNL     1       8.029  29.908  58.163  1.00  0.00     0.062 C 
HETATM   11  H   UNL     1       9.737  28.680  55.651  1.00  0.00     0.184 HD
ENDROOT
BRANCH  10  12
HETATM   12  C   UNL     1       8.254  30.475  59.531  1.00  0.00     0.256 C 
HETATM   13  N   UNL     1       7.519  31.605  59.819  1.00  0.00    -0.323 N 
HETATM   14  H   UNL     1       6.994  32.044  59.076  1.00  0.00     0.169 HD
HETATM   15  O   UNL     1       8.997  29.886  60.309  1.00  0.00    -0.267 OA
BRANCH  13  16
HETATM   16  C   UNL     1       7.389  32.241  61.075  1.00  0.00     0.035 A 
HETATM   17  C   UNL     1       8.273  32.066  62.141  1.00  0.00     0.029 A 
HETATM   18  C   UNL     1       8.051  32.714  63.361  1.00  0.00     0.002 A 
HETATM   19  C   UNL     1       6.939  33.535  63.528  1.00  0.00     0.000 A 
HETATM   20  C   UNL     1       6.051  33.718  62.472  1.00  0.00     0.002 A 
HETATM   21  C   UNL     1       6.279  33.080  61.250  1.00  0.00     0.029 A 
ENDBRANCH  13  16
ENDBRANCH  10  12
BRANCH   9  22
HETATM   22  C   UNL     1       5.634  30.389  57.398  1.00  0.00    -0.028 A 
HETATM   23  C   UNL     1       5.689  30.896  56.088  1.00  0.00     0.011 A 
HETATM   24  C   UNL     1       4.776  31.862  55.658  1.00  0.00     0.019 A 
HETATM   25  C   UNL     1       3.803  32.336  56.535  1.00  0.00     0.011 A 
HETATM   26 BR   UNL     1       2.569  33.642  55.953  1.00  0.00    -0.051 Br
HETATM   27  C   UNL     1       3.739  31.858  57.840  1.00  0.00     0.019 A 
HETATM   28  C   UNL     1       4.655  30.896  58.273  1.00  0.00     0.011 A 
ENDBRANCH   9  22
BRANCH   7  29
HETATM   29  C   UNL     1       5.747  25.430  55.050  1.00  0.00     0.085 C 
BRANCH  29  30
HETATM   30  C   UNL     1       6.232  25.110  53.637  1.00  0.00     0.034 C 
BRANCH  30  31
HETATM   31  C   UNL     1       5.094  24.912  52.641  1.00  0.00     0.164 C 
BRANCH  31  32
HETATM   32  O   UNL     1       3.854  25.247  53.257  1.00  0.00    -0.401 OA
HETATM   33  H   UNL     1       3.901  26.181  53.522  1.00  0.00     0.209 HD
ENDBRANCH  31  32
ENDBRANCH  30  31
ENDBRANCH  29  30
ENDBRANCH   7  29
TORSDOF 7
ENDMDL
MODEL 9
REMARK VINA RESULT:      -8.0      3.620      7.823
REMARK  7 active torsions:
REMARK  status: ('A' for Active; 'I' for Inactive)
REMARK    1  A    between atoms: C_7  and  C_8 
REMARK    2  A    between atoms: C_8  and  C_9 
REMARK    3  A    between atoms: C_9  and  C_10 
REMARK    4  A    between atoms: C_10  and  O_11 
REMARK    5  A    between atoms: C_13  and  C_14 
REMARK    6  A    between atoms: C_21  and  C_22 
REMARK       I    between atoms: C_22  and  N_23 
REMARK    7  A    between atoms: N_23  and  C_24 
ROOT
HETATM    1  C   UNL     1       4.218  27.592  53.194  1.00  0.00     0.070 C 
HETATM    2  C   UNL     1       4.585  28.219  54.516  1.00  0.00     0.037 C 
HETATM    3  N   UNL     1       4.113  29.518  54.716  1.00  0.00    -0.192 N 
HETATM    4  C   UNL     1       4.094  30.096  55.935  1.00  0.00     0.726 A 
HETATM    5  N   UNL     1       4.820  29.531  56.943  1.00  0.00    -0.083 N 
HETATM    6  N   UNL     1       4.605  30.150  58.121  1.00  0.00    -0.140 NA
HETATM    7  C   UNL     1       3.751  31.113  57.741  1.00  0.00     0.166 A 
HETATM    8  N   UNL     1       3.425  31.119  56.403  1.00  0.00    -0.046 NA
HETATM    9  C   UNL     1       5.654  28.342  56.779  1.00  0.00     0.202 C 
HETATM   10  C   UNL     1       5.306  27.600  55.490  1.00  0.00     0.062 C 
HETATM   11  H   UNL     1       3.452  29.869  54.025  1.00  0.00     0.184 HD
ENDROOT
BRANCH  10  12
HETATM   12  C   UNL     1       5.564  26.124  55.437  1.00  0.00     0.256 C 
HETATM   13  N   UNL     1       6.634  25.750  54.654  1.00  0.00    -0.323 N 
HETATM   14  H   UNL     1       7.081  26.450  54.078  1.00  0.00     0.169 HD
HETATM   15  O   UNL     1       4.879  25.372  56.122  1.00  0.00    -0.267 OA
BRANCH  13  16
HETATM   16  C   UNL     1       7.218  24.466  54.563  1.00  0.00     0.035 A 
HETATM   17  C   UNL     1       7.934  23.852  55.593  1.00  0.00     0.029 A 
HETATM   18  C   UNL     1       8.504  22.589  55.407  1.00  0.00     0.002 A 
HETATM   19  C   UNL     1       8.371  21.932  54.186  1.00  0.00     0.000 A 
HETATM   20  C   UNL     1       7.660  22.532  53.153  1.00  0.00     0.002 A 
HETATM   21  C   UNL     1       7.080  23.790  53.343  1.00  0.00     0.029 A 
ENDBRANCH  13  16
ENDBRANCH  10  12
BRANCH   9  22
HETATM   22  C   UNL     1       7.126  28.759  56.866  1.00  0.00    -0.028 A 
HETATM   23  C   UNL     1       7.708  28.996  58.124  1.00  0.00     0.011 A 
HETATM   24  C   UNL     1       9.046  29.380  58.231  1.00  0.00     0.019 A 
HETATM   25  C   UNL     1       9.816  29.536  57.080  1.00  0.00     0.011 A 
HETATM   26 BR   UNL     1      11.627  30.055  57.224  1.00  0.00    -0.051 Br
HETATM   27  C   UNL     1       9.257  29.320  55.824  1.00  0.00     0.019 A 
HETATM   28  C   UNL     1       7.917  28.942  55.716  1.00  0.00     0.011 A 
ENDBRANCH   9  22
BRANCH   7  29
HETATM   29  C   UNL     1       3.153  32.067  58.707  1.00  0.00     0.085 C 
BRANCH  29  30
HETATM   30  C   UNL     1       3.120  31.533  60.138  1.00  0.00     0.034 C 
BRANCH  30  31
HETATM   31  C   UNL     1       3.810  32.452  61.140  1.00  0.00     0.164 C 
BRANCH  31  32
HETATM   32  O   UNL     1       3.084  32.456  62.366  1.00  0.00    -0.401 OA
HETATM   33  H   UNL     1       3.654  32.857  63.043  1.00  0.00     0.209 HD
ENDBRANCH  31  32
ENDBRANCH  30  31
ENDBRANCH  29  30
ENDBRANCH   7  29
TORSDOF 7
ENDMDL
MODEL 10
REMARK VINA RESULT:      -8.0      4.514      7.120
REMARK  7 active torsions:
REMARK  status: ('A' for Active; 'I' for Inactive)
REMARK    1  A    between atoms: C_7  and  C_8 
REMARK    2  A    between atoms: C_8  and  C_9 
REMARK    3  A    between atoms: C_9  and  C_10 
REMARK    4  A    between atoms: C_10  and  O_11 
REMARK    5  A    between atoms: C_13  and  C_14 
REMARK    6  A    between atoms: C_21  and  C_22 
REMARK       I    between atoms: C_22  and  N_23 
REMARK    7  A    between atoms: N_23  and  C_24 
ROOT
HETATM    1  C   UNL     1       4.437  28.500  53.878  1.00  0.00     0.070 C 
HETATM    2  C   UNL     1       4.672  28.916  52.446  1.00  0.00     0.037 C 
HETATM    3  N   UNL     1       4.620  30.291  52.205  1.00  0.00    -0.192 N 
HETATM    4  C   UNL     1       5.096  30.838  51.067  1.00  0.00     0.726 A 
HETATM    5  N   UNL     1       5.359  30.025  50.003  1.00  0.00    -0.083 N 
HETATM    6  N   UNL     1       5.938  30.698  48.990  1.00  0.00    -0.140 NA
HETATM    7  C   UNL     1       5.968  31.937  49.503  1.00  0.00     0.166 A 
HETATM    8  N   UNL     1       5.447  32.064  50.772  1.00  0.00    -0.046 NA
HETATM    9  C   UNL     1       5.124  28.582  50.005  1.00  0.00     0.202 C 
HETATM   10  C   UNL     1       4.940  28.055  51.427  1.00  0.00     0.062 C 
HETATM   11  H   UNL     1       4.574  30.892  53.026  1.00  0.00     0.184 HD
ENDROOT
BRANCH  10  12
HETATM   12  C   UNL     1       5.299  26.626  51.700  1.00  0.00     0.256 C 
HETATM   13  N   UNL     1       6.372  26.450  52.546  1.00  0.00    -0.323 N 
HETATM   14  H   UNL     1       6.915  27.258  52.816  1.00  0.00     0.169 HD
HETATM   15  O   UNL     1       4.603  25.734  51.228  1.00  0.00    -0.267 OA
BRANCH  13  16
HETATM   16  C   UNL     1       6.815  25.236  53.120  1.00  0.00     0.035 A 
HETATM   17  C   UNL     1       6.498  24.814  54.413  1.00  0.00     0.029 A 
HETATM   18  C   UNL     1       7.005  23.610  54.912  1.00  0.00     0.002 A 
HETATM   19  C   UNL     1       7.842  22.821  54.126  1.00  0.00     0.000 A 
HETATM   20  C   UNL     1       8.165  23.231  52.836  1.00  0.00     0.002 A 
HETATM   21  C   UNL     1       7.649  24.428  52.333  1.00  0.00     0.029 A 
ENDBRANCH  13  16
ENDBRANCH  10  12
BRANCH   9  22
HETATM   22  C   UNL     1       3.941  28.276  49.081  1.00  0.00    -0.028 A 
HETATM   23  C   UNL     1       2.659  28.750  49.412  1.00  0.00     0.011 A 
HETATM   24  C   UNL     1       1.564  28.483  48.589  1.00  0.00     0.019 A 
HETATM   25  C   UNL     1       1.736  27.733  47.428  1.00  0.00     0.011 A 
HETATM   26 BR   UNL     1       0.254  27.370  46.313  1.00  0.00    -0.051 Br
HETATM   27  C   UNL     1       2.993  27.241  47.087  1.00  0.00     0.019 A 
HETATM   28  C   UNL     1       4.088  27.503  47.913  1.00  0.00     0.011 A 
ENDBRANCH   9  22
BRANCH   7  29
HETATM   29  C   UNL     1       6.576  33.080  48.778  1.00  0.00     0.085 C 
BRANCH  29  30
HETATM   30  C   UNL     1       6.105  33.191  47.328  1.00  0.00     0.034 C 
BRANCH  30  31
HETATM   31  C   UNL     1       7.171  33.750  46.390  1.00  0.00     0.164 C 
BRANCH  31  32
HETATM   32  O   UNL     1       7.048  33.140  45.109  1.00  0.00    -0.401 OA
HETATM   33  H   UNL     1       6.287  33.547  44.662  1.00  0.00     0.209 HD
ENDBRANCH  31  32
ENDBRANCH  30  31
ENDBRANCH  29  30
ENDBRANCH   7  29
TORSDOF 7
ENDMDL
