MODEL 1
REMARK VINA RESULT:      -8.8      0.000      0.000
REMARK  7 active torsions:
REMARK  status: ('A' for Active; 'I' for Inactive)
REMARK    1  A    between atoms: O_1  and  C_2 
REMARK    2  A    between atoms: C_2  and  C_3 
REMARK    3  A    between atoms: C_3  and  C_4 
REMARK    4  A    between atoms: C_4  and  N_5 
REMARK    5  A    between atoms: C_4  and  C_21 
REMARK       I    between atoms: N_5  and  C_6 
REMARK       I    between atoms: C_6  and  N_8 
REMARK    6  A    between atoms: N_8  and  C_9 
REMARK    7  A    between atoms: C_12  and  C_15 
ROOT
HETATM    1  N   UNL     1       6.719  24.919  52.904  1.00  0.00    -0.334 N 
HETATM    2  C   UNL     1       5.550  25.321  52.287  1.00  0.00     0.321 C 
HETATM    3  O   UNL     1       4.454  25.251  52.824  1.00  0.00    -0.247 OA
HETATM    4  N   UNL     1       5.828  25.864  51.050  1.00  0.00    -0.309 N 
HETATM    5  H   UNL     1       7.411  24.533  52.280  1.00  0.00     0.165 HD
HETATM    6  H   UNL     1       6.782  26.168  50.927  1.00  0.00     0.170 HD
ENDROOT
BRANCH   1   7
HETATM    7  C   UNL     1       6.702  24.387  54.261  1.00  0.00     0.121 C 
BRANCH   7   8
HETATM    8  C   UNL     1       7.444  25.332  55.217  1.00  0.00     0.056 C 
BRANCH   8   9
HETATM    9  C   UNL     1       6.491  26.293  55.918  1.00  0.00     0.166 C 
BRANCH   9  10
HETATM   10  O   UNL     1       5.154  25.895  55.638  1.00  0.00    -0.401 OA
HETATM   11  H   UNL     1       4.702  25.794  56.494  1.00  0.00     0.209 HD
ENDBRANCH   9  10
ENDBRANCH   8   9
ENDBRANCH   7   8
BRANCH   7  12
HETATM   12  C   UNL     1       7.285  22.984  54.304  1.00  0.00    -0.032 A 
HETATM   13  C   UNL     1       7.522  22.366  55.544  1.00  0.00     0.009 A 
HETATM   14  C   UNL     1       8.080  21.086  55.616  1.00  0.00     0.004 A 
HETATM   15  C   UNL     1       8.397  20.401  54.446  1.00  0.00     0.042 A 
HETATM   16  C   UNL     1       8.153  21.001  53.217  1.00  0.00     0.117 A 
HETATM   17  F   UNL     1       8.453  20.342  52.090  1.00  0.00    -0.206 F 
HETATM   18  C   UNL     1       7.605  22.278  53.134  1.00  0.00     0.051 A 
ENDBRANCH   7  12
ENDBRANCH   1   7
BRANCH   4  19
HETATM   19  C   UNL     1       4.889  26.341  50.116  1.00  0.00     0.036 A 
HETATM   20  C   UNL     1       4.675  27.721  50.054  1.00  0.00     0.030 A 
HETATM   21  C   UNL     1       3.732  28.258  49.167  1.00  0.00     0.014 A 
HETATM   22  C   UNL     1       2.999  27.431  48.305  1.00  0.00    -0.023 A 
HETATM   23  C   UNL     1       3.252  26.052  48.348  1.00  0.00     0.014 A 
HETATM   24  C   UNL     1       4.184  25.513  49.246  1.00  0.00     0.030 A 
BRANCH  22  25
HETATM   25  C   UNL     1       2.007  28.001  47.402  1.00  0.00     0.010 A 
HETATM   26  C   UNL     1       0.813  27.452  46.870  1.00  0.00     0.152 A 
HETATM   27  N   UNL     1       0.171  28.287  46.047  1.00  0.00    -0.187 NA
HETATM   28  N   UNL     1       0.952  29.378  46.041  1.00  0.00    -0.289 N 
HETATM   29  H   UNL     1       0.670  30.168  45.472  1.00  0.00     0.188 HD
HETATM   30  C   UNL     1       2.059  29.257  46.831  1.00  0.00     0.123 A 
ENDBRANCH  22  25
ENDBRANCH   4  19
TORSDOF 7
ENDMDL
MODEL 2
REMARK VINA RESULT:      -8.7      0.878      1.286
REMARK  7 active torsions:
REMARK  status: ('A' for Active; 'I' for Inactive)
REMARK    1  A    between atoms: O_1  and  C_2 
REMARK    2  A    between atoms: C_2  and  C_3 
REMARK    3  A    between atoms: C_3  and  C_4 
REMARK    4  A    between atoms: C_4  and  N_5 
REMARK    5  A    between atoms: C_4  and  C_21 
REMARK       I    between atoms: N_5  and  C_6 
REMARK       I    between atoms: C_6  and  N_8 
REMARK    6  A    between atoms: N_8  and  C_9 
REMARK    7  A    between atoms: C_12  and  C_15 
ROOT
HETATM    1  N   UNL     1       6.734  24.933  52.886  1.00  0.00    -0.334 N 
HETATM    2  C   UNL     1       5.560  25.310  52.265  1.00  0.00     0.321 C 
HETATM    3  O   UNL     1       4.459  25.181  52.782  1.00  0.00    -0.247 OA
HETATM    4  N   UNL     1       5.835  25.905  51.051  1.00  0.00    -0.309 N 
HETATM    5  H   UNL     1       7.449  24.594  52.261  1.00  0.00     0.165 HD
HETATM    6  H   UNL     1       6.778  26.248  50.953  1.00  0.00     0.170 HD
ENDROOT
BRANCH   1   7
HETATM    7  C   UNL     1       6.718  24.356  54.225  1.00  0.00     0.121 C 
BRANCH   7   8
HETATM    8  C   UNL     1       7.435  25.282  55.218  1.00  0.00     0.056 C 
BRANCH   8   9
HETATM    9  C   UNL     1       6.449  26.032  56.106  1.00  0.00     0.166 C 
BRANCH   9  10
HETATM   10  O   UNL     1       5.132  25.810  55.615  1.00  0.00    -0.401 OA
HETATM   11  H   UNL     1       5.197  25.741  54.647  1.00  0.00     0.209 HD
ENDBRANCH   9  10
ENDBRANCH   8   9
ENDBRANCH   7   8
BRANCH   7  12
HETATM   12  C   UNL     1       7.328  22.963  54.225  1.00  0.00    -0.032 A 
HETATM   13  C   UNL     1       7.747  22.386  53.013  1.00  0.00     0.009 A 
HETATM   14  C   UNL     1       8.289  21.098  52.979  1.00  0.00     0.004 A 
HETATM   15  C   UNL     1       8.431  20.373  54.159  1.00  0.00     0.042 A 
HETATM   16  C   UNL     1       8.031  20.943  55.361  1.00  0.00     0.117 A 
HETATM   17  F   UNL     1       8.172  20.250  56.499  1.00  0.00    -0.206 F 
HETATM   18  C   UNL     1       7.483  22.222  55.407  1.00  0.00     0.051 A 
ENDBRANCH   7  12
ENDBRANCH   1   7
BRANCH   4  19
HETATM   19  C   UNL     1       4.891  26.377  50.119  1.00  0.00     0.036 A 
HETATM   20  C   UNL     1       4.636  27.751  50.089  1.00  0.00     0.030 A 
HETATM   21  C   UNL     1       3.687  28.281  49.204  1.00  0.00     0.014 A 
HETATM   22  C   UNL     1       2.988  27.454  48.314  1.00  0.00    -0.023 A 
HETATM   23  C   UNL     1       3.283  26.083  48.326  1.00  0.00     0.014 A 
HETATM   24  C   UNL     1       4.221  25.550  49.220  1.00  0.00     0.030 A 
BRANCH  22  25
HETATM   25  C   UNL     1       1.989  28.017  47.414  1.00  0.00     0.010 A 
HETATM   26  C   UNL     1       0.784  27.469  46.907  1.00  0.00     0.152 A 
HETATM   27  N   UNL     1       0.138  28.295  46.079  1.00  0.00    -0.187 NA
HETATM   28  N   UNL     1       0.927  29.379  46.044  1.00  0.00    -0.289 N 
HETATM   29  H   UNL     1       0.644  30.162  45.465  1.00  0.00     0.188 HD
HETATM   30  C   UNL     1       2.043  29.263  46.822  1.00  0.00     0.123 A 
ENDBRANCH  22  25
ENDBRANCH   4  19
TORSDOF 7
ENDMDL
MODEL 3
REMARK VINA RESULT:      -8.6      7.317     10.233
REMARK  7 active torsions:
REMARK  status: ('A' for Active; 'I' for Inactive)
REMARK    1  A    between atoms: O_1  and  C_2 
REMARK    2  A    between atoms: C_2  and  C_3 
REMARK    3  A    between atoms: C_3  and  C_4 
REMARK    4  A    between atoms: C_4  and  N_5 
REMARK    5  A    between atoms: C_4  and  C_21 
REMARK       I    between atoms: N_5  and  C_6 
REMARK       I    between atoms: C_6  and  N_8 
REMARK    6  A    between atoms: N_8  and  C_9 
REMARK    7  A    between atoms: C_12  and  C_15 
ROOT
HETATM    1  N   UNL     1       7.791  28.868  58.236  1.00  0.00    -0.334 N 
HETATM    2  C   UNL     1       8.068  27.957  57.235  1.00  0.00     0.321 C 
HETATM    3  O   UNL     1       8.678  28.250  56.216  1.00  0.00    -0.247 OA
HETATM    4  N   UNL     1       7.631  26.701  57.601  1.00  0.00    -0.309 N 
HETATM    5  H   UNL     1       6.918  28.711  58.716  1.00  0.00     0.165 HD
HETATM    6  H   UNL     1       7.488  26.576  58.592  1.00  0.00     0.170 HD
ENDROOT
BRANCH   1   7
HETATM    7  C   UNL     1       8.231  30.253  58.127  1.00  0.00     0.121 C 
BRANCH   7   8
HETATM    8  C   UNL     1       9.690  30.392  58.587  1.00  0.00     0.056 C 
BRANCH   8   9
HETATM    9  C   UNL     1      10.594  30.884  57.464  1.00  0.00     0.166 C 
BRANCH   9  10
HETATM   10  O   UNL     1      11.294  29.771  56.921  1.00  0.00    -0.401 OA
HETATM   11  H   UNL     1      10.626  29.113  56.661  1.00  0.00     0.209 HD
ENDBRANCH   9  10
ENDBRANCH   8   9
ENDBRANCH   7   8
BRANCH   7  12
HETATM   12  C   UNL     1       7.312  31.179  58.908  1.00  0.00    -0.032 A 
HETATM   13  C   UNL     1       6.037  31.486  58.399  1.00  0.00     0.009 A 
HETATM   14  C   UNL     1       5.180  32.353  59.081  1.00  0.00     0.004 A 
HETATM   15  C   UNL     1       5.580  32.917  60.290  1.00  0.00     0.042 A 
HETATM   16  C   UNL     1       6.833  32.608  60.804  1.00  0.00     0.117 A 
HETATM   17  F   UNL     1       7.219  33.144  61.969  1.00  0.00    -0.206 F 
HETATM   18  C   UNL     1       7.699  31.751  60.129  1.00  0.00     0.051 A 
ENDBRANCH   7  12
ENDBRANCH   1   7
BRANCH   4  19
HETATM   19  C   UNL     1       7.700  25.531  56.821  1.00  0.00     0.036 A 
HETATM   20  C   UNL     1       8.696  24.600  57.130  1.00  0.00     0.030 A 
HETATM   21  C   UNL     1       8.837  23.429  56.373  1.00  0.00     0.014 A 
HETATM   22  C   UNL     1       7.973  23.150  55.306  1.00  0.00    -0.023 A 
HETATM   23  C   UNL     1       6.953  24.073  55.031  1.00  0.00     0.014 A 
HETATM   24  C   UNL     1       6.820  25.252  55.778  1.00  0.00     0.030 A 
BRANCH  22  25
HETATM   25  C   UNL     1       8.145  21.939  54.514  1.00  0.00     0.010 A 
HETATM   26  C   UNL     1       8.655  20.664  54.867  1.00  0.00     0.152 A 
HETATM   27  N   UNL     1       8.674  19.803  53.845  1.00  0.00    -0.187 NA
HETATM   28  N   UNL     1       8.179  20.521  52.826  1.00  0.00    -0.289 N 
HETATM   29  H   UNL     1       8.096  20.075  51.919  1.00  0.00     0.188 HD
HETATM   30  C   UNL     1       7.849  21.800  53.172  1.00  0.00     0.123 A 
ENDBRANCH  22  25
ENDBRANCH   4  19
TORSDOF 7
ENDMDL
MODEL 4
REMARK VINA RESULT:      -8.0      3.032      9.187
REMARK  7 active torsions:
REMARK  status: ('A' for Active; 'I' for Inactive)
REMARK    1  A    between atoms: O_1  and  C_2 
REMARK    2  A    between atoms: C_2  and  C_3 
REMARK    3  A    between atoms: C_3  and  C_4 
REMARK    4  A    between atoms: C_4  and  N_5 
REMARK    5  A    between atoms: C_4  and  C_21 
REMARK       I    between atoms: N_5  and  C_6 
REMARK       I    between atoms: C_6  and  N_8 
REMARK    6  A    between atoms: N_8  and  C_9 
REMARK    7  A    between atoms: C_12  and  C_15 
ROOT
HETATM    1  N   UNL     1       3.883  27.671  51.345  1.00  0.00    -0.334 N 
HETATM    2  C   UNL     1       4.951  26.872  51.702  1.00  0.00     0.321 C 
HETATM    3  O   UNL     1       6.002  26.845  51.077  1.00  0.00    -0.247 OA
HETATM    4  N   UNL     1       4.674  26.204  52.876  1.00  0.00    -0.309 N 
HETATM    5  H   UNL     1       2.977  27.276  51.549  1.00  0.00     0.165 HD
HETATM    6  H   UNL     1       3.936  26.612  53.429  1.00  0.00     0.170 HD
ENDROOT
BRANCH   1   7
HETATM    7  C   UNL     1       3.961  28.547  50.183  1.00  0.00     0.121 C 
BRANCH   7   8
HETATM    8  C   UNL     1       3.582  29.985  50.566  1.00  0.00     0.056 C 
BRANCH   8   9
HETATM    9  C   UNL     1       4.810  30.827  50.892  1.00  0.00     0.166 C 
BRANCH   9  10
HETATM   10  O   UNL     1       5.932  29.964  51.025  1.00  0.00    -0.401 OA
HETATM   11  H   UNL     1       5.616  29.057  50.868  1.00  0.00     0.209 HD
ENDBRANCH   9  10
ENDBRANCH   8   9
ENDBRANCH   7   8
BRANCH   7  12
HETATM   12  C   UNL     1       3.090  28.027  49.049  1.00  0.00    -0.032 A 
HETATM   13  C   UNL     1       1.936  28.737  48.676  1.00  0.00     0.009 A 
HETATM   14  C   UNL     1       1.103  28.272  47.655  1.00  0.00     0.004 A 
HETATM   15  C   UNL     1       1.420  27.093  46.984  1.00  0.00     0.042 A 
HETATM   16  C   UNL     1       2.566  26.394  47.340  1.00  0.00     0.117 A 
HETATM   17  F   UNL     1       2.876  25.263  46.692  1.00  0.00    -0.206 F 
HETATM   18  C   UNL     1       3.399  26.845  48.360  1.00  0.00     0.051 A 
ENDBRANCH   7  12
ENDBRANCH   1   7
BRANCH   4  19
HETATM   19  C   UNL     1       5.505  25.270  53.523  1.00  0.00     0.036 A 
HETATM   20  C   UNL     1       6.149  24.314  52.732  1.00  0.00     0.030 A 
HETATM   21  C   UNL     1       6.967  23.338  53.318  1.00  0.00     0.014 A 
HETATM   22  C   UNL     1       7.178  23.308  54.703  1.00  0.00    -0.023 A 
HETATM   23  C   UNL     1       6.558  24.297  55.481  1.00  0.00     0.014 A 
HETATM   24  C   UNL     1       5.728  25.265  54.898  1.00  0.00     0.030 A 
BRANCH  22  25
HETATM   25  C   UNL     1       8.014  22.275  55.300  1.00  0.00     0.010 A 
HETATM   26  C   UNL     1       8.939  21.375  54.713  1.00  0.00     0.152 A 
HETATM   27  N   UNL     1       9.504  20.549  55.598  1.00  0.00    -0.187 NA
HETATM   28  N   UNL     1       8.943  20.909  56.762  1.00  0.00    -0.289 N 
HETATM   29  H   UNL     1       9.215  20.412  57.602  1.00  0.00     0.188 HD
HETATM   30  C   UNL     1       8.047  21.933  56.638  1.00  0.00     0.123 A 
ENDBRANCH  22  25
ENDBRANCH   4  19
TORSDOF 7
ENDMDL
MODEL 5
REMARK VINA RESULT:      -7.9      7.703     10.776
REMARK  7 active torsions:
REMARK  status: ('A' for Active; 'I' for Inactive)
REMARK    1  A    between atoms: O_1  and  C_2 
REMARK    2  A    between atoms: C_2  and  C_3 
REMARK    3  A    between atoms: C_3  and  C_4 
REMARK    4  A    between atoms: C_4  and  N_5 
REMARK    5  A    between atoms: C_4  and  C_21 
REMARK       I    between atoms: N_5  and  C_6 
REMARK       I    between atoms: C_6  and  N_8 
REMARK    6  A    between atoms: N_8  and  C_9 
REMARK    7  A    between atoms: C_12  and  C_15 
ROOT
HETATM    1  N   UNL     1       7.596  30.877  60.532  1.00  0.00    -0.334 N 
HETATM    2  C   UNL     1       7.698  30.703  59.166  1.00  0.00     0.321 C 
HETATM    3  O   UNL     1       8.260  31.503  58.431  1.00  0.00    -0.247 OA
HETATM    4  N   UNL     1       7.157  29.488  58.800  1.00  0.00    -0.309 N 
HETATM    5  H   UNL     1       6.749  30.511  60.939  1.00  0.00     0.165 HD
HETATM    6  H   UNL     1       7.075  28.819  59.550  1.00  0.00     0.170 HD
ENDROOT
BRANCH   1   7
HETATM    7  C   UNL     1       8.173  32.048  61.181  1.00  0.00     0.121 C 
BRANCH   7   8
HETATM    8  C   UNL     1       9.573  31.726  61.724  1.00  0.00     0.056 C 
BRANCH   8   9
HETATM    9  C   UNL     1       9.849  30.228  61.727  1.00  0.00     0.166 C 
BRANCH   9  10
HETATM   10  O   UNL     1       8.950  29.600  62.632  1.00  0.00    -0.401 OA
HETATM   11  H   UNL     1       8.929  28.654  62.403  1.00  0.00     0.209 HD
ENDBRANCH   9  10
ENDBRANCH   8   9
ENDBRANCH   7   8
BRANCH   7  12
HETATM   12  C   UNL     1       7.258  32.569  62.278  1.00  0.00    -0.032 A 
HETATM   13  C   UNL     1       5.904  32.820  61.994  1.00  0.00     0.009 A 
HETATM   14  C   UNL     1       5.044  33.322  62.975  1.00  0.00     0.004 A 
HETATM   15  C   UNL     1       5.525  33.569  64.259  1.00  0.00     0.042 A 
HETATM   16  C   UNL     1       6.859  33.311  64.549  1.00  0.00     0.117 A 
HETATM   17  F   UNL     1       7.322  33.542  65.784  1.00  0.00    -0.206 F 
HETATM   18  C   UNL     1       7.726  32.817  63.577  1.00  0.00     0.051 A 
ENDBRANCH   7  12
ENDBRANCH   1   7
BRANCH   4  19
HETATM   19  C   UNL     1       7.042  28.985  57.490  1.00  0.00     0.036 A 
HETATM   20  C   UNL     1       6.021  29.494  56.683  1.00  0.00     0.030 A 
HETATM   21  C   UNL     1       5.835  29.013  55.380  1.00  0.00     0.014 A 
HETATM   22  C   UNL     1       6.679  28.031  54.844  1.00  0.00    -0.023 A 
HETATM   23  C   UNL     1       7.725  27.557  55.650  1.00  0.00     0.014 A 
HETATM   24  C   UNL     1       7.903  28.026  56.959  1.00  0.00     0.030 A 
BRANCH  22  25
HETATM   25  C   UNL     1       6.460  27.526  53.495  1.00  0.00     0.010 A 
HETATM   26  C   UNL     1       5.631  28.003  52.448  1.00  0.00     0.152 A 
HETATM   27  N   UNL     1       5.686  27.247  51.348  1.00  0.00    -0.187 NA
HETATM   28  N   UNL     1       6.547  26.275  51.681  1.00  0.00    -0.289 N 
HETATM   29  H   UNL     1       6.754  25.558  50.995  1.00  0.00     0.188 HD
HETATM   30  C   UNL     1       7.036  26.395  52.950  1.00  0.00     0.123 A 
ENDBRANCH  22  25
ENDBRANCH   4  19
TORSDOF 7
ENDMDL
MODEL 6
REMARK VINA RESULT:      -7.9      4.551      7.246
REMARK  7 active torsions:
REMARK  status: ('A' for Active; 'I' for Inactive)
REMARK    1  A    between atoms: O_1  and  C_2 
REMARK    2  A    between atoms: C_2  and  C_3 
REMARK    3  A    between atoms: C_3  and  C_4 
REMARK    4  A    between atoms: C_4  and  N_5 
REMARK    5  A    between atoms: C_4  and  C_21 
REMARK       I    between atoms: N_5  and  C_6 
REMARK       I    between atoms: C_6  and  N_8 
REMARK    6  A    between atoms: N_8  and  C_9 
REMARK    7  A    between atoms: C_12  and  C_15 
ROOT
HETATM    1  N   UNL     1       6.156  25.431  54.159  1.00  0.00    -0.334 N 
HETATM    2  C   UNL     1       6.226  26.698  54.703  1.00  0.00     0.321 C 
HETATM    3  O   UNL     1       7.224  27.401  54.632  1.00  0.00    -0.247 OA
HETATM    4  N   UNL     1       5.006  27.051  55.243  1.00  0.00    -0.309 N 
HETATM    5  H   UNL     1       5.578  24.784  54.674  1.00  0.00     0.165 HD
HETATM    6  H   UNL     1       4.222  26.519  54.898  1.00  0.00     0.170 HD
ENDROOT
BRANCH   1   7
HETATM    7  C   UNL     1       7.294  24.859  53.450  1.00  0.00     0.121 C 
BRANCH   7   8
HETATM    8  C   UNL     1       7.103  24.991  51.932  1.00  0.00     0.056 C 
BRANCH   8   9
HETATM    9  C   UNL     1       5.815  25.728  51.584  1.00  0.00     0.166 C 
BRANCH   9  10
HETATM   10  O   UNL     1       4.717  24.847  51.786  1.00  0.00    -0.401 OA
HETATM   11  H   UNL     1       5.088  23.980  52.027  1.00  0.00     0.209 HD
ENDBRANCH   9  10
ENDBRANCH   8   9
ENDBRANCH   7   8
BRANCH   7  12
HETATM   12  C   UNL     1       7.519  23.412  53.857  1.00  0.00    -0.032 A 
HETATM   13  C   UNL     1       7.439  23.050  55.213  1.00  0.00     0.009 A 
HETATM   14  C   UNL     1       7.665  21.732  55.621  1.00  0.00     0.004 A 
HETATM   15  C   UNL     1       7.962  20.754  54.676  1.00  0.00     0.042 A 
HETATM   16  C   UNL     1       8.029  21.103  53.332  1.00  0.00     0.117 A 
HETATM   17  F   UNL     1       8.309  20.163  52.420  1.00  0.00    -0.206 F 
HETATM   18  C   UNL     1       7.813  22.414  52.916  1.00  0.00     0.051 A 
ENDBRANCH   7  12
ENDBRANCH   1   7
BRANCH   4  19
HETATM   19  C   UNL     1       4.707  28.248  55.921  1.00  0.00     0.036 A 
HETATM   20  C   UNL     1       5.393  28.512  57.110  1.00  0.00     0.030 A 
HETATM   21  C   UNL     1       5.121  29.672  57.848  1.00  0.00     0.014 A 
HETATM   22  C   UNL     1       4.174  30.605  57.404  1.00  0.00    -0.023 A 
HETATM   23  C   UNL     1       3.522  30.348  56.189  1.00  0.00     0.014 A 
HETATM   24  C   UNL     1       3.783  29.181  55.457  1.00  0.00     0.030 A 
BRANCH  22  25
HETATM   25  C   UNL     1       3.886  31.797  58.192  1.00  0.00     0.010 A 
HETATM   26  C   UNL     1       3.515  31.942  59.553  1.00  0.00     0.152 A 
HETATM   27  N   UNL     1       3.313  33.213  59.910  1.00  0.00    -0.187 NA
HETATM   28  N   UNL     1       3.548  33.895  58.780  1.00  0.00    -0.289 N 
HETATM   29  H   UNL     1       3.452  34.904  58.797  1.00  0.00     0.188 HD
HETATM   30  C   UNL     1       3.892  33.097  57.727  1.00  0.00     0.123 A 
ENDBRANCH  22  25
ENDBRANCH   4  19
TORSDOF 7
ENDMDL
MODEL 7
REMARK VINA RESULT:      -7.7      4.971      9.482
REMARK  7 active torsions:
REMARK  status: ('A' for Active; 'I' for Inactive)
REMARK    1  A    between atoms: O_1  and  C_2 
REMARK    2  A    between atoms: C_2  and  C_3 
REMARK    3  A    between atoms: C_3  and  C_4 
REMARK    4  A    between atoms: C_4  and  N_5 
REMARK    5  A    between atoms: C_4  and  C_21 
REMARK       I    between atoms: N_5  and  C_6 
REMARK       I    between atoms: C_6  and  N_8 
REMARK    6  A    between atoms: N_8  and  C_9 
REMARK    7  A    between atoms: C_12  and  C_15 
ROOT
HETATM    1  N   UNL     1       5.258  29.114  53.526  1.00  0.00    -0.334 N 
HETATM    2  C   UNL     1       5.294  27.733  53.518  1.00  0.00     0.321 C 
HETATM    3  O   UNL     1       4.293  27.040  53.406  1.00  0.00    -0.247 OA
HETATM    4  N   UNL     1       6.600  27.292  53.571  1.00  0.00    -0.309 N 
HETATM    5  H   UNL     1       5.959  29.548  54.108  1.00  0.00     0.165 HD
HETATM    6  H   UNL     1       7.288  27.976  53.297  1.00  0.00     0.170 HD
ENDROOT
BRANCH   1   7
HETATM    7  C   UNL     1       3.995  29.829  53.391  1.00  0.00     0.121 C 
BRANCH   7   8
HETATM    8  C   UNL     1       3.839  30.379  51.966  1.00  0.00     0.056 C 
BRANCH   8   9
HETATM    9  C   UNL     1       2.721  29.676  51.205  1.00  0.00     0.166 C 
BRANCH   9  10
HETATM   10  O   UNL     1       2.211  28.623  52.015  1.00  0.00    -0.401 OA
HETATM   11  H   UNL     1       1.242  28.652  51.942  1.00  0.00     0.209 HD
ENDBRANCH   9  10
ENDBRANCH   8   9
ENDBRANCH   7   8
BRANCH   7  12
HETATM   12  C   UNL     1       3.880  30.933  54.429  1.00  0.00    -0.032 A 
HETATM   13  C   UNL     1       4.808  30.997  55.483  1.00  0.00     0.009 A 
HETATM   14  C   UNL     1       4.714  31.986  56.466  1.00  0.00     0.004 A 
HETATM   15  C   UNL     1       3.696  32.934  56.402  1.00  0.00     0.042 A 
HETATM   16  C   UNL     1       2.784  32.884  55.356  1.00  0.00     0.117 A 
HETATM   17  F   UNL     1       1.807  33.798  55.288  1.00  0.00    -0.206 F 
HETATM   18  C   UNL     1       2.864  31.899  54.375  1.00  0.00     0.051 A 
ENDBRANCH   7  12
ENDBRANCH   1   7
BRANCH   4  19
HETATM   19  C   UNL     1       7.028  25.951  53.624  1.00  0.00     0.036 A 
HETATM   20  C   UNL     1       6.893  25.272  54.838  1.00  0.00     0.030 A 
HETATM   21  C   UNL     1       7.327  23.945  54.964  1.00  0.00     0.014 A 
HETATM   22  C   UNL     1       7.883  23.260  53.875  1.00  0.00    -0.023 A 
HETATM   23  C   UNL     1       7.976  23.940  52.652  1.00  0.00     0.014 A 
HETATM   24  C   UNL     1       7.556  25.272  52.528  1.00  0.00     0.030 A 
BRANCH  22  25
HETATM   25  C   UNL     1       8.349  21.887  54.027  1.00  0.00     0.010 A 
HETATM   26  C   UNL     1       8.350  20.801  53.115  1.00  0.00     0.152 A 
HETATM   27  N   UNL     1       8.849  19.677  53.637  1.00  0.00    -0.187 NA
HETATM   28  N   UNL     1       9.168  20.031  54.890  1.00  0.00    -0.289 N 
HETATM   29  H   UNL     1       9.570  19.329  55.501  1.00  0.00     0.188 HD
HETATM   30  C   UNL     1       8.889  21.337  55.173  1.00  0.00     0.123 A 
ENDBRANCH  22  25
ENDBRANCH   4  19
TORSDOF 7
ENDMDL
MODEL 8
REMARK VINA RESULT:      -7.6      6.565      9.630
REMARK  7 active torsions:
REMARK  status: ('A' for Active; 'I' for Inactive)
REMARK    1  A    between atoms: O_1  and  C_2 
REMARK    2  A    between atoms: C_2  and  C_3 
REMARK    3  A    between atoms: C_3  and  C_4 
REMARK    4  A    between atoms: C_4  and  N_5 
REMARK    5  A    between atoms: C_4  and  C_21 
REMARK       I    between atoms: N_5  and  C_6 
REMARK       I    between atoms: C_6  and  N_8 
REMARK    6  A    between atoms: N_8  and  C_9 
REMARK    7  A    between atoms: C_12  and  C_15 
ROOT
HETATM    1  N   UNL     1       6.939  29.542  56.641  1.00  0.00    -0.334 N 
HETATM    2  C   UNL     1       6.873  28.163  56.650  1.00  0.00     0.321 C 
HETATM    3  O   UNL     1       6.260  27.529  57.498  1.00  0.00    -0.247 OA
HETATM    4  N   UNL     1       7.517  27.649  55.544  1.00  0.00    -0.309 N 
HETATM    5  H   UNL     1       7.807  29.918  56.290  1.00  0.00     0.165 HD
HETATM    6  H   UNL     1       7.642  28.303  54.786  1.00  0.00     0.170 HD
ENDROOT
BRANCH   1   7
HETATM    7  C   UNL     1       6.258  30.329  57.662  1.00  0.00     0.121 C 
BRANCH   7   8
HETATM    8  C   UNL     1       5.303  31.341  57.013  1.00  0.00     0.056 C 
BRANCH   8   9
HETATM    9  C   UNL     1       4.812  30.864  55.652  1.00  0.00     0.166 C 
BRANCH   9  10
HETATM   10  O   UNL     1       3.890  29.798  55.846  1.00  0.00    -0.401 OA
HETATM   11  H   UNL     1       4.056  29.437  56.734  1.00  0.00     0.209 HD
ENDBRANCH   9  10
ENDBRANCH   8   9
ENDBRANCH   7   8
BRANCH   7  12
HETATM   12  C   UNL     1       7.259  31.017  58.577  1.00  0.00    -0.032 A 
HETATM   13  C   UNL     1       8.636  30.837  58.362  1.00  0.00     0.009 A 
HETATM   14  C   UNL     1       9.580  31.437  59.201  1.00  0.00     0.004 A 
HETATM   15  C   UNL     1       9.158  32.236  60.261  1.00  0.00     0.042 A 
HETATM   16  C   UNL     1       7.798  32.427  60.471  1.00  0.00     0.117 A 
HETATM   17  F   UNL     1       7.390  33.199  61.486  1.00  0.00    -0.206 F 
HETATM   18  C   UNL     1       6.849  31.829  59.646  1.00  0.00     0.051 A 
ENDBRANCH   7  12
ENDBRANCH   1   7
BRANCH   4  19
HETATM   19  C   UNL     1       7.694  26.286  55.236  1.00  0.00     0.036 A 
HETATM   20  C   UNL     1       7.568  25.899  53.900  1.00  0.00     0.030 A 
HETATM   21  C   UNL     1       7.702  24.553  53.532  1.00  0.00     0.014 A 
HETATM   22  C   UNL     1       7.989  23.568  54.487  1.00  0.00    -0.023 A 
HETATM   23  C   UNL     1       8.153  23.976  55.818  1.00  0.00     0.014 A 
HETATM   24  C   UNL     1       8.003  25.320  56.190  1.00  0.00     0.030 A 
BRANCH  22  25
HETATM   25  C   UNL     1       8.106  22.170  54.093  1.00  0.00     0.010 A 
HETATM   26  C   UNL     1       8.570  21.039  54.811  1.00  0.00     0.152 A 
HETATM   27  N   UNL     1       8.545  19.913  54.092  1.00  0.00    -0.187 NA
HETATM   28  N   UNL     1       8.068  20.313  52.904  1.00  0.00    -0.289 N 
HETATM   29  H   UNL     1       7.959  19.621  52.171  1.00  0.00     0.188 HD
HETATM   30  C   UNL     1       7.792  21.649  52.853  1.00  0.00     0.123 A 
ENDBRANCH  22  25
ENDBRANCH   4  19
TORSDOF 7
ENDMDL
MODEL 9
REMARK VINA RESULT:      -7.6      7.026     10.246
REMARK  7 active torsions:
REMARK  status: ('A' for Active; 'I' for Inactive)
REMARK    1  A    between atoms: O_1  and  C_2 
REMARK    2  A    between atoms: C_2  and  C_3 
REMARK    3  A    between atoms: C_3  and  C_4 
REMARK    4  A    between atoms: C_4  and  N_5 
REMARK    5  A    between atoms: C_4  and  C_21 
REMARK       I    between atoms: N_5  and  C_6 
REMARK       I    between atoms: C_6  and  N_8 
REMARK    6  A    between atoms: N_8  and  C_9 
REMARK    7  A    between atoms: C_12  and  C_15 
ROOT
HETATM    1  N   UNL     1       7.898  30.488  60.106  1.00  0.00    -0.334 N 
HETATM    2  C   UNL     1       7.602  30.220  58.784  1.00  0.00     0.321 C 
HETATM    3  O   UNL     1       7.687  31.059  57.898  1.00  0.00    -0.247 OA
HETATM    4  N   UNL     1       7.288  28.886  58.628  1.00  0.00    -0.309 N 
HETATM    5  H   UNL     1       7.340  29.976  60.772  1.00  0.00     0.165 HD
HETATM    6  H   UNL     1       7.615  28.286  59.370  1.00  0.00     0.170 HD
ENDROOT
BRANCH   1   7
HETATM    7  C   UNL     1       8.345  31.813  60.517  1.00  0.00     0.121 C 
BRANCH   7   8
HETATM    8  C   UNL     1       9.531  31.704  61.486  1.00  0.00     0.056 C 
BRANCH   8   9
HETATM    9  C   UNL     1       9.789  30.262  61.905  1.00  0.00     0.166 C 
BRANCH   9  10
HETATM   10  O   UNL     1       8.751  29.850  62.787  1.00  0.00    -0.401 OA
HETATM   11  H   UNL     1       9.012  28.986  63.150  1.00  0.00     0.209 HD
ENDBRANCH   9  10
ENDBRANCH   8   9
ENDBRANCH   7   8
BRANCH   7  12
HETATM   12  C   UNL     1       7.201  32.609  61.126  1.00  0.00    -0.032 A 
HETATM   13  C   UNL     1       7.324  33.117  62.432  1.00  0.00     0.009 A 
HETATM   14  C   UNL     1       6.281  33.830  63.027  1.00  0.00     0.004 A 
HETATM   15  C   UNL     1       5.102  34.057  62.321  1.00  0.00     0.042 A 
HETATM   16  C   UNL     1       4.980  33.569  61.026  1.00  0.00     0.117 A 
HETATM   17  F   UNL     1       3.850  33.790  60.342  1.00  0.00    -0.206 F 
HETATM   18  C   UNL     1       6.010  32.850  60.425  1.00  0.00     0.051 A 
ENDBRANCH   7  12
ENDBRANCH   1   7
BRANCH   4  19
HETATM   19  C   UNL     1       6.891  28.255  57.434  1.00  0.00     0.036 A 
HETATM   20  C   UNL     1       5.538  28.303  57.089  1.00  0.00     0.030 A 
HETATM   21  C   UNL     1       5.074  27.669  55.929  1.00  0.00     0.014 A 
HETATM   22  C   UNL     1       5.954  26.992  55.074  1.00  0.00    -0.023 A 
HETATM   23  C   UNL     1       7.316  26.985  55.410  1.00  0.00     0.014 A 
HETATM   24  C   UNL     1       7.779  27.606  56.579  1.00  0.00     0.030 A 
BRANCH  22  25
HETATM   25  C   UNL     1       5.455  26.320  53.882  1.00  0.00     0.010 A 
HETATM   26  C   UNL     1       5.462  24.949  53.517  1.00  0.00     0.152 A 
HETATM   27  N   UNL     1       4.922  24.722  52.316  1.00  0.00    -0.187 NA
HETATM   28  N   UNL     1       4.568  25.946  51.897  1.00  0.00    -0.289 N 
HETATM   29  H   UNL     1       4.131  26.036  50.987  1.00  0.00     0.188 HD
HETATM   30  C   UNL     1       4.865  26.933  52.793  1.00  0.00     0.123 A 
ENDBRANCH  22  25
ENDBRANCH   4  19
TORSDOF 7
ENDMDL
MODEL 10
REMARK VINA RESULT:      -7.4      3.445      9.321
REMARK  7 active torsions:
REMARK  status: ('A' for Active; 'I' for Inactive)
REMARK    1  A    between atoms: O_1  and  C_2 
REMARK    2  A    between atoms: C_2  and  C_3 
REMARK    3  A    between atoms: C_3  and  C_4 
REMARK    4  A    between atoms: C_4  and  N_5 
REMARK    5  A    between atoms: C_4  and  C_21 
REMARK       I    between atoms: N_5  and  C_6 
REMARK       I    between atoms: C_6  and  N_8 
REMARK    6  A    between atoms: N_8  and  C_9 
REMARK    7  A    between atoms: C_12  and  C_15 
ROOT
HETATM    1  N   UNL     1       3.382  28.266  51.647  1.00  0.00    -0.334 N 
HETATM    2  C   UNL     1       4.534  27.610  52.029  1.00  0.00     0.321 C 
HETATM    3  O   UNL     1       5.652  27.966  51.683  1.00  0.00    -0.247 OA
HETATM    4  N   UNL     1       4.230  26.580  52.895  1.00  0.00    -0.309 N 
HETATM    5  H   UNL     1       2.579  27.668  51.523  1.00  0.00     0.165 HD
HETATM    6  H   UNL     1       3.330  26.658  53.344  1.00  0.00     0.170 HD
ENDROOT
BRANCH   1   7
HETATM    7  C   UNL     1       3.443  29.450  50.798  1.00  0.00     0.121 C 
BRANCH   7   8
HETATM    8  C   UNL     1       2.744  30.636  51.478  1.00  0.00     0.056 C 
BRANCH   8   9
HETATM    9  C   UNL     1       3.554  31.174  52.651  1.00  0.00     0.166 C 
BRANCH   9  10
HETATM   10  O   UNL     1       4.932  30.925  52.407  1.00  0.00    -0.401 OA
HETATM   11  H   UNL     1       5.390  31.783  52.450  1.00  0.00     0.209 HD
ENDBRANCH   9  10
ENDBRANCH   8   9
ENDBRANCH   7   8
BRANCH   7  12
HETATM   12  C   UNL     1       2.851  29.168  49.426  1.00  0.00    -0.032 A 
HETATM   13  C   UNL     1       3.294  29.902  48.312  1.00  0.00     0.009 A 
HETATM   14  C   UNL     1       2.751  29.682  47.043  1.00  0.00     0.004 A 
HETATM   15  C   UNL     1       1.764  28.715  46.868  1.00  0.00     0.042 A 
HETATM   16  C   UNL     1       1.331  27.978  47.963  1.00  0.00     0.117 A 
HETATM   17  F   UNL     1       0.386  27.043  47.797  1.00  0.00    -0.206 F 
HETATM   18  C   UNL     1       1.860  28.193  49.233  1.00  0.00     0.051 A 
ENDBRANCH   7  12
ENDBRANCH   1   7
BRANCH   4  19
HETATM   19  C   UNL     1       5.139  25.665  53.459  1.00  0.00     0.036 A 
HETATM   20  C   UNL     1       5.713  24.712  52.614  1.00  0.00     0.030 A 
HETATM   21  C   UNL     1       6.603  23.754  53.119  1.00  0.00     0.014 A 
HETATM   22  C   UNL     1       6.958  23.742  54.475  1.00  0.00    -0.023 A 
HETATM   23  C   UNL     1       6.407  24.729  55.305  1.00  0.00     0.014 A 
HETATM   24  C   UNL     1       5.504  25.678  54.804  1.00  0.00     0.030 A 
BRANCH  22  25
HETATM   25  C   UNL     1       7.869  22.728  54.991  1.00  0.00     0.010 A 
HETATM   26  C   UNL     1       8.842  21.934  54.333  1.00  0.00     0.152 A 
HETATM   27  N   UNL     1       9.473  21.089  55.153  1.00  0.00    -0.187 NA
HETATM   28  N   UNL     1       8.906  21.330  56.344  1.00  0.00    -0.289 N 
HETATM   29  H   UNL     1       9.223  20.795  57.145  1.00  0.00     0.188 HD
HETATM   30  C   UNL     1       7.944  22.297  56.301  1.00  0.00     0.123 A 
ENDBRANCH  22  25
ENDBRANCH   4  19
TORSDOF 7
ENDMDL
