MODEL 1
REMARK VINA RESULT:      -8.4      0.000      0.000
REMARK  13 active torsions:
REMARK  status: ('A' for Active; 'I' for Inactive)
REMARK    1  A    between atoms: C_2  and  N_3 
REMARK    2  A    between atoms: N_3  and  C_5 
REMARK    3  A    between atoms: N_3  and  C_34 
REMARK    4  A    between atoms: C_5  and  C_6 
REMARK    5  A    between atoms: N_7  and  C_8 
REMARK    6  A    between atoms: C_12  and  N_13 
REMARK    7  A    between atoms: C_16  and  C_17 
REMARK       I    between atoms: C_17  and  N_18 
REMARK    8  A    between atoms: N_18  and  N_19 
REMARK    9  A    between atoms: C_20  and  C_21 
REMARK   10  A    between atoms: C_22  and  O_23 
REMARK   11  A    between atoms: C_25  and  N_26 
REMARK   12  A    between atoms: N_26  and  C_27 
REMARK   13  A    between atoms: N_26  and  C_29 
ROOT
HETATM    1  C   UNL     1       6.821  32.195  61.365  1.00  0.00     0.096 A 
HETATM    2  N   UNL     1       7.047  32.301  62.738  1.00  0.00    -0.215 N 
HETATM    3  N   UNL     1       8.274  31.776  63.012  1.00  0.00     0.012 NA
HETATM    4  N   UNL     1       8.786  31.251  61.913  1.00  0.00    -0.152 NA
HETATM    5  C   UNL     1       7.910  31.472  60.896  1.00  0.00     0.170 A 
ENDROOT
BRANCH   5   6
HETATM    6  C   UNL     1       8.112  31.005  59.533  1.00  0.00     0.293 C 
HETATM    7  N   UNL     1       7.611  29.743  59.284  1.00  0.00    -0.242 N 
HETATM    8  H   UNL     1       7.135  29.225  60.021  1.00  0.00     0.192 HD
HETATM    9  O   UNL     1       8.678  31.734  58.718  1.00  0.00    -0.264 OA
BRANCH   7  10
HETATM   10  N   UNL     1       7.785  29.182  58.056  1.00  0.00    -0.183 NA
HETATM   11  C   UNL     1       6.980  28.209  57.756  1.00  0.00     0.153 C 
BRANCH  11  12
HETATM   12  C   UNL     1       7.077  27.515  56.457  1.00  0.00     0.016 A 
HETATM   13  C   UNL     1       7.027  28.194  55.240  1.00  0.00     0.079 A 
HETATM   14  C   UNL     1       7.114  27.492  54.034  1.00  0.00     0.066 A 
HETATM   15  C   UNL     1       7.253  26.093  53.989  1.00  0.00     0.032 A 
HETATM   16  C   UNL     1       7.307  25.440  55.235  1.00  0.00     0.030 A 
HETATM   17  C   UNL     1       7.221  26.131  56.453  1.00  0.00     0.018 A 
BRANCH  13  18
HETATM   18  O   UNL     1       6.893  29.555  55.147  1.00  0.00    -0.360 OA
HETATM   19  H   UNL     1       7.770  29.953  55.336  1.00  0.00     0.217 HD
ENDBRANCH  13  18
BRANCH  15  20
HETATM   20  N   UNL     1       7.324  25.395  52.789  1.00  0.00    -0.382 N 
BRANCH  20  21
HETATM   21  C   UNL     1       8.315  24.332  52.570  1.00  0.00     0.118 C 
HETATM   22  C   UNL     1       7.729  22.960  52.863  1.00  0.00     0.026 C 
ENDBRANCH  20  21
BRANCH  20  23
HETATM   23  C   UNL     1       6.443  25.710  51.652  1.00  0.00     0.118 C 
HETATM   24  C   UNL     1       5.008  25.271  51.915  1.00  0.00     0.026 C 
ENDBRANCH  20  23
ENDBRANCH  15  20
ENDBRANCH  11  12
ENDBRANCH   7  10
ENDBRANCH   5   6
BRANCH   1  25
HETATM   25  C   UNL     1       5.704  32.808  60.601  1.00  0.00     0.296 C 
BRANCH  25  26
HETATM   26  N   UNL     1       4.725  31.811  60.005  1.00  0.00    -0.066 N 
HETATM   27  H   UNL     1       5.080  30.874  60.282  1.00  0.00     0.280 HD
BRANCH  26  28
HETATM   28  C   UNL     1       4.755  31.841  58.485  1.00  0.00     0.231 C 
HETATM   29  C   UNL     1       4.131  30.583  57.906  1.00  0.00     0.034 C 
ENDBRANCH  26  28
BRANCH  26  30
HETATM   30  C   UNL     1       3.325  31.983  60.553  1.00  0.00     0.231 C 
HETATM   31  C   UNL     1       3.050  33.438  60.894  1.00  0.00     0.034 C 
ENDBRANCH  26  30
ENDBRANCH  25  26
ENDBRANCH   1  25
BRANCH   2  32
HETATM   32  C   UNL     1       6.195  32.788  63.759  1.00  0.00     0.225 A 
HETATM   33  N   UNL     1       4.938  32.351  63.851  1.00  0.00    -0.081 NA
HETATM   34  O   UNL     1       4.434  33.018  64.971  1.00  0.00    -0.103 OA
HETATM   35  N   UNL     1       5.402  33.825  65.551  1.00  0.00    -0.083 NA
HETATM   36  C   UNL     1       6.494  33.681  64.803  1.00  0.00     0.201 A 
BRANCH  36  37
HETATM   37  N   UNL     1       7.662  34.299  65.036  1.00  0.00    -0.379 N 
HETATM   38  H   UNL     1       8.538  33.831  64.815  1.00  0.00     0.158 HD
HETATM   39  H   UNL     1       7.748  35.295  65.225  1.00  0.00     0.158 HD
ENDBRANCH  36  37
ENDBRANCH   2  32
TORSDOF 13
ENDMDL
MODEL 2
REMARK VINA RESULT:      -8.2      2.452      4.226
REMARK  13 active torsions:
REMARK  status: ('A' for Active; 'I' for Inactive)
REMARK    1  A    between atoms: C_2  and  N_3 
REMARK    2  A    between atoms: N_3  and  C_5 
REMARK    3  A    between atoms: N_3  and  C_34 
REMARK    4  A    between atoms: C_5  and  C_6 
REMARK    5  A    between atoms: N_7  and  C_8 
REMARK    6  A    between atoms: C_12  and  N_13 
REMARK    7  A    between atoms: C_16  and  C_17 
REMARK       I    between atoms: C_17  and  N_18 
REMARK    8  A    between atoms: N_18  and  N_19 
REMARK    9  A    between atoms: C_20  and  C_21 
REMARK   10  A    between atoms: C_22  and  O_23 
REMARK   11  A    between atoms: C_25  and  N_26 
REMARK   12  A    between atoms: N_26  and  C_27 
REMARK   13  A    between atoms: N_26  and  C_29 
ROOT
HETATM    1  C   UNL     1       5.158  32.153  59.431  1.00  0.00     0.096 A 
HETATM    2  N   UNL     1       3.988  32.845  59.749  1.00  0.00    -0.215 N 
HETATM    3  N   UNL     1       2.945  32.235  59.121  1.00  0.00     0.012 NA
HETATM    4  N   UNL     1       3.402  31.268  58.343  1.00  0.00    -0.152 NA
HETATM    5  C   UNL     1       4.752  31.211  58.496  1.00  0.00     0.170 A 
ENDROOT
BRANCH   5   6
HETATM    6  C   UNL     1       5.614  30.290  57.771  1.00  0.00     0.293 C 
HETATM    7  N   UNL     1       5.216  28.969  57.834  1.00  0.00    -0.242 N 
HETATM    8  H   UNL     1       4.375  28.711  58.346  1.00  0.00     0.192 HD
HETATM    9  O   UNL     1       6.592  30.724  57.162  1.00  0.00    -0.264 OA
BRANCH   7  10
HETATM   10  N   UNL     1       5.974  28.011  57.234  1.00  0.00    -0.183 NA
HETATM   11  C   UNL     1       5.441  26.830  57.157  1.00  0.00     0.153 C 
BRANCH  11  12
HETATM   12  C   UNL     1       6.170  25.706  56.537  1.00  0.00     0.016 A 
HETATM   13  C   UNL     1       7.293  25.126  57.125  1.00  0.00     0.079 A 
HETATM   14  C   UNL     1       7.955  24.068  56.495  1.00  0.00     0.066 A 
HETATM   15  C   UNL     1       7.530  23.546  55.260  1.00  0.00     0.032 A 
HETATM   16  C   UNL     1       6.390  24.151  54.697  1.00  0.00     0.030 A 
HETATM   17  C   UNL     1       5.715  25.213  55.318  1.00  0.00     0.018 A 
BRANCH  13  18
HETATM   18  O   UNL     1       7.808  25.542  58.326  1.00  0.00    -0.360 OA
HETATM   19  H   UNL     1       7.218  26.243  58.674  1.00  0.00     0.217 HD
ENDBRANCH  13  18
BRANCH  15  20
HETATM   20  N   UNL     1       8.199  22.505  54.627  1.00  0.00    -0.382 N 
BRANCH  20  21
HETATM   21  C   UNL     1       9.049  21.567  55.374  1.00  0.00     0.118 C 
HETATM   22  C   UNL     1       8.215  20.625  56.228  1.00  0.00     0.026 C 
ENDBRANCH  20  21
BRANCH  20  23
HETATM   23  C   UNL     1       8.134  22.309  53.170  1.00  0.00     0.118 C 
HETATM   24  C   UNL     1       8.019  20.835  52.806  1.00  0.00     0.026 C 
ENDBRANCH  20  23
ENDBRANCH  15  20
ENDBRANCH  11  12
ENDBRANCH   7  10
ENDBRANCH   5   6
BRANCH   1  25
HETATM   25  C   UNL     1       6.497  32.350  60.044  1.00  0.00     0.296 C 
BRANCH  25  26
HETATM   26  N   UNL     1       6.772  31.477  61.256  1.00  0.00    -0.066 N 
HETATM   27  H   UNL     1       6.132  30.662  61.162  1.00  0.00     0.280 HD
BRANCH  26  28
HETATM   28  C   UNL     1       6.377  32.176  62.547  1.00  0.00     0.231 C 
HETATM   29  C   UNL     1       7.606  32.635  63.312  1.00  0.00     0.034 C 
ENDBRANCH  26  28
BRANCH  26  30
HETATM   30  C   UNL     1       8.199  30.973  61.290  1.00  0.00     0.231 C 
HETATM   31  C   UNL     1       8.667  30.578  59.900  1.00  0.00     0.034 C 
ENDBRANCH  26  30
ENDBRANCH  25  26
ENDBRANCH   1  25
BRANCH   2  32
HETATM   32  C   UNL     1       3.815  34.019  60.521  1.00  0.00     0.225 A 
HETATM   33  N   UNL     1       4.181  35.206  60.032  1.00  0.00    -0.081 NA
HETATM   34  O   UNL     1       3.834  36.105  61.044  1.00  0.00    -0.103 OA
HETATM   35  N   UNL     1       3.240  35.450  62.114  1.00  0.00    -0.083 NA
HETATM   36  C   UNL     1       3.225  34.159  61.790  1.00  0.00     0.201 A 
BRANCH  36  37
HETATM   37  N   UNL     1       2.724  33.187  62.566  1.00  0.00    -0.379 N 
HETATM   38  H   UNL     1       3.350  32.560  63.065  1.00  0.00     0.158 HD
HETATM   39  H   UNL     1       1.753  33.150  62.872  1.00  0.00     0.158 HD
ENDBRANCH  36  37
ENDBRANCH   2  32
TORSDOF 13
ENDMDL
MODEL 3
REMARK VINA RESULT:      -8.2      1.006      1.978
REMARK  13 active torsions:
REMARK  status: ('A' for Active; 'I' for Inactive)
REMARK    1  A    between atoms: C_2  and  N_3 
REMARK    2  A    between atoms: N_3  and  C_5 
REMARK    3  A    between atoms: N_3  and  C_34 
REMARK    4  A    between atoms: C_5  and  C_6 
REMARK    5  A    between atoms: N_7  and  C_8 
REMARK    6  A    between atoms: C_12  and  N_13 
REMARK    7  A    between atoms: C_16  and  C_17 
REMARK       I    between atoms: C_17  and  N_18 
REMARK    8  A    between atoms: N_18  and  N_19 
REMARK    9  A    between atoms: C_20  and  C_21 
REMARK   10  A    between atoms: C_22  and  O_23 
REMARK   11  A    between atoms: C_25  and  N_26 
REMARK   12  A    between atoms: N_26  and  C_27 
REMARK   13  A    between atoms: N_26  and  C_29 
ROOT
HETATM    1  C   UNL     1       6.721  32.251  61.481  1.00  0.00     0.096 A 
HETATM    2  N   UNL     1       7.025  32.575  62.804  1.00  0.00    -0.215 N 
HETATM    3  N   UNL     1       8.369  32.437  62.981  1.00  0.00     0.012 NA
HETATM    4  N   UNL     1       8.912  31.945  61.881  1.00  0.00    -0.152 NA
HETATM    5  C   UNL     1       7.926  31.800  60.956  1.00  0.00     0.170 A 
ENDROOT
BRANCH   5   6
HETATM    6  C   UNL     1       8.133  31.248  59.625  1.00  0.00     0.293 C 
HETATM    7  N   UNL     1       7.660  29.961  59.464  1.00  0.00    -0.242 N 
HETATM    8  H   UNL     1       7.200  29.483  60.236  1.00  0.00     0.192 HD
HETATM    9  O   UNL     1       8.678  31.935  58.761  1.00  0.00    -0.264 OA
BRANCH   7  10
HETATM   10  N   UNL     1       7.842  29.325  58.274  1.00  0.00    -0.183 NA
HETATM   11  C   UNL     1       6.774  28.838  57.721  1.00  0.00     0.153 C 
BRANCH  11  12
HETATM   12  C   UNL     1       6.845  28.117  56.435  1.00  0.00     0.016 A 
HETATM   13  C   UNL     1       7.686  28.517  55.398  1.00  0.00     0.079 A 
HETATM   14  C   UNL     1       7.712  27.808  54.193  1.00  0.00     0.066 A 
HETATM   15  C   UNL     1       6.906  26.676  53.972  1.00  0.00     0.032 A 
HETATM   16  C   UNL     1       6.073  26.296  55.041  1.00  0.00     0.030 A 
HETATM   17  C   UNL     1       6.037  26.998  56.256  1.00  0.00     0.018 A 
BRANCH  13  18
HETATM   18  O   UNL     1       8.520  29.602  55.487  1.00  0.00    -0.360 OA
HETATM   19  H   UNL     1       9.300  29.424  54.920  1.00  0.00     0.217 HD
ENDBRANCH  13  18
BRANCH  15  20
HETATM   20  N   UNL     1       6.922  25.982  52.768  1.00  0.00    -0.382 N 
BRANCH  20  21
HETATM   21  C   UNL     1       5.800  26.051  51.821  1.00  0.00     0.118 C 
HETATM   22  C   UNL     1       4.839  24.888  52.015  1.00  0.00     0.026 C 
ENDBRANCH  20  21
BRANCH  20  23
HETATM   23  C   UNL     1       8.039  25.101  52.392  1.00  0.00     0.118 C 
HETATM   24  C   UNL     1       8.019  23.799  53.183  1.00  0.00     0.026 C 
ENDBRANCH  20  23
ENDBRANCH  15  20
ENDBRANCH  11  12
ENDBRANCH   7  10
ENDBRANCH   5   6
BRANCH   1  25
HETATM   25  C   UNL     1       5.416  32.446  60.799  1.00  0.00     0.296 C 
BRANCH  25  26
HETATM   26  N   UNL     1       5.222  33.822  60.186  1.00  0.00    -0.066 N 
HETATM   27  H   UNL     1       6.146  34.295  60.268  1.00  0.00     0.280 HD
BRANCH  26  28
HETATM   28  C   UNL     1       4.246  34.661  60.996  1.00  0.00     0.231 C 
HETATM   29  C   UNL     1       4.984  35.676  61.851  1.00  0.00     0.034 C 
ENDBRANCH  26  28
BRANCH  26  30
HETATM   30  C   UNL     1       4.840  33.751  58.723  1.00  0.00     0.231 C 
HETATM   31  C   UNL     1       4.976  32.333  58.195  1.00  0.00     0.034 C 
ENDBRANCH  26  30
ENDBRANCH  25  26
ENDBRANCH   1  25
BRANCH   2  32
HETATM   32  C   UNL     1       6.162  32.930  63.868  1.00  0.00     0.225 A 
HETATM   33  N   UNL     1       4.923  32.437  63.922  1.00  0.00    -0.081 NA
HETATM   34  O   UNL     1       4.401  32.976  65.101  1.00  0.00    -0.103 OA
HETATM   35  N   UNL     1       5.341  33.762  65.752  1.00  0.00    -0.083 NA
HETATM   36  C   UNL     1       6.433  33.732  64.991  1.00  0.00     0.201 A 
BRANCH  36  37
HETATM   37  N   UNL     1       7.578  34.369  65.279  1.00  0.00    -0.379 N 
HETATM   38  H   UNL     1       7.637  34.962  66.103  1.00  0.00     0.158 HD
HETATM   39  H   UNL     1       8.474  34.143  64.853  1.00  0.00     0.158 HD
ENDBRANCH  36  37
ENDBRANCH   2  32
TORSDOF 13
ENDMDL
MODEL 4
REMARK VINA RESULT:      -8.0      3.183      4.615
REMARK  13 active torsions:
REMARK  status: ('A' for Active; 'I' for Inactive)
REMARK    1  A    between atoms: C_2  and  N_3 
REMARK    2  A    between atoms: N_3  and  C_5 
REMARK    3  A    between atoms: N_3  and  C_34 
REMARK    4  A    between atoms: C_5  and  C_6 
REMARK    5  A    between atoms: N_7  and  C_8 
REMARK    6  A    between atoms: C_12  and  N_13 
REMARK    7  A    between atoms: C_16  and  C_17 
REMARK       I    between atoms: C_17  and  N_18 
REMARK    8  A    between atoms: N_18  and  N_19 
REMARK    9  A    between atoms: C_20  and  C_21 
REMARK   10  A    between atoms: C_22  and  O_23 
REMARK   11  A    between atoms: C_25  and  N_26 
REMARK   12  A    between atoms: N_26  and  C_27 
REMARK   13  A    between atoms: N_26  and  C_29 
ROOT
HETATM    1  C   UNL     1       4.938  31.357  57.905  1.00  0.00     0.096 A 
HETATM    2  N   UNL     1       4.825  32.488  58.714  1.00  0.00    -0.215 N 
HETATM    3  N   UNL     1       6.076  32.870  59.094  1.00  0.00     0.012 NA
HETATM    4  N   UNL     1       6.959  31.987  58.660  1.00  0.00    -0.152 NA
HETATM    5  C   UNL     1       6.290  31.040  57.951  1.00  0.00     0.170 A 
ENDROOT
BRANCH   5   6
HETATM    6  C   UNL     1       6.923  29.878  57.345  1.00  0.00     0.293 C 
HETATM    7  N   UNL     1       6.902  28.744  58.132  1.00  0.00    -0.242 N 
HETATM    8  H   UNL     1       6.457  28.763  59.048  1.00  0.00     0.192 HD
HETATM    9  O   UNL     1       7.404  29.968  56.216  1.00  0.00    -0.264 OA
BRANCH   7  10
HETATM   10  N   UNL     1       7.508  27.608  57.689  1.00  0.00    -0.183 NA
HETATM   11  C   UNL     1       6.752  26.776  57.042  1.00  0.00     0.153 C 
BRANCH  11  12
HETATM   12  C   UNL     1       7.292  25.505  56.520  1.00  0.00     0.016 A 
HETATM   13  C   UNL     1       8.125  24.680  57.274  1.00  0.00     0.079 A 
HETATM   14  C   UNL     1       8.620  23.489  56.733  1.00  0.00     0.066 A 
HETATM   15  C   UNL     1       8.308  23.073  55.426  1.00  0.00     0.032 A 
HETATM   16  C   UNL     1       7.461  23.926  54.695  1.00  0.00     0.030 A 
HETATM   17  C   UNL     1       6.956  25.124  55.224  1.00  0.00     0.018 A 
BRANCH  13  18
HETATM   18  O   UNL     1       8.503  24.972  58.559  1.00  0.00    -0.360 OA
HETATM   19  H   UNL     1       9.434  24.683  58.668  1.00  0.00     0.217 HD
ENDBRANCH  13  18
BRANCH  15  20
HETATM   20  N   UNL     1       8.814  21.897  54.885  1.00  0.00    -0.382 N 
BRANCH  20  21
HETATM   21  C   UNL     1       9.158  20.743  55.729  1.00  0.00     0.118 C 
HETATM   22  C   UNL     1       7.917  20.121  56.349  1.00  0.00     0.026 C 
ENDBRANCH  20  21
BRANCH  20  23
HETATM   23  C   UNL     1       9.078  21.753  53.444  1.00  0.00     0.118 C 
HETATM   24  C   UNL     1       8.305  20.585  52.845  1.00  0.00     0.026 C 
ENDBRANCH  20  23
ENDBRANCH  15  20
ENDBRANCH  11  12
ENDBRANCH   7  10
ENDBRANCH   5   6
BRANCH   1  25
HETATM   25  C   UNL     1       3.852  30.719  57.117  1.00  0.00     0.296 C 
BRANCH  25  26
HETATM   26  N   UNL     1       4.263  30.267  55.726  1.00  0.00    -0.066 N 
HETATM   27  H   UNL     1       5.293  30.408  55.681  1.00  0.00     0.280 HD
BRANCH  26  28
HETATM   28  C   UNL     1       3.668  31.161  54.650  1.00  0.00     0.231 C 
HETATM   29  C   UNL     1       2.397  31.831  55.144  1.00  0.00     0.034 C 
ENDBRANCH  26  28
BRANCH  26  30
HETATM   30  C   UNL     1       3.962  28.803  55.486  1.00  0.00     0.231 C 
HETATM   31  C   UNL     1       4.686  28.296  54.251  1.00  0.00     0.034 C 
ENDBRANCH  26  30
ENDBRANCH  25  26
ENDBRANCH   1  25
BRANCH   2  32
HETATM   32  C   UNL     1       3.666  33.157  59.174  1.00  0.00     0.225 A 
HETATM   33  N   UNL     1       3.004  33.989  58.367  1.00  0.00    -0.081 NA
HETATM   34  O   UNL     1       1.927  34.423  59.145  1.00  0.00    -0.103 OA
HETATM   35  N   UNL     1       1.942  33.826  60.397  1.00  0.00    -0.083 NA
HETATM   36  C   UNL     1       3.016  33.040  60.416  1.00  0.00     0.201 A 
BRANCH  36  37
HETATM   37  N   UNL     1       3.384  32.280  61.458  1.00  0.00    -0.379 N 
HETATM   38  H   UNL     1       3.692  32.717  62.323  1.00  0.00     0.158 HD
HETATM   39  H   UNL     1       3.180  31.285  61.533  1.00  0.00     0.158 HD
ENDBRANCH  36  37
ENDBRANCH   2  32
TORSDOF 13
ENDMDL
MODEL 5
REMARK VINA RESULT:      -8.0      2.618      4.398
REMARK  13 active torsions:
REMARK  status: ('A' for Active; 'I' for Inactive)
REMARK    1  A    between atoms: C_2  and  N_3 
REMARK    2  A    between atoms: N_3  and  C_5 
REMARK    3  A    between atoms: N_3  and  C_34 
REMARK    4  A    between atoms: C_5  and  C_6 
REMARK    5  A    between atoms: N_7  and  C_8 
REMARK    6  A    between atoms: C_12  and  N_13 
REMARK    7  A    between atoms: C_16  and  C_17 
REMARK       I    between atoms: C_17  and  N_18 
REMARK    8  A    between atoms: N_18  and  N_19 
REMARK    9  A    between atoms: C_20  and  C_21 
REMARK   10  A    between atoms: C_22  and  O_23 
REMARK   11  A    between atoms: C_25  and  N_26 
REMARK   12  A    between atoms: N_26  and  C_27 
REMARK   13  A    between atoms: N_26  and  C_29 
ROOT
HETATM    1  C   UNL     1       5.242  31.992  58.928  1.00  0.00     0.096 A 
HETATM    2  N   UNL     1       4.093  32.688  59.308  1.00  0.00    -0.215 N 
HETATM    3  N   UNL     1       3.010  32.037  58.799  1.00  0.00     0.012 NA
HETATM    4  N   UNL     1       3.414  31.036  58.035  1.00  0.00    -0.152 NA
HETATM    5  C   UNL     1       4.773  30.999  58.077  1.00  0.00     0.170 A 
ENDROOT
BRANCH   5   6
HETATM    6  C   UNL     1       5.585  30.051  57.329  1.00  0.00     0.293 C 
HETATM    7  N   UNL     1       5.481  28.746  57.766  1.00  0.00    -0.242 N 
HETATM    8  H   UNL     1       4.865  28.512  58.542  1.00  0.00     0.192 HD
HETATM    9  O   UNL     1       6.271  30.449  56.388  1.00  0.00    -0.264 OA
BRANCH   7  10
HETATM   10  N   UNL     1       6.233  27.778  57.173  1.00  0.00    -0.183 NA
HETATM   11  C   UNL     1       5.658  26.625  57.023  1.00  0.00     0.153 C 
BRANCH  11  12
HETATM   12  C   UNL     1       6.375  25.494  56.401  1.00  0.00     0.016 A 
HETATM   13  C   UNL     1       5.992  24.946  55.177  1.00  0.00     0.079 A 
HETATM   14  C   UNL     1       6.698  23.869  54.632  1.00  0.00     0.066 A 
HETATM   15  C   UNL     1       7.807  23.294  55.279  1.00  0.00     0.032 A 
HETATM   16  C   UNL     1       8.170  23.875  56.509  1.00  0.00     0.030 A 
HETATM   17  C   UNL     1       7.472  24.956  57.068  1.00  0.00     0.018 A 
BRANCH  13  18
HETATM   18  O   UNL     1       4.930  25.414  54.448  1.00  0.00    -0.360 OA
HETATM   19  H   UNL     1       5.265  26.122  53.857  1.00  0.00     0.217 HD
ENDBRANCH  13  18
BRANCH  15  20
HETATM   20  N   UNL     1       8.496  22.213  54.743  1.00  0.00    -0.382 N 
BRANCH  20  21
HETATM   21  C   UNL     1       8.674  22.052  53.293  1.00  0.00     0.118 C 
HETATM   22  C   UNL     1       8.153  20.704  52.819  1.00  0.00     0.026 C 
ENDBRANCH  20  21
BRANCH  20  23
HETATM   23  C   UNL     1       9.048  21.144  55.591  1.00  0.00     0.118 C 
HETATM   24  C   UNL     1       7.948  20.360  56.294  1.00  0.00     0.026 C 
ENDBRANCH  20  23
ENDBRANCH  15  20
ENDBRANCH  11  12
ENDBRANCH   7  10
ENDBRANCH   5   6
BRANCH   1  25
HETATM   25  C   UNL     1       6.624  32.231  59.417  1.00  0.00     0.296 C 
BRANCH  25  26
HETATM   26  N   UNL     1       7.048  31.344  60.575  1.00  0.00    -0.066 N 
HETATM   27  H   UNL     1       6.432  30.507  60.522  1.00  0.00     0.280 HD
BRANCH  26  28
HETATM   28  C   UNL     1       6.755  31.999  61.915  1.00  0.00     0.231 C 
HETATM   29  C   UNL     1       7.996  32.019  62.791  1.00  0.00     0.034 C 
ENDBRANCH  26  28
BRANCH  26  30
HETATM   30  C   UNL     1       8.488  30.895  60.458  1.00  0.00     0.231 C 
HETATM   31  C   UNL     1       9.193  31.621  59.324  1.00  0.00     0.034 C 
ENDBRANCH  26  30
ENDBRANCH  25  26
ENDBRANCH   1  25
BRANCH   2  32
HETATM   32  C   UNL     1       3.968  33.897  60.032  1.00  0.00     0.225 A 
HETATM   33  N   UNL     1       4.358  35.051  59.487  1.00  0.00    -0.081 NA
HETATM   34  O   UNL     1       4.057  36.002  60.467  1.00  0.00    -0.103 OA
HETATM   35  N   UNL     1       3.466  35.410  61.574  1.00  0.00    -0.083 NA
HETATM   36  C   UNL     1       3.408  34.107  61.305  1.00  0.00     0.201 A 
BRANCH  36  37
HETATM   37  N   UNL     1       2.895  33.183  62.131  1.00  0.00    -0.379 N 
HETATM   38  H   UNL     1       2.494  32.328  61.752  1.00  0.00     0.158 HD
HETATM   39  H   UNL     1       3.062  33.165  63.135  1.00  0.00     0.158 HD
ENDBRANCH  36  37
ENDBRANCH   2  32
TORSDOF 13
ENDMDL
MODEL 6
REMARK VINA RESULT:      -7.9      1.674      3.341
REMARK  13 active torsions:
REMARK  status: ('A' for Active; 'I' for Inactive)
REMARK    1  A    between atoms: C_2  and  N_3 
REMARK    2  A    between atoms: N_3  and  C_5 
REMARK    3  A    between atoms: N_3  and  C_34 
REMARK    4  A    between atoms: C_5  and  C_6 
REMARK    5  A    between atoms: N_7  and  C_8 
REMARK    6  A    between atoms: C_12  and  N_13 
REMARK    7  A    between atoms: C_16  and  C_17 
REMARK       I    between atoms: C_17  and  N_18 
REMARK    8  A    between atoms: N_18  and  N_19 
REMARK    9  A    between atoms: C_20  and  C_21 
REMARK   10  A    between atoms: C_22  and  O_23 
REMARK   11  A    between atoms: C_25  and  N_26 
REMARK   12  A    between atoms: N_26  and  C_27 
REMARK   13  A    between atoms: N_26  and  C_29 
ROOT
HETATM    1  C   UNL     1       5.713  32.868  60.576  1.00  0.00     0.096 A 
HETATM    2  N   UNL     1       4.867  33.541  61.459  1.00  0.00    -0.215 N 
HETATM    3  N   UNL     1       3.580  33.320  61.073  1.00  0.00     0.012 NA
HETATM    4  N   UNL     1       3.569  32.637  59.940  1.00  0.00    -0.152 NA
HETATM    5  C   UNL     1       4.858  32.368  59.602  1.00  0.00     0.170 A 
ENDROOT
BRANCH   5   6
HETATM    6  C   UNL     1       5.251  31.661  58.393  1.00  0.00     0.293 C 
HETATM    7  N   UNL     1       4.733  30.385  58.286  1.00  0.00    -0.242 N 
HETATM    8  H   UNL     1       4.120  30.018  59.011  1.00  0.00     0.192 HD
HETATM    9  O   UNL     1       5.976  32.220  57.570  1.00  0.00    -0.264 OA
BRANCH   7  10
HETATM   10  N   UNL     1       5.072  29.611  57.219  1.00  0.00    -0.183 NA
HETATM   11  C   UNL     1       5.784  28.559  57.485  1.00  0.00     0.153 C 
BRANCH  11  12
HETATM   12  C   UNL     1       6.222  27.646  56.410  1.00  0.00     0.016 A 
HETATM   13  C   UNL     1       6.970  28.081  55.317  1.00  0.00     0.079 A 
HETATM   14  C   UNL     1       7.354  27.181  54.319  1.00  0.00     0.066 A 
HETATM   15  C   UNL     1       7.013  25.817  54.367  1.00  0.00     0.032 A 
HETATM   16  C   UNL     1       6.263  25.410  55.487  1.00  0.00     0.030 A 
HETATM   17  C   UNL     1       5.870  26.302  56.496  1.00  0.00     0.018 A 
BRANCH  13  18
HETATM   18  O   UNL     1       7.366  29.383  55.152  1.00  0.00    -0.360 OA
HETATM   19  H   UNL     1       6.894  29.740  54.369  1.00  0.00     0.217 HD
ENDBRANCH  13  18
BRANCH  15  20
HETATM   20  N   UNL     1       7.383  24.926  53.366  1.00  0.00    -0.382 N 
BRANCH  20  21
HETATM   21  C   UNL     1       6.910  25.079  51.983  1.00  0.00     0.118 C 
HETATM   22  C   UNL     1       5.401  25.262  51.931  1.00  0.00     0.026 C 
ENDBRANCH  20  21
BRANCH  20  23
HETATM   23  C   UNL     1       8.230  23.755  53.640  1.00  0.00     0.118 C 
HETATM   24  C   UNL     1       7.641  22.483  53.043  1.00  0.00     0.026 C 
ENDBRANCH  20  23
ENDBRANCH  15  20
ENDBRANCH  11  12
ENDBRANCH   7  10
ENDBRANCH   5   6
BRANCH   1  25
HETATM   25  C   UNL     1       7.178  32.675  60.727  1.00  0.00     0.296 C 
BRANCH  25  26
HETATM   26  N   UNL     1       7.597  31.252  61.055  1.00  0.00    -0.066 N 
HETATM   27  H   UNL     1       6.720  30.757  61.315  1.00  0.00     0.280 HD
BRANCH  26  28
HETATM   28  C   UNL     1       8.490  31.203  62.285  1.00  0.00     0.231 C 
HETATM   29  C   UNL     1       8.069  32.250  63.301  1.00  0.00     0.034 C 
ENDBRANCH  26  28
BRANCH  26  30
HETATM   30  C   UNL     1       8.218  30.548  59.868  1.00  0.00     0.231 C 
HETATM   31  C   UNL     1       9.290  31.412  59.224  1.00  0.00     0.034 C 
ENDBRANCH  26  30
ENDBRANCH  25  26
ENDBRANCH   1  25
BRANCH   2  32
HETATM   32  C   UNL     1       5.187  34.384  62.551  1.00  0.00     0.225 A 
HETATM   33  N   UNL     1       5.761  35.570  62.339  1.00  0.00    -0.081 NA
HETATM   34  O   UNL     1       5.891  36.111  63.622  1.00  0.00    -0.103 OA
HETATM   35  N   UNL     1       5.369  35.256  64.581  1.00  0.00    -0.083 NA
HETATM   36  C   UNL     1       4.931  34.187  63.920  1.00  0.00     0.201 A 
BRANCH  36  37
HETATM   37  N   UNL     1       4.348  33.124  64.493  1.00  0.00    -0.379 N 
HETATM   38  H   UNL     1       3.756  32.508  63.941  1.00  0.00     0.158 HD
HETATM   39  H   UNL     1       4.617  32.752  65.402  1.00  0.00     0.158 HD
ENDBRANCH  36  37
ENDBRANCH   2  32
TORSDOF 13
ENDMDL
MODEL 7
REMARK VINA RESULT:      -7.7      2.567      3.646
REMARK  13 active torsions:
REMARK  status: ('A' for Active; 'I' for Inactive)
REMARK    1  A    between atoms: C_2  and  N_3 
REMARK    2  A    between atoms: N_3  and  C_5 
REMARK    3  A    between atoms: N_3  and  C_34 
REMARK    4  A    between atoms: C_5  and  C_6 
REMARK    5  A    between atoms: N_7  and  C_8 
REMARK    6  A    between atoms: C_12  and  N_13 
REMARK    7  A    between atoms: C_16  and  C_17 
REMARK       I    between atoms: C_17  and  N_18 
REMARK    8  A    between atoms: N_18  and  N_19 
REMARK    9  A    between atoms: C_20  and  C_21 
REMARK   10  A    between atoms: C_22  and  O_23 
REMARK   11  A    between atoms: C_25  and  N_26 
REMARK   12  A    between atoms: N_26  and  C_27 
REMARK   13  A    between atoms: N_26  and  C_29 
ROOT
HETATM    1  C   UNL     1       6.064  31.642  59.185  1.00  0.00     0.096 A 
HETATM    2  N   UNL     1       5.978  32.528  60.260  1.00  0.00    -0.215 N 
HETATM    3  N   UNL     1       7.206  32.610  60.846  1.00  0.00     0.012 NA
HETATM    4  N   UNL     1       8.029  31.750  60.271  1.00  0.00    -0.152 NA
HETATM    5  C   UNL     1       7.351  31.129  59.269  1.00  0.00     0.170 A 
ENDROOT
BRANCH   5   6
HETATM    6  C   UNL     1       7.919  30.084  58.429  1.00  0.00     0.293 C 
HETATM    7  N   UNL     1       7.300  28.856  58.553  1.00  0.00    -0.242 N 
HETATM    8  H   UNL     1       6.508  28.742  59.183  1.00  0.00     0.192 HD
HETATM    9  O   UNL     1       8.861  30.349  57.683  1.00  0.00    -0.264 OA
BRANCH   7  10
HETATM   10  N   UNL     1       7.777  27.791  57.852  1.00  0.00    -0.183 NA
HETATM   11  C   UNL     1       6.911  26.871  57.559  1.00  0.00     0.153 C 
BRANCH  11  12
HETATM   12  C   UNL     1       7.309  25.663  56.809  1.00  0.00     0.016 A 
HETATM   13  C   UNL     1       6.495  25.081  55.839  1.00  0.00     0.079 A 
HETATM   14  C   UNL     1       6.912  23.931  55.161  1.00  0.00     0.066 A 
HETATM   15  C   UNL     1       8.150  23.316  55.420  1.00  0.00     0.032 A 
HETATM   16  C   UNL     1       8.949  23.932  56.401  1.00  0.00     0.030 A 
HETATM   17  C   UNL     1       8.545  25.086  57.089  1.00  0.00     0.018 A 
BRANCH  13  18
HETATM   18  O   UNL     1       5.267  25.583  55.493  1.00  0.00    -0.360 OA
HETATM   19  H   UNL     1       5.168  26.454  55.933  1.00  0.00     0.217 HD
ENDBRANCH  13  18
BRANCH  15  20
HETATM   20  N   UNL     1       8.556  22.164  54.756  1.00  0.00    -0.382 N 
BRANCH  20  21
HETATM   21  C   UNL     1       8.488  22.051  53.292  1.00  0.00     0.118 C 
HETATM   22  C   UNL     1       8.262  20.611  52.859  1.00  0.00     0.026 C 
ENDBRANCH  20  21
BRANCH  20  23
HETATM   23  C   UNL     1       9.032  20.975  55.481  1.00  0.00     0.118 C 
HETATM   24  C   UNL     1       7.945  20.387  56.372  1.00  0.00     0.026 C 
ENDBRANCH  20  23
ENDBRANCH  15  20
ENDBRANCH  11  12
ENDBRANCH   7  10
ENDBRANCH   5   6
BRANCH   1  25
HETATM   25  C   UNL     1       5.022  31.398  58.154  1.00  0.00     0.296 C 
BRANCH  25  26
HETATM   26  N   UNL     1       5.458  31.704  56.732  1.00  0.00    -0.066 N 
HETATM   27  H   UNL     1       6.480  31.891  56.789  1.00  0.00     0.280 HD
BRANCH  26  28
HETATM   28  C   UNL     1       4.824  32.988  56.218  1.00  0.00     0.231 C 
HETATM   29  C   UNL     1       4.298  32.804  54.806  1.00  0.00     0.034 C 
ENDBRANCH  26  28
BRANCH  26  30
HETATM   30  C   UNL     1       5.228  30.537  55.796  1.00  0.00     0.231 C 
HETATM   31  C   UNL     1       4.423  29.445  56.479  1.00  0.00     0.034 C 
ENDBRANCH  26  30
ENDBRANCH  25  26
ENDBRANCH   1  25
BRANCH   2  32
HETATM   32  C   UNL     1       4.855  33.217  60.776  1.00  0.00     0.225 A 
HETATM   33  N   UNL     1       4.679  34.513  60.508  1.00  0.00    -0.081 NA
HETATM   34  O   UNL     1       3.476  34.826  61.147  1.00  0.00    -0.103 OA
HETATM   35  N   UNL     1       2.933  33.709  61.766  1.00  0.00    -0.083 NA
HETATM   36  C   UNL     1       3.784  32.712  61.535  1.00  0.00     0.201 A 
BRANCH  36  37
HETATM   37  N   UNL     1       3.616  31.453  61.967  1.00  0.00    -0.379 N 
HETATM   38  H   UNL     1       4.369  30.777  61.872  1.00  0.00     0.158 HD
HETATM   39  H   UNL     1       2.860  31.163  62.584  1.00  0.00     0.158 HD
ENDBRANCH  36  37
ENDBRANCH   2  32
TORSDOF 13
ENDMDL
MODEL 8
REMARK VINA RESULT:      -7.7      2.317     10.441
REMARK  13 active torsions:
REMARK  status: ('A' for Active; 'I' for Inactive)
REMARK    1  A    between atoms: C_2  and  N_3 
REMARK    2  A    between atoms: N_3  and  C_5 
REMARK    3  A    between atoms: N_3  and  C_34 
REMARK    4  A    between atoms: C_5  and  C_6 
REMARK    5  A    between atoms: N_7  and  C_8 
REMARK    6  A    between atoms: C_12  and  N_13 
REMARK    7  A    between atoms: C_16  and  C_17 
REMARK       I    between atoms: C_17  and  N_18 
REMARK    8  A    between atoms: N_18  and  N_19 
REMARK    9  A    between atoms: C_20  and  C_21 
REMARK   10  A    between atoms: C_22  and  O_23 
REMARK   11  A    between atoms: C_25  and  N_26 
REMARK   12  A    between atoms: N_26  and  C_27 
REMARK   13  A    between atoms: N_26  and  C_29 
ROOT
HETATM    1  C   UNL     1       7.067  28.969  57.505  1.00  0.00     0.096 A 
HETATM    2  N   UNL     1       7.897  28.076  56.825  1.00  0.00    -0.215 N 
HETATM    3  N   UNL     1       9.173  28.256  57.267  1.00  0.00     0.012 NA
HETATM    4  N   UNL     1       9.211  29.278  58.104  1.00  0.00    -0.152 NA
HETATM    5  C   UNL     1       7.943  29.747  58.251  1.00  0.00     0.170 A 
ENDROOT
BRANCH   5   6
HETATM    6  C   UNL     1       7.590  30.895  59.071  1.00  0.00     0.293 C 
HETATM    7  N   UNL     1       7.846  30.732  60.418  1.00  0.00    -0.242 N 
HETATM    8  H   UNL     1       8.261  29.867  60.760  1.00  0.00     0.192 HD
HETATM    9  O   UNL     1       7.120  31.901  58.540  1.00  0.00    -0.264 OA
BRANCH   7  10
HETATM   10  N   UNL     1       7.510  31.722  61.290  1.00  0.00    -0.183 NA
HETATM   11  C   UNL     1       6.883  31.347  62.362  1.00  0.00     0.153 C 
BRANCH  11  12
HETATM   12  C   UNL     1       6.458  32.330  63.378  1.00  0.00     0.016 A 
HETATM   13  C   UNL     1       5.118  32.649  63.596  1.00  0.00     0.079 A 
HETATM   14  C   UNL     1       4.765  33.594  64.564  1.00  0.00     0.066 A 
HETATM   15  C   UNL     1       5.724  34.257  65.350  1.00  0.00     0.032 A 
HETATM   16  C   UNL     1       7.066  33.907  65.108  1.00  0.00     0.030 A 
HETATM   17  C   UNL     1       7.436  32.961  64.141  1.00  0.00     0.018 A 
BRANCH  13  18
HETATM   18  O   UNL     1       4.089  32.074  62.897  1.00  0.00    -0.360 OA
HETATM   19  H   UNL     1       3.264  32.544  63.144  1.00  0.00     0.217 HD
ENDBRANCH  13  18
BRANCH  15  20
HETATM   20  N   UNL     1       5.371  35.208  66.301  1.00  0.00    -0.382 N 
BRANCH  20  21
HETATM   21  C   UNL     1       5.785  35.086  67.706  1.00  0.00     0.118 C 
HETATM   22  C   UNL     1       5.073  33.932  68.394  1.00  0.00     0.026 C 
ENDBRANCH  20  21
BRANCH  20  23
HETATM   23  C   UNL     1       4.525  36.366  65.968  1.00  0.00     0.118 C 
HETATM   24  C   UNL     1       4.928  36.991  64.639  1.00  0.00     0.026 C 
ENDBRANCH  20  23
ENDBRANCH  15  20
ENDBRANCH  11  12
ENDBRANCH   7  10
ENDBRANCH   5   6
BRANCH   1  25
HETATM   25  C   UNL     1       5.582  28.990  57.481  1.00  0.00     0.296 C 
BRANCH  25  26
HETATM   26  N   UNL     1       4.978  30.251  56.888  1.00  0.00    -0.066 N 
HETATM   27  H   UNL     1       5.709  30.984  56.991  1.00  0.00     0.280 HD
BRANCH  26  28
HETATM   28  C   UNL     1       3.783  30.731  57.698  1.00  0.00     0.231 C 
HETATM   29  C   UNL     1       3.674  32.245  57.656  1.00  0.00     0.034 C 
ENDBRANCH  26  28
BRANCH  26  30
HETATM   30  C   UNL     1       4.649  30.095  55.419  1.00  0.00     0.231 C 
HETATM   31  C   UNL     1       4.089  28.712  55.133  1.00  0.00     0.034 C 
ENDBRANCH  26  30
ENDBRANCH  25  26
ENDBRANCH   1  25
BRANCH   2  32
HETATM   32  C   UNL     1       7.584  27.157  55.795  1.00  0.00     0.225 A 
HETATM   33  N   UNL     1       7.356  25.874  56.085  1.00  0.00    -0.081 NA
HETATM   34  O   UNL     1       7.056  25.300  54.847  1.00  0.00    -0.103 OA
HETATM   35  N   UNL     1       7.081  26.250  53.836  1.00  0.00    -0.083 NA
HETATM   36  C   UNL     1       7.405  27.400  54.421  1.00  0.00     0.201 A 
BRANCH  36  37
HETATM   37  N   UNL     1       7.529  28.572  53.780  1.00  0.00    -0.379 N 
HETATM   38  H   UNL     1       7.619  29.435  54.310  1.00  0.00     0.158 HD
HETATM   39  H   UNL     1       7.755  28.654  52.791  1.00  0.00     0.158 HD
ENDBRANCH  36  37
ENDBRANCH   2  32
TORSDOF 13
ENDMDL
MODEL 9
REMARK VINA RESULT:      -7.7      2.000      3.405
REMARK  13 active torsions:
REMARK  status: ('A' for Active; 'I' for Inactive)
REMARK    1  A    between atoms: C_2  and  N_3 
REMARK    2  A    between atoms: N_3  and  C_5 
REMARK    3  A    between atoms: N_3  and  C_34 
REMARK    4  A    between atoms: C_5  and  C_6 
REMARK    5  A    between atoms: N_7  and  C_8 
REMARK    6  A    between atoms: C_12  and  N_13 
REMARK    7  A    between atoms: C_16  and  C_17 
REMARK       I    between atoms: C_17  and  N_18 
REMARK    8  A    between atoms: N_18  and  N_19 
REMARK    9  A    between atoms: C_20  and  C_21 
REMARK   10  A    between atoms: C_22  and  O_23 
REMARK   11  A    between atoms: C_25  and  N_26 
REMARK   12  A    between atoms: N_26  and  C_27 
REMARK   13  A    between atoms: N_26  and  C_29 
ROOT
HETATM    1  C   UNL     1       5.460  33.053  61.016  1.00  0.00     0.096 A 
HETATM    2  N   UNL     1       4.760  34.240  61.237  1.00  0.00    -0.215 N 
HETATM    3  N   UNL     1       4.294  34.692  60.039  1.00  0.00     0.012 NA
HETATM    4  N   UNL     1       4.748  33.919  59.068  1.00  0.00    -0.152 NA
HETATM    5  C   UNL     1       5.482  32.924  59.633  1.00  0.00     0.170 A 
ENDROOT
BRANCH   5   6
HETATM    6  C   UNL     1       6.177  31.894  58.875  1.00  0.00     0.293 C 
HETATM    7  N   UNL     1       5.364  30.869  58.433  1.00  0.00    -0.242 N 
HETATM    8  H   UNL     1       4.366  30.883  58.633  1.00  0.00     0.192 HD
HETATM    9  O   UNL     1       7.386  32.000  58.672  1.00  0.00    -0.264 OA
BRANCH   7  10
HETATM   10  N   UNL     1       5.913  29.824  57.755  1.00  0.00    -0.183 NA
HETATM   11  C   UNL     1       5.081  28.921  57.333  1.00  0.00     0.153 C 
BRANCH  11  12
HETATM   12  C   UNL     1       5.557  27.735  56.593  1.00  0.00     0.016 A 
HETATM   13  C   UNL     1       6.456  27.826  55.531  1.00  0.00     0.079 A 
HETATM   14  C   UNL     1       6.871  26.675  54.854  1.00  0.00     0.066 A 
HETATM   15  C   UNL     1       6.412  25.393  55.205  1.00  0.00     0.032 A 
HETATM   16  C   UNL     1       5.511  25.336  56.286  1.00  0.00     0.030 A 
HETATM   17  C   UNL     1       5.086  26.483  56.974  1.00  0.00     0.018 A 
BRANCH  13  18
HETATM   18  O   UNL     1       6.976  29.016  55.091  1.00  0.00    -0.360 OA
HETATM   19  H   UNL     1       7.077  29.602  55.870  1.00  0.00     0.217 HD
ENDBRANCH  13  18
BRANCH  15  20
HETATM   20  N   UNL     1       6.814  24.251  54.522  1.00  0.00    -0.382 N 
BRANCH  20  21
HETATM   21  C   UNL     1       7.491  23.140  55.205  1.00  0.00     0.118 C 
HETATM   22  C   UNL     1       8.739  23.616  55.931  1.00  0.00     0.026 C 
ENDBRANCH  20  21
BRANCH  20  23
HETATM   23  C   UNL     1       6.627  24.107  53.069  1.00  0.00     0.118 C 
HETATM   24  C   UNL     1       7.959  23.983  52.341  1.00  0.00     0.026 C 
ENDBRANCH  20  23
ENDBRANCH  15  20
ENDBRANCH  11  12
ENDBRANCH   7  10
ENDBRANCH   5   6
BRANCH   1  25
HETATM   25  C   UNL     1       5.972  32.120  62.053  1.00  0.00     0.296 C 
BRANCH  25  26
HETATM   26  N   UNL     1       7.424  32.340  62.439  1.00  0.00    -0.066 N 
HETATM   27  H   UNL     1       7.693  33.245  62.003  1.00  0.00     0.280 HD
BRANCH  26  28
HETATM   28  C   UNL     1       8.330  31.287  61.821  1.00  0.00     0.231 C 
HETATM   29  C   UNL     1       9.669  31.888  61.429  1.00  0.00     0.034 C 
ENDBRANCH  26  28
BRANCH  26  30
HETATM   30  C   UNL     1       7.610  32.448  63.937  1.00  0.00     0.231 C 
HETATM   31  C   UNL     1       7.374  33.872  64.411  1.00  0.00     0.034 C 
ENDBRANCH  26  30
ENDBRANCH  25  26
ENDBRANCH   1  25
BRANCH   2  32
HETATM   32  C   UNL     1       4.567  34.965  62.437  1.00  0.00     0.225 A 
HETATM   33  N   UNL     1       5.206  36.119  62.637  1.00  0.00    -0.081 NA
HETATM   34  O   UNL     1       4.748  36.542  63.888  1.00  0.00    -0.103 OA
HETATM   35  N   UNL     1       3.821  35.651  64.409  1.00  0.00    -0.083 NA
HETATM   36  C   UNL     1       3.706  34.675  63.511  1.00  0.00     0.201 A 
BRANCH  36  37
HETATM   37  N   UNL     1       2.896  33.613  63.642  1.00  0.00    -0.379 N 
HETATM   38  H   UNL     1       2.317  33.316  62.861  1.00  0.00     0.158 HD
HETATM   39  H   UNL     1       2.966  32.938  64.401  1.00  0.00     0.158 HD
ENDBRANCH  36  37
ENDBRANCH   2  32
TORSDOF 13
ENDMDL
MODEL 10
REMARK VINA RESULT:      -7.5      1.988      3.444
REMARK  13 active torsions:
REMARK  status: ('A' for Active; 'I' for Inactive)
REMARK    1  A    between atoms: C_2  and  N_3 
REMARK    2  A    between atoms: N_3  and  C_5 
REMARK    3  A    between atoms: N_3  and  C_34 
REMARK    4  A    between atoms: C_5  and  C_6 
REMARK    5  A    between atoms: N_7  and  C_8 
REMARK    6  A    between atoms: C_12  and  N_13 
REMARK    7  A    between atoms: C_16  and  C_17 
REMARK       I    between atoms: C_17  and  N_18 
REMARK    8  A    between atoms: N_18  and  N_19 
REMARK    9  A    between atoms: C_20  and  C_21 
REMARK   10  A    between atoms: C_22  and  O_23 
REMARK   11  A    between atoms: C_25  and  N_26 
REMARK   12  A    between atoms: N_26  and  C_27 
REMARK   13  A    between atoms: N_26  and  C_29 
ROOT
HETATM    1  C   UNL     1       5.469  33.024  61.073  1.00  0.00     0.096 A 
HETATM    2  N   UNL     1       4.592  34.072  61.355  1.00  0.00    -0.215 N 
HETATM    3  N   UNL     1       3.907  34.376  60.217  1.00  0.00     0.012 NA
HETATM    4  N   UNL     1       4.376  33.656  59.213  1.00  0.00    -0.152 NA
HETATM    5  C   UNL     1       5.347  32.838  59.702  1.00  0.00     0.170 A 
ENDROOT
BRANCH   5   6
HETATM    6  C   UNL     1       6.124  31.919  58.884  1.00  0.00     0.293 C 
HETATM    7  N   UNL     1       5.442  30.779  58.507  1.00  0.00    -0.242 N 
HETATM    8  H   UNL     1       4.474  30.643  58.790  1.00  0.00     0.192 HD
HETATM    9  O   UNL     1       7.282  32.205  58.581  1.00  0.00    -0.264 OA
BRANCH   7  10
HETATM   10  N   UNL     1       6.085  29.823  57.782  1.00  0.00    -0.183 NA
HETATM   11  C   UNL     1       5.325  29.001  57.126  1.00  0.00     0.153 C 
BRANCH  11  12
HETATM   12  C   UNL     1       5.904  27.916  56.310  1.00  0.00     0.016 A 
HETATM   13  C   UNL     1       5.412  26.611  56.341  1.00  0.00     0.079 A 
HETATM   14  C   UNL     1       6.000  25.614  55.557  1.00  0.00     0.066 A 
HETATM   15  C   UNL     1       7.096  25.872  54.714  1.00  0.00     0.032 A 
HETATM   16  C   UNL     1       7.563  27.199  54.702  1.00  0.00     0.030 A 
HETATM   17  C   UNL     1       6.984  28.211  55.483  1.00  0.00     0.018 A 
BRANCH  13  18
HETATM   18  O   UNL     1       4.350  26.231  57.120  1.00  0.00    -0.360 OA
HETATM   19  H   UNL     1       3.566  26.155  56.536  1.00  0.00     0.217 HD
ENDBRANCH  13  18
BRANCH  15  20
HETATM   20  N   UNL     1       7.689  24.876  53.947  1.00  0.00    -0.382 N 
BRANCH  20  21
HETATM   21  C   UNL     1       7.960  25.062  52.514  1.00  0.00     0.118 C 
HETATM   22  C   UNL     1       6.690  25.405  51.751  1.00  0.00     0.026 C 
ENDBRANCH  20  21
BRANCH  20  23
HETATM   23  C   UNL     1       8.037  23.562  54.511  1.00  0.00     0.118 C 
HETATM   24  C   UNL     1       8.469  22.582  53.429  1.00  0.00     0.026 C 
ENDBRANCH  20  23
ENDBRANCH  15  20
ENDBRANCH  11  12
ENDBRANCH   7  10
ENDBRANCH   5   6
BRANCH   1  25
HETATM   25  C   UNL     1       6.268  32.249  62.056  1.00  0.00     0.296 C 
BRANCH  25  26
HETATM   26  N   UNL     1       7.677  32.771  62.278  1.00  0.00    -0.066 N 
HETATM   27  H   UNL     1       7.698  33.711  61.832  1.00  0.00     0.280 HD
BRANCH  26  28
HETATM   28  C   UNL     1       8.706  31.931  61.539  1.00  0.00     0.231 C 
HETATM   29  C   UNL     1       8.894  30.585  62.217  1.00  0.00     0.034 C 
ENDBRANCH  26  28
BRANCH  26  30
HETATM   30  C   UNL     1       8.009  32.923  63.747  1.00  0.00     0.231 C 
HETATM   31  C   UNL     1       6.745  33.091  64.574  1.00  0.00     0.034 C 
ENDBRANCH  26  30
ENDBRANCH  25  26
ENDBRANCH   1  25
BRANCH   2  32
HETATM   32  C   UNL     1       4.414  34.803  62.554  1.00  0.00     0.225 A 
HETATM   33  N   UNL     1       3.544  34.384  63.475  1.00  0.00    -0.081 NA
HETATM   34  O   UNL     1       3.668  35.323  64.503  1.00  0.00    -0.103 OA
HETATM   35  N   UNL     1       4.628  36.277  64.197  1.00  0.00    -0.083 NA
HETATM   36  C   UNL     1       5.093  35.955  62.992  1.00  0.00     0.201 A 
BRANCH  36  37
HETATM   37  N   UNL     1       6.047  36.635  62.338  1.00  0.00    -0.379 N 
HETATM   38  H   UNL     1       6.008  37.650  62.293  1.00  0.00     0.158 HD
HETATM   39  H   UNL     1       6.937  36.230  62.055  1.00  0.00     0.158 HD
ENDBRANCH  36  37
ENDBRANCH   2  32
TORSDOF 13
ENDMDL
