MODEL 1
REMARK VINA RESULT:     -11.9      0.000      0.000
REMARK  8 active torsions:
REMARK  status: ('A' for Active; 'I' for Inactive)
REMARK    1  A    between atoms: C_4  and  C_5 
REMARK    2  A    between atoms: C_5  and  N_6 
REMARK    3  A    between atoms: C_5  and  C_36 
REMARK    4  A    between atoms: N_10  and  C_11 
REMARK    5  A    between atoms: C_13  and  C_14 
REMARK       I    between atoms: C_14  and  N_15 
REMARK    6  A    between atoms: N_15  and  C_16 
REMARK    7  A    between atoms: C_19  and  O_20 
REMARK    8  A    between atoms: O_20  and  C_21 
ROOT
HETATM    1  C   UNL     1       8.020  27.979  57.585  1.00  0.00     0.181 C 
HETATM    2  N   UNL     1       7.145  29.009  57.626  1.00  0.00    -0.351 N 
HETATM    3  C   UNL     1       7.675  30.347  57.839  1.00  0.00     0.185 C 
HETATM    4  C   UNL     1       8.918  30.518  56.995  1.00  0.00     0.140 C 
HETATM    5  C   UNL     1       9.829  29.330  57.182  1.00  0.00     0.248 C 
HETATM    6  O   UNL     1      11.047  29.484  57.118  1.00  0.00    -0.271 OA
HETATM    7  N   UNL     1       9.283  28.080  57.355  1.00  0.00    -0.185 NA
HETATM    8  H   UNL     1       6.284  28.810  58.127  1.00  0.00     0.163 HD
ENDROOT
BRANCH   1   9
HETATM    9  N   UNL     1       7.415  26.774  57.868  1.00  0.00    -0.250 NA
HETATM   10  C   UNL     1       8.324  25.600  57.843  1.00  0.00     0.126 C 
HETATM   11  C   UNL     1       8.651  25.188  56.391  1.00  0.00     0.251 C 
HETATM   12  N   UNL     1       7.352  24.854  55.651  1.00  0.00    -0.057 N 
HETATM   13  H   UNL     1       6.897  24.107  56.184  1.00  0.00     0.281 HD
HETATM   14  C   UNL     1       6.378  26.026  55.697  1.00  0.00     0.251 C 
HETATM   15  C   UNL     1       6.145  26.486  57.154  1.00  0.00     0.126 C 
BRANCH  12  16
HETATM   16  C   UNL     1       7.597  24.236  54.272  1.00  0.00     0.254 C 
BRANCH  16  17
HETATM   17  C   UNL     1       6.690  24.722  53.143  1.00  0.00    -0.023 A 
HETATM   18  C   UNL     1       7.180  25.695  52.247  1.00  0.00     0.009 A 
HETATM   19  C   UNL     1       6.380  26.204  51.221  1.00  0.00     0.001 A 
HETATM   20  C   UNL     1       5.075  25.753  51.066  1.00  0.00     0.000 A 
HETATM   21  C   UNL     1       4.573  24.785  51.927  1.00  0.00     0.001 A 
HETATM   22  C   UNL     1       5.373  24.271  52.951  1.00  0.00     0.009 A 
ENDBRANCH  16  17
BRANCH  16  23
HETATM   23  C   UNL     1       7.877  22.736  54.371  1.00  0.00    -0.023 A 
HETATM   24  C   UNL     1       7.620  22.083  55.596  1.00  0.00     0.009 A 
HETATM   25  C   UNL     1       7.812  20.707  55.738  1.00  0.00     0.001 A 
HETATM   26  C   UNL     1       8.262  19.955  54.658  1.00  0.00     0.000 A 
HETATM   27  C   UNL     1       8.525  20.578  53.442  1.00  0.00     0.001 A 
HETATM   28  C   UNL     1       8.333  21.956  53.297  1.00  0.00     0.009 A 
ENDBRANCH  16  23
ENDBRANCH  12  16
ENDBRANCH   1   9
BRANCH   3  29
HETATM   29  C   UNL     1       7.938  30.602  59.346  1.00  0.00     0.245 C 
HETATM   30  N   UNL     1       7.297  31.736  59.823  1.00  0.00    -0.325 N 
HETATM   31  H   UNL     1       6.836  32.339  59.152  1.00  0.00     0.169 HD
HETATM   32  O   UNL     1       8.619  29.821  60.010  1.00  0.00    -0.271 OA
BRANCH  30  33
HETATM   33  C   UNL     1       7.177  32.150  61.169  1.00  0.00     0.035 A 
HETATM   34  C   UNL     1       8.264  32.394  62.012  1.00  0.00     0.032 A 
HETATM   35  C   UNL     1       8.057  32.751  63.349  1.00  0.00     0.039 A 
HETATM   36  C   UNL     1       6.764  32.889  63.846  1.00  0.00     0.076 A 
HETATM   37  C   UNL     1       5.671  32.636  63.021  1.00  0.00     0.039 A 
HETATM   38  C   UNL     1       5.878  32.275  61.685  1.00  0.00     0.032 A 
BRANCH  36  39
HETATM   39  O   UNL     1       6.632  33.182  65.182  1.00  0.00    -0.311 OA
BRANCH  39  40
HETATM   40  C   UNL     1       5.680  34.106  65.549  1.00  0.00     0.076 A 
HETATM   41  C   UNL     1       5.661  35.299  64.823  1.00  0.00     0.037 A 
HETATM   42  C   UNL     1       4.695  36.268  65.097  1.00  0.00     0.003 A 
HETATM   43  C   UNL     1       3.742  36.041  66.087  1.00  0.00     0.000 A 
HETATM   44  C   UNL     1       3.747  34.841  66.800  1.00  0.00     0.003 A 
HETATM   45  C   UNL     1       4.710  33.868  66.527  1.00  0.00     0.037 A 
ENDBRANCH  39  40
ENDBRANCH  36  39
ENDBRANCH  30  33
ENDBRANCH   3  29
TORSDOF 8
ENDMDL
MODEL 2
REMARK VINA RESULT:     -11.8      1.235      3.337
REMARK  8 active torsions:
REMARK  status: ('A' for Active; 'I' for Inactive)
REMARK    1  A    between atoms: C_4  and  C_5 
REMARK    2  A    between atoms: C_5  and  N_6 
REMARK    3  A    between atoms: C_5  and  C_36 
REMARK    4  A    between atoms: N_10  and  C_11 
REMARK    5  A    between atoms: C_13  and  C_14 
REMARK       I    between atoms: C_14  and  N_15 
REMARK    6  A    between atoms: N_15  and  C_16 
REMARK    7  A    between atoms: C_19  and  O_20 
REMARK    8  A    between atoms: O_20  and  C_21 
ROOT
HETATM    1  C   UNL     1       7.986  27.344  57.402  1.00  0.00     0.181 C 
HETATM    2  N   UNL     1       6.945  28.026  56.872  1.00  0.00    -0.351 N 
HETATM    3  C   UNL     1       7.086  29.465  56.705  1.00  0.00     0.185 C 
HETATM    4  C   UNL     1       8.465  29.758  56.160  1.00  0.00     0.140 C 
HETATM    5  C   UNL     1       9.501  29.008  56.961  1.00  0.00     0.248 C 
HETATM    6  O   UNL     1      10.615  29.501  57.122  1.00  0.00    -0.271 OA
HETATM    7  N   UNL     1       9.205  27.755  57.442  1.00  0.00    -0.185 NA
HETATM    8  H   UNL     1       6.033  27.725  57.203  1.00  0.00     0.163 HD
ENDROOT
BRANCH   1   9
HETATM    9  N   UNL     1       7.591  26.145  57.954  1.00  0.00    -0.250 NA
HETATM   10  C   UNL     1       8.509  25.007  57.690  1.00  0.00     0.126 C 
HETATM   11  C   UNL     1       8.344  24.490  56.244  1.00  0.00     0.251 C 
HETATM   12  N   UNL     1       6.894  24.050  56.022  1.00  0.00    -0.057 N 
HETATM   13  H   UNL     1       6.697  23.332  56.726  1.00  0.00     0.281 HD
HETATM   14  C   UNL     1       5.922  25.185  56.328  1.00  0.00     0.251 C 
HETATM   15  C   UNL     1       6.174  25.753  57.744  1.00  0.00     0.126 C 
BRANCH  12  16
HETATM   16  C   UNL     1       6.689  23.331  54.687  1.00  0.00     0.254 C 
BRANCH  16  17
HETATM   17  C   UNL     1       7.536  22.082  54.455  1.00  0.00    -0.023 A 
HETATM   18  C   UNL     1       7.912  21.749  53.137  1.00  0.00     0.009 A 
HETATM   19  C   UNL     1       8.652  20.596  52.863  1.00  0.00     0.001 A 
HETATM   20  C   UNL     1       9.036  19.751  53.898  1.00  0.00     0.000 A 
HETATM   21  C   UNL     1       8.690  20.064  55.207  1.00  0.00     0.001 A 
HETATM   22  C   UNL     1       7.954  21.220  55.483  1.00  0.00     0.009 A 
ENDBRANCH  16  17
BRANCH  16  23
HETATM   23  C   UNL     1       6.543  24.322  53.532  1.00  0.00    -0.023 A 
HETATM   24  C   UNL     1       5.286  24.438  52.900  1.00  0.00     0.009 A 
HETATM   25  C   UNL     1       5.074  25.356  51.870  1.00  0.00     0.001 A 
HETATM   26  C   UNL     1       6.114  26.179  51.450  1.00  0.00     0.000 A 
HETATM   27  C   UNL     1       7.362  26.080  52.056  1.00  0.00     0.001 A 
HETATM   28  C   UNL     1       7.576  25.161  53.089  1.00  0.00     0.009 A 
ENDBRANCH  16  23
ENDBRANCH  12  16
ENDBRANCH   1   9
BRANCH   3  29
HETATM   29  C   UNL     1       6.801  30.204  58.038  1.00  0.00     0.245 C 
HETATM   30  N   UNL     1       7.873  30.167  58.918  1.00  0.00    -0.325 N 
HETATM   31  H   UNL     1       8.667  29.585  58.675  1.00  0.00     0.169 HD
HETATM   32  O   UNL     1       5.730  30.782  58.225  1.00  0.00    -0.271 OA
BRANCH  30  33
HETATM   33  C   UNL     1       8.015  30.885  60.127  1.00  0.00     0.035 A 
HETATM   34  C   UNL     1       8.602  30.363  61.282  1.00  0.00     0.032 A 
HETATM   35  C   UNL     1       8.657  31.124  62.455  1.00  0.00     0.039 A 
HETATM   36  C   UNL     1       8.145  32.419  62.475  1.00  0.00     0.076 A 
HETATM   37  C   UNL     1       7.545  32.947  61.335  1.00  0.00     0.039 A 
HETATM   38  C   UNL     1       7.487  32.185  60.164  1.00  0.00     0.032 A 
BRANCH  36  39
HETATM   39  O   UNL     1       8.176  33.087  63.675  1.00  0.00    -0.311 OA
BRANCH  39  40
HETATM   40  C   UNL     1       6.983  33.293  64.330  1.00  0.00     0.076 A 
HETATM   41  C   UNL     1       7.069  33.732  65.653  1.00  0.00     0.037 A 
HETATM   42  C   UNL     1       5.907  34.013  66.373  1.00  0.00     0.003 A 
HETATM   43  C   UNL     1       4.660  33.866  65.767  1.00  0.00     0.000 A 
HETATM   44  C   UNL     1       4.574  33.447  64.440  1.00  0.00     0.003 A 
HETATM   45  C   UNL     1       5.734  33.168  63.716  1.00  0.00     0.037 A 
ENDBRANCH  39  40
ENDBRANCH  36  39
ENDBRANCH  30  33
ENDBRANCH   3  29
TORSDOF 8
ENDMDL
MODEL 3
REMARK VINA RESULT:     -11.4      2.937     11.974
REMARK  8 active torsions:
REMARK  status: ('A' for Active; 'I' for Inactive)
REMARK    1  A    between atoms: C_4  and  C_5 
REMARK    2  A    between atoms: C_5  and  N_6 
REMARK    3  A    between atoms: C_5  and  C_36 
REMARK    4  A    between atoms: N_10  and  C_11 
REMARK    5  A    between atoms: C_13  and  C_14 
REMARK       I    between atoms: C_14  and  N_15 
REMARK    6  A    between atoms: N_15  and  C_16 
REMARK    7  A    between atoms: C_19  and  O_20 
REMARK    8  A    between atoms: O_20  and  C_21 
ROOT
HETATM    1  C   UNL     1       3.585  32.926  58.193  1.00  0.00     0.181 C 
HETATM    2  N   UNL     1       4.904  32.630  58.253  1.00  0.00    -0.351 N 
HETATM    3  C   UNL     1       5.507  31.963  57.109  1.00  0.00     0.185 C 
HETATM    4  C   UNL     1       4.991  32.607  55.843  1.00  0.00     0.140 C 
HETATM    5  C   UNL     1       3.489  32.733  55.910  1.00  0.00     0.248 C 
HETATM    6  O   UNL     1       2.827  32.648  54.878  1.00  0.00    -0.271 OA
HETATM    7  N   UNL     1       2.887  33.010  57.114  1.00  0.00    -0.185 NA
HETATM    8  H   UNL     1       5.217  32.289  59.157  1.00  0.00     0.163 HD
ENDROOT
BRANCH   1   9
HETATM    9  N   UNL     1       3.034  33.088  59.445  1.00  0.00    -0.250 NA
HETATM   10  C   UNL     1       3.285  34.412  60.069  1.00  0.00     0.126 C 
HETATM   11  C   UNL     1       4.732  34.502  60.603  1.00  0.00     0.251 C 
HETATM   12  N   UNL     1       4.965  33.391  61.632  1.00  0.00    -0.057 N 
HETATM   13  H   UNL     1       4.261  33.520  62.364  1.00  0.00     0.281 HD
HETATM   14  C   UNL     1       4.671  32.019  61.034  1.00  0.00     0.251 C 
HETATM   15  C   UNL     1       3.255  31.986  60.415  1.00  0.00     0.126 C 
BRANCH  12  16
HETATM   16  C   UNL     1       6.301  33.532  62.366  1.00  0.00     0.254 C 
BRANCH  16  17
HETATM   17  C   UNL     1       7.420  32.593  61.920  1.00  0.00    -0.023 A 
HETATM   18  C   UNL     1       7.710  31.459  62.707  1.00  0.00     0.009 A 
HETATM   19  C   UNL     1       8.750  30.589  62.368  1.00  0.00     0.001 A 
HETATM   20  C   UNL     1       9.520  30.830  61.236  1.00  0.00     0.000 A 
HETATM   21  C   UNL     1       9.245  31.934  60.437  1.00  0.00     0.001 A 
HETATM   22  C   UNL     1       8.202  32.802  60.772  1.00  0.00     0.009 A 
ENDBRANCH  16  17
BRANCH  16  23
HETATM   23  C   UNL     1       6.097  33.743  63.867  1.00  0.00    -0.023 A 
HETATM   24  C   UNL     1       4.779  33.754  64.372  1.00  0.00     0.009 A 
HETATM   25  C   UNL     1       4.527  33.896  65.738  1.00  0.00     0.001 A 
HETATM   26  C   UNL     1       5.587  34.029  66.628  1.00  0.00     0.000 A 
HETATM   27  C   UNL     1       6.894  34.024  66.152  1.00  0.00     0.001 A 
HETATM   28  C   UNL     1       7.149  33.880  64.785  1.00  0.00     0.009 A 
ENDBRANCH  16  23
ENDBRANCH  12  16
ENDBRANCH   1   9
BRANCH   3  29
HETATM   29  C   UNL     1       5.235  30.437  57.157  1.00  0.00     0.245 C 
HETATM   30  N   UNL     1       6.074  29.711  56.325  1.00  0.00    -0.325 N 
HETATM   31  H   UNL     1       6.681  30.225  55.697  1.00  0.00     0.169 HD
HETATM   32  O   UNL     1       4.376  29.970  57.906  1.00  0.00    -0.271 OA
BRANCH  30  33
HETATM   33  C   UNL     1       6.217  28.306  56.265  1.00  0.00     0.035 A 
HETATM   34  C   UNL     1       5.204  27.434  55.858  1.00  0.00     0.032 A 
HETATM   35  C   UNL     1       5.410  26.051  55.877  1.00  0.00     0.039 A 
HETATM   36  C   UNL     1       6.637  25.530  56.282  1.00  0.00     0.076 A 
HETATM   37  C   UNL     1       7.651  26.386  56.703  1.00  0.00     0.039 A 
HETATM   38  C   UNL     1       7.443  27.770  56.688  1.00  0.00     0.032 A 
BRANCH  36  39
HETATM   39  O   UNL     1       6.751  24.161  56.335  1.00  0.00    -0.311 OA
BRANCH  39  40
HETATM   40  C   UNL     1       7.217  23.509  55.215  1.00  0.00     0.076 A 
HETATM   41  C   UNL     1       7.672  22.202  55.403  1.00  0.00     0.037 A 
HETATM   42  C   UNL     1       8.113  21.453  54.312  1.00  0.00     0.003 A 
HETATM   43  C   UNL     1       8.089  22.005  53.032  1.00  0.00     0.000 A 
HETATM   44  C   UNL     1       7.616  23.303  52.841  1.00  0.00     0.003 A 
HETATM   45  C   UNL     1       7.171  24.055  53.929  1.00  0.00     0.037 A 
ENDBRANCH  39  40
ENDBRANCH  36  39
ENDBRANCH  30  33
ENDBRANCH   3  29
TORSDOF 8
ENDMDL
MODEL 4
REMARK VINA RESULT:     -11.0      5.161      9.695
REMARK  8 active torsions:
REMARK  status: ('A' for Active; 'I' for Inactive)
REMARK    1  A    between atoms: C_4  and  C_5 
REMARK    2  A    between atoms: C_5  and  N_6 
REMARK    3  A    between atoms: C_5  and  C_36 
REMARK    4  A    between atoms: N_10  and  C_11 
REMARK    5  A    between atoms: C_13  and  C_14 
REMARK       I    between atoms: C_14  and  N_15 
REMARK    6  A    between atoms: N_15  and  C_16 
REMARK    7  A    between atoms: C_19  and  O_20 
REMARK    8  A    between atoms: O_20  and  C_21 
ROOT
HETATM    1  C   UNL     1       6.056  27.972  57.317  1.00  0.00     0.181 C 
HETATM    2  N   UNL     1       7.003  28.460  56.483  1.00  0.00    -0.351 N 
HETATM    3  C   UNL     1       6.628  29.542  55.584  1.00  0.00     0.185 C 
HETATM    4  C   UNL     1       5.785  30.538  56.347  1.00  0.00     0.140 C 
HETATM    5  C   UNL     1       4.705  29.814  57.112  1.00  0.00     0.248 C 
HETATM    6  O   UNL     1       3.618  30.359  57.288  1.00  0.00    -0.271 OA
HETATM    7  N   UNL     1       4.976  28.582  57.659  1.00  0.00    -0.185 NA
HETATM    8  H   UNL     1       7.603  27.754  56.068  1.00  0.00     0.163 HD
ENDROOT
BRANCH   1   9
HETATM    9  N   UNL     1       6.351  26.695  57.741  1.00  0.00    -0.250 NA
HETATM   10  C   UNL     1       7.765  26.284  57.546  1.00  0.00     0.126 C 
HETATM   11  C   UNL     1       8.039  25.944  56.064  1.00  0.00     0.251 C 
HETATM   12  N   UNL     1       7.105  24.815  55.618  1.00  0.00    -0.057 N 
HETATM   13  H   UNL     1       7.281  24.027  56.247  1.00  0.00     0.281 HD
HETATM   14  C   UNL     1       5.644  25.188  55.849  1.00  0.00     0.251 C 
HETATM   15  C   UNL     1       5.416  25.622  57.315  1.00  0.00     0.126 C 
BRANCH  12  16
HETATM   16  C   UNL     1       7.449  24.272  54.230  1.00  0.00     0.254 C 
BRANCH  16  17
HETATM   17  C   UNL     1       6.611  24.804  53.069  1.00  0.00    -0.023 A 
HETATM   18  C   UNL     1       5.235  24.500  53.027  1.00  0.00     0.009 A 
HETATM   19  C   UNL     1       4.430  24.926  51.968  1.00  0.00     0.001 A 
HETATM   20  C   UNL     1       4.980  25.667  50.929  1.00  0.00     0.000 A 
HETATM   21  C   UNL     1       6.331  25.992  50.953  1.00  0.00     0.001 A 
HETATM   22  C   UNL     1       7.136  25.571  52.015  1.00  0.00     0.009 A 
ENDBRANCH  16  17
BRANCH  16  23
HETATM   23  C   UNL     1       7.746  22.773  54.271  1.00  0.00    -0.023 A 
HETATM   24  C   UNL     1       8.057  22.115  53.061  1.00  0.00     0.009 A 
HETATM   25  C   UNL     1       8.382  20.758  53.036  1.00  0.00     0.001 A 
HETATM   26  C   UNL     1       8.405  20.029  54.220  1.00  0.00     0.000 A 
HETATM   27  C   UNL     1       8.099  20.655  55.424  1.00  0.00     0.001 A 
HETATM   28  C   UNL     1       7.773  22.015  55.451  1.00  0.00     0.009 A 
ENDBRANCH  16  23
ENDBRANCH  12  16
ENDBRANCH   1   9
BRANCH   3  29
HETATM   29  C   UNL     1       5.907  28.988  54.328  1.00  0.00     0.245 C 
HETATM   30  N   UNL     1       5.064  29.916  53.734  1.00  0.00    -0.325 N 
HETATM   31  H   UNL     1       4.906  30.793  54.218  1.00  0.00     0.169 HD
HETATM   32  O   UNL     1       6.129  27.847  53.921  1.00  0.00    -0.271 OA
BRANCH  30  33
HETATM   33  C   UNL     1       4.406  29.803  52.488  1.00  0.00     0.035 A 
HETATM   34  C   UNL     1       3.199  29.124  52.300  1.00  0.00     0.032 A 
HETATM   35  C   UNL     1       2.640  29.014  51.023  1.00  0.00     0.039 A 
HETATM   36  C   UNL     1       3.270  29.601  49.928  1.00  0.00     0.076 A 
HETATM   37  C   UNL     1       4.480  30.269  50.098  1.00  0.00     0.039 A 
HETATM   38  C   UNL     1       5.041  30.375  51.375  1.00  0.00     0.032 A 
BRANCH  36  39
HETATM   39  O   UNL     1       2.699  29.403  48.694  1.00  0.00    -0.311 OA
BRANCH  39  40
HETATM   40  C   UNL     1       2.754  28.138  48.153  1.00  0.00     0.076 A 
HETATM   41  C   UNL     1       4.027  27.582  48.005  1.00  0.00     0.037 A 
HETATM   42  C   UNL     1       4.169  26.284  47.512  1.00  0.00     0.003 A 
HETATM   43  C   UNL     1       3.040  25.538  47.179  1.00  0.00     0.000 A 
HETATM   44  C   UNL     1       1.767  26.085  47.345  1.00  0.00     0.003 A 
HETATM   45  C   UNL     1       1.621  27.382  47.840  1.00  0.00     0.037 A 
ENDBRANCH  39  40
ENDBRANCH  36  39
ENDBRANCH  30  33
ENDBRANCH   3  29
TORSDOF 8
ENDMDL
MODEL 5
REMARK VINA RESULT:     -10.9      2.414      3.091
REMARK  8 active torsions:
REMARK  status: ('A' for Active; 'I' for Inactive)
REMARK    1  A    between atoms: C_4  and  C_5 
REMARK    2  A    between atoms: C_5  and  N_6 
REMARK    3  A    between atoms: C_5  and  C_36 
REMARK    4  A    between atoms: N_10  and  C_11 
REMARK    5  A    between atoms: C_13  and  C_14 
REMARK       I    between atoms: C_14  and  N_15 
REMARK    6  A    between atoms: N_15  and  C_16 
REMARK    7  A    between atoms: C_19  and  O_20 
REMARK    8  A    between atoms: O_20  and  C_21 
ROOT
HETATM    1  C   UNL     1       5.750  29.380  56.705  1.00  0.00     0.181 C 
HETATM    2  N   UNL     1       4.753  29.271  57.613  1.00  0.00    -0.351 N 
HETATM    3  C   UNL     1       3.649  30.216  57.531  1.00  0.00     0.185 C 
HETATM    4  C   UNL     1       3.260  30.384  56.080  1.00  0.00     0.140 C 
HETATM    5  C   UNL     1       4.493  30.624  55.245  1.00  0.00     0.248 C 
HETATM    6  O   UNL     1       4.421  31.340  54.249  1.00  0.00    -0.271 OA
HETATM    7  N   UNL     1       5.665  29.983  55.571  1.00  0.00    -0.185 NA
HETATM    8  H   UNL     1       5.064  29.064  58.558  1.00  0.00     0.163 HD
ENDROOT
BRANCH   1   9
HETATM    9  N   UNL     1       6.919  28.801  57.149  1.00  0.00    -0.250 NA
HETATM   10  C   UNL     1       8.036  28.826  56.171  1.00  0.00     0.126 C 
HETATM   11  C   UNL     1       7.829  27.760  55.072  1.00  0.00     0.251 C 
HETATM   12  N   UNL     1       7.735  26.374  55.718  1.00  0.00    -0.057 N 
HETATM   13  H   UNL     1       8.602  26.240  56.245  1.00  0.00     0.281 HD
HETATM   14  C   UNL     1       6.624  26.329  56.761  1.00  0.00     0.251 C 
HETATM   15  C   UNL     1       6.797  27.468  57.792  1.00  0.00     0.126 C 
BRANCH  12  16
HETATM   16  C   UNL     1       7.740  25.240  54.691  1.00  0.00     0.254 C 
BRANCH  16  17
HETATM   17  C   UNL     1       6.737  25.360  53.545  1.00  0.00    -0.023 A 
HETATM   18  C   UNL     1       5.383  25.048  53.789  1.00  0.00     0.009 A 
HETATM   19  C   UNL     1       4.431  25.102  52.768  1.00  0.00     0.001 A 
HETATM   20  C   UNL     1       4.808  25.471  51.482  1.00  0.00     0.000 A 
HETATM   21  C   UNL     1       6.133  25.797  51.219  1.00  0.00     0.001 A 
HETATM   22  C   UNL     1       7.086  25.749  52.241  1.00  0.00     0.009 A 
ENDBRANCH  16  17
BRANCH  16  23
HETATM   23  C   UNL     1       7.899  23.875  55.362  1.00  0.00    -0.023 A 
HETATM   24  C   UNL     1       7.697  22.715  54.584  1.00  0.00     0.009 A 
HETATM   25  C   UNL     1       7.871  21.439  55.125  1.00  0.00     0.001 A 
HETATM   26  C   UNL     1       8.253  21.297  56.455  1.00  0.00     0.000 A 
HETATM   27  C   UNL     1       8.454  22.426  57.241  1.00  0.00     0.001 A 
HETATM   28  C   UNL     1       8.281  23.705  56.701  1.00  0.00     0.009 A 
ENDBRANCH  16  23
ENDBRANCH  12  16
ENDBRANCH   1   9
BRANCH   3  29
HETATM   29  C   UNL     1       4.024  31.560  58.208  1.00  0.00     0.245 C 
HETATM   30  N   UNL     1       4.235  31.438  59.574  1.00  0.00    -0.325 N 
HETATM   31  H   UNL     1       4.018  30.549  60.010  1.00  0.00     0.169 HD
HETATM   32  O   UNL     1       4.146  32.590  57.545  1.00  0.00    -0.271 OA
BRANCH  30  33
HETATM   33  C   UNL     1       4.761  32.414  60.450  1.00  0.00     0.035 A 
HETATM   34  C   UNL     1       6.100  32.469  60.845  1.00  0.00     0.032 A 
HETATM   35  C   UNL     1       6.530  33.438  61.758  1.00  0.00     0.039 A 
HETATM   36  C   UNL     1       5.630  34.372  62.265  1.00  0.00     0.076 A 
HETATM   37  C   UNL     1       4.290  34.320  61.891  1.00  0.00     0.039 A 
HETATM   38  C   UNL     1       3.859  33.349  60.981  1.00  0.00     0.032 A 
BRANCH  36  39
HETATM   39  O   UNL     1       6.105  35.256  63.204  1.00  0.00    -0.311 OA
BRANCH  39  40
HETATM   40  C   UNL     1       5.559  35.211  64.467  1.00  0.00     0.076 A 
HETATM   41  C   UNL     1       6.028  34.200  65.309  1.00  0.00     0.037 A 
HETATM   42  C   UNL     1       5.565  34.114  66.622  1.00  0.00     0.003 A 
HETATM   43  C   UNL     1       4.643  35.045  67.098  1.00  0.00     0.000 A 
HETATM   44  C   UNL     1       4.190  36.067  66.265  1.00  0.00     0.003 A 
HETATM   45  C   UNL     1       4.653  36.158  64.951  1.00  0.00     0.037 A 
ENDBRANCH  39  40
ENDBRANCH  36  39
ENDBRANCH  30  33
ENDBRANCH   3  29
TORSDOF 8
ENDMDL
MODEL 6
REMARK VINA RESULT:     -10.9      1.839      2.386
REMARK  8 active torsions:
REMARK  status: ('A' for Active; 'I' for Inactive)
REMARK    1  A    between atoms: C_4  and  C_5 
REMARK    2  A    between atoms: C_5  and  N_6 
REMARK    3  A    between atoms: C_5  and  C_36 
REMARK    4  A    between atoms: N_10  and  C_11 
REMARK    5  A    between atoms: C_13  and  C_14 
REMARK       I    between atoms: C_14  and  N_15 
REMARK    6  A    between atoms: N_15  and  C_16 
REMARK    7  A    between atoms: C_19  and  O_20 
REMARK    8  A    between atoms: O_20  and  C_21 
ROOT
HETATM    1  C   UNL     1       7.319  27.915  57.591  1.00  0.00     0.181 C 
HETATM    2  N   UNL     1       6.608  28.594  56.662  1.00  0.00    -0.351 N 
HETATM    3  C   UNL     1       6.704  30.046  56.657  1.00  0.00     0.185 C 
HETATM    4  C   UNL     1       8.150  30.439  56.857  1.00  0.00     0.140 C 
HETATM    5  C   UNL     1       8.732  29.670  58.018  1.00  0.00     0.248 C 
HETATM    6  O   UNL     1       9.595  30.193  58.719  1.00  0.00    -0.271 OA
HETATM    7  N   UNL     1       8.337  28.372  58.234  1.00  0.00    -0.185 NA
HETATM    8  H   UNL     1       5.674  28.231  56.498  1.00  0.00     0.163 HD
ENDROOT
BRANCH   1   9
HETATM    9  N   UNL     1       6.800  26.660  57.824  1.00  0.00    -0.250 NA
HETATM   10  C   UNL     1       7.801  25.563  57.830  1.00  0.00     0.126 C 
HETATM   11  C   UNL     1       8.235  25.208  56.390  1.00  0.00     0.251 C 
HETATM   12  N   UNL     1       7.007  24.785  55.578  1.00  0.00    -0.057 N 
HETATM   13  H   UNL     1       6.588  23.994  56.074  1.00  0.00     0.281 HD
HETATM   14  C   UNL     1       5.940  25.874  55.590  1.00  0.00     0.251 C 
HETATM   15  C   UNL     1       5.595  26.285  57.040  1.00  0.00     0.126 C 
BRANCH  12  16
HETATM   16  C   UNL     1       7.372  24.216  54.205  1.00  0.00     0.254 C 
BRANCH  16  17
HETATM   17  C   UNL     1       6.539  24.713  53.024  1.00  0.00    -0.023 A 
HETATM   18  C   UNL     1       7.076  25.711  52.185  1.00  0.00     0.009 A 
HETATM   19  C   UNL     1       6.342  26.231  51.116  1.00  0.00     0.001 A 
HETATM   20  C   UNL     1       5.059  25.765  50.859  1.00  0.00     0.000 A 
HETATM   21  C   UNL     1       4.513  24.771  51.662  1.00  0.00     0.001 A 
HETATM   22  C   UNL     1       5.247  24.246  52.729  1.00  0.00     0.009 A 
ENDBRANCH  16  17
BRANCH  16  23
HETATM   23  C   UNL     1       7.685  22.721  54.281  1.00  0.00    -0.023 A 
HETATM   24  C   UNL     1       8.124  22.065  53.111  1.00  0.00     0.009 A 
HETATM   25  C   UNL     1       8.469  20.712  53.125  1.00  0.00     0.001 A 
HETATM   26  C   UNL     1       8.384  19.987  54.308  1.00  0.00     0.000 A 
HETATM   27  C   UNL     1       7.950  20.612  55.473  1.00  0.00     0.001 A 
HETATM   28  C   UNL     1       7.605  21.967  55.462  1.00  0.00     0.009 A 
ENDBRANCH  16  23
ENDBRANCH  12  16
ENDBRANCH   1   9
BRANCH   3  29
HETATM   29  C   UNL     1       5.765  30.664  57.724  1.00  0.00     0.245 C 
HETATM   30  N   UNL     1       6.341  31.728  58.403  1.00  0.00    -0.325 N 
HETATM   31  H   UNL     1       7.321  31.923  58.236  1.00  0.00     0.169 HD
HETATM   32  O   UNL     1       4.620  30.239  57.882  1.00  0.00    -0.271 OA
BRANCH  30  33
HETATM   33  C   UNL     1       5.706  32.619  59.297  1.00  0.00     0.035 A 
HETATM   34  C   UNL     1       5.927  32.632  60.676  1.00  0.00     0.032 A 
HETATM   35  C   UNL     1       5.217  33.514  61.499  1.00  0.00     0.039 A 
HETATM   36  C   UNL     1       4.299  34.403  60.947  1.00  0.00     0.076 A 
HETATM   37  C   UNL     1       4.059  34.392  59.575  1.00  0.00     0.039 A 
HETATM   38  C   UNL     1       4.765  33.508  58.753  1.00  0.00     0.032 A 
BRANCH  36  39
HETATM   39  O   UNL     1       3.593  35.199  61.818  1.00  0.00    -0.311 OA
BRANCH  39  40
HETATM   40  C   UNL     1       4.297  36.106  62.577  1.00  0.00     0.076 A 
HETATM   41  C   UNL     1       5.010  37.081  61.876  1.00  0.00     0.037 A 
HETATM   42  C   UNL     1       5.709  38.069  62.570  1.00  0.00     0.003 A 
HETATM   43  C   UNL     1       5.685  38.091  63.964  1.00  0.00     0.000 A 
HETATM   44  C   UNL     1       4.957  37.129  64.665  1.00  0.00     0.003 A 
HETATM   45  C   UNL     1       4.255  36.141  63.974  1.00  0.00     0.037 A 
ENDBRANCH  39  40
ENDBRANCH  36  39
ENDBRANCH  30  33
ENDBRANCH   3  29
TORSDOF 8
ENDMDL
MODEL 7
REMARK VINA RESULT:     -10.7      4.169     10.493
REMARK  8 active torsions:
REMARK  status: ('A' for Active; 'I' for Inactive)
REMARK    1  A    between atoms: C_4  and  C_5 
REMARK    2  A    between atoms: C_5  and  N_6 
REMARK    3  A    between atoms: C_5  and  C_36 
REMARK    4  A    between atoms: N_10  and  C_11 
REMARK    5  A    between atoms: C_13  and  C_14 
REMARK       I    between atoms: C_14  and  N_15 
REMARK    6  A    between atoms: N_15  and  C_16 
REMARK    7  A    between atoms: C_19  and  O_20 
REMARK    8  A    between atoms: O_20  and  C_21 
ROOT
HETATM    1  C   UNL     1       2.966  32.609  56.141  1.00  0.00     0.181 C 
HETATM    2  N   UNL     1       4.172  32.588  55.529  1.00  0.00    -0.351 N 
HETATM    3  C   UNL     1       4.198  32.499  54.077  1.00  0.00     0.185 C 
HETATM    4  C   UNL     1       3.144  33.424  53.514  1.00  0.00     0.140 C 
HETATM    5  C   UNL     1       1.837  33.209  54.238  1.00  0.00     0.248 C 
HETATM    6  O   UNL     1       0.778  33.356  53.632  1.00  0.00    -0.271 OA
HETATM    7  N   UNL     1       1.849  32.919  55.581  1.00  0.00    -0.185 NA
HETATM    8  H   UNL     1       4.874  32.025  56.001  1.00  0.00     0.163 HD
ENDROOT
BRANCH   1   9
HETATM    9  N   UNL     1       3.047  32.208  57.457  1.00  0.00    -0.250 NA
HETATM   10  C   UNL     1       3.915  33.057  58.314  1.00  0.00     0.126 C 
HETATM   11  C   UNL     1       5.408  32.764  58.046  1.00  0.00     0.251 C 
HETATM   12  N   UNL     1       5.694  31.285  58.321  1.00  0.00    -0.057 N 
HETATM   13  H   UNL     1       5.422  31.112  59.293  1.00  0.00     0.281 HD
HETATM   14  C   UNL     1       4.786  30.386  57.488  1.00  0.00     0.251 C 
HETATM   15  C   UNL     1       3.302  30.765  57.696  1.00  0.00     0.126 C 
BRANCH  12  16
HETATM   16  C   UNL     1       7.188  30.952  58.284  1.00  0.00     0.254 C 
BRANCH  16  17
HETATM   17  C   UNL     1       7.574  29.656  57.575  1.00  0.00    -0.023 A 
HETATM   18  C   UNL     1       8.011  29.717  56.235  1.00  0.00     0.009 A 
HETATM   19  C   UNL     1       8.338  28.559  55.525  1.00  0.00     0.001 A 
HETATM   20  C   UNL     1       8.239  27.315  56.138  1.00  0.00     0.000 A 
HETATM   21  C   UNL     1       7.825  27.229  57.461  1.00  0.00     0.001 A 
HETATM   22  C   UNL     1       7.502  28.387  58.174  1.00  0.00     0.009 A 
ENDBRANCH  16  17
BRANCH  16  23
HETATM   23  C   UNL     1       7.867  31.270  59.617  1.00  0.00    -0.023 A 
HETATM   24  C   UNL     1       9.240  31.596  59.611  1.00  0.00     0.009 A 
HETATM   25  C   UNL     1       9.909  31.940  60.787  1.00  0.00     0.001 A 
HETATM   26  C   UNL     1       9.219  31.965  61.995  1.00  0.00     0.000 A 
HETATM   27  C   UNL     1       7.866  31.644  62.025  1.00  0.00     0.001 A 
HETATM   28  C   UNL     1       7.194  31.300  60.847  1.00  0.00     0.009 A 
ENDBRANCH  16  23
ENDBRANCH  12  16
ENDBRANCH   1   9
BRANCH   3  29
HETATM   29  C   UNL     1       4.015  31.032  53.612  1.00  0.00     0.245 C 
HETATM   30  N   UNL     1       5.033  30.195  54.044  1.00  0.00    -0.325 N 
HETATM   31  H   UNL     1       5.834  30.618  54.500  1.00  0.00     0.169 HD
HETATM   32  O   UNL     1       3.026  30.693  52.962  1.00  0.00    -0.271 OA
BRANCH  30  33
HETATM   33  C   UNL     1       5.081  28.785  53.954  1.00  0.00     0.035 A 
HETATM   34  C   UNL     1       4.669  27.923  54.973  1.00  0.00     0.032 A 
HETATM   35  C   UNL     1       4.798  26.538  54.824  1.00  0.00     0.039 A 
HETATM   36  C   UNL     1       5.318  26.005  53.648  1.00  0.00     0.076 A 
HETATM   37  C   UNL     1       5.745  26.852  52.629  1.00  0.00     0.039 A 
HETATM   38  C   UNL     1       5.620  28.237  52.780  1.00  0.00     0.032 A 
BRANCH  36  39
HETATM   39  O   UNL     1       5.473  24.640  53.592  1.00  0.00    -0.311 OA
BRANCH  39  40
HETATM   40  C   UNL     1       6.588  24.093  54.186  1.00  0.00     0.076 A 
HETATM   41  C   UNL     1       7.559  23.575  53.326  1.00  0.00     0.037 A 
HETATM   42  C   UNL     1       8.742  23.048  53.844  1.00  0.00     0.003 A 
HETATM   43  C   UNL     1       8.961  23.050  55.221  1.00  0.00     0.000 A 
HETATM   44  C   UNL     1       8.001  23.585  56.080  1.00  0.00     0.003 A 
HETATM   45  C   UNL     1       6.817  24.116  55.565  1.00  0.00     0.037 A 
ENDBRANCH  39  40
ENDBRANCH  36  39
ENDBRANCH  30  33
ENDBRANCH   3  29
TORSDOF 8
ENDMDL
MODEL 8
REMARK VINA RESULT:     -10.5      4.033      6.378
REMARK  8 active torsions:
REMARK  status: ('A' for Active; 'I' for Inactive)
REMARK    1  A    between atoms: C_4  and  C_5 
REMARK    2  A    between atoms: C_5  and  N_6 
REMARK    3  A    between atoms: C_5  and  C_36 
REMARK    4  A    between atoms: N_10  and  C_11 
REMARK    5  A    between atoms: C_13  and  C_14 
REMARK       I    between atoms: C_14  and  N_15 
REMARK    6  A    between atoms: N_15  and  C_16 
REMARK    7  A    between atoms: C_19  and  O_20 
REMARK    8  A    between atoms: O_20  and  C_21 
ROOT
HETATM    1  C   UNL     1       3.657  30.334  52.163  1.00  0.00     0.181 C 
HETATM    2  N   UNL     1       2.818  31.295  52.614  1.00  0.00    -0.351 N 
HETATM    3  C   UNL     1       3.307  32.666  52.648  1.00  0.00     0.185 C 
HETATM    4  C   UNL     1       4.068  32.943  51.371  1.00  0.00     0.140 C 
HETATM    5  C   UNL     1       5.044  31.824  51.106  1.00  0.00     0.248 C 
HETATM    6  O   UNL     1       6.110  32.070  50.547  1.00  0.00    -0.271 OA
HETATM    7  N   UNL     1       4.698  30.534  51.433  1.00  0.00    -0.185 NA
HETATM    8  H   UNL     1       2.261  31.024  53.418  1.00  0.00     0.163 HD
ENDROOT
BRANCH   1   9
HETATM    9  N   UNL     1       3.301  29.083  52.617  1.00  0.00    -0.250 NA
HETATM   10  C   UNL     1       3.515  28.864  54.070  1.00  0.00     0.126 C 
HETATM   11  C   UNL     1       5.013  28.641  54.378  1.00  0.00     0.251 C 
HETATM   12  N   UNL     1       5.520  27.429  53.591  1.00  0.00    -0.057 N 
HETATM   13  H   UNL     1       4.933  26.636  53.868  1.00  0.00     0.281 HD
HETATM   14  C   UNL     1       5.273  27.603  52.096  1.00  0.00     0.251 C 
HETATM   15  C   UNL     1       3.786  27.926  51.822  1.00  0.00     0.126 C 
BRANCH  12  16
HETATM   16  C   UNL     1       6.935  27.009  53.995  1.00  0.00     0.254 C 
BRANCH  16  17
HETATM   17  C   UNL     1       7.256  25.520  53.881  1.00  0.00    -0.023 A 
HETATM   18  C   UNL     1       7.787  25.029  52.671  1.00  0.00     0.009 A 
HETATM   19  C   UNL     1       8.061  23.669  52.498  1.00  0.00     0.001 A 
HETATM   20  C   UNL     1       7.813  22.771  53.529  1.00  0.00     0.000 A 
HETATM   21  C   UNL     1       7.302  23.233  54.737  1.00  0.00     0.001 A 
HETATM   22  C   UNL     1       7.033  24.593  54.913  1.00  0.00     0.009 A 
ENDBRANCH  16  17
BRANCH  16  23
HETATM   23  C   UNL     1       7.405  27.749  55.247  1.00  0.00    -0.023 A 
HETATM   24  C   UNL     1       6.868  27.367  56.496  1.00  0.00     0.009 A 
HETATM   25  C   UNL     1       7.288  27.973  57.682  1.00  0.00     0.001 A 
HETATM   26  C   UNL     1       8.256  28.972  57.645  1.00  0.00     0.000 A 
HETATM   27  C   UNL     1       8.797  29.366  56.425  1.00  0.00     0.001 A 
HETATM   28  C   UNL     1       8.377  28.760  55.236  1.00  0.00     0.009 A 
ENDBRANCH  16  23
ENDBRANCH  12  16
ENDBRANCH   1   9
BRANCH   3  29
HETATM   29  C   UNL     1       4.160  32.915  53.918  1.00  0.00     0.245 C 
HETATM   30  N   UNL     1       3.561  32.439  55.075  1.00  0.00    -0.325 N 
HETATM   31  H   UNL     1       2.609  32.097  55.011  1.00  0.00     0.169 HD
HETATM   32  O   UNL     1       5.268  33.447  53.842  1.00  0.00    -0.271 OA
BRANCH  30  33
HETATM   33  C   UNL     1       4.139  32.339  56.361  1.00  0.00     0.035 A 
HETATM   34  C   UNL     1       4.609  31.146  56.916  1.00  0.00     0.032 A 
HETATM   35  C   UNL     1       5.120  31.124  58.218  1.00  0.00     0.039 A 
HETATM   36  C   UNL     1       5.187  32.297  58.965  1.00  0.00     0.076 A 
HETATM   37  C   UNL     1       4.709  33.491  58.430  1.00  0.00     0.039 A 
HETATM   38  C   UNL     1       4.194  33.512  57.130  1.00  0.00     0.032 A 
BRANCH  36  39
HETATM   39  O   UNL     1       5.643  32.194  60.258  1.00  0.00    -0.311 OA
BRANCH  39  40
HETATM   40  C   UNL     1       7.004  32.151  60.459  1.00  0.00     0.076 A 
HETATM   41  C   UNL     1       7.433  32.103  61.788  1.00  0.00     0.037 A 
HETATM   42  C   UNL     1       8.794  32.007  62.079  1.00  0.00     0.003 A 
HETATM   43  C   UNL     1       9.726  31.945  61.044  1.00  0.00     0.000 A 
HETATM   44  C   UNL     1       9.297  31.972  59.716  1.00  0.00     0.003 A 
HETATM   45  C   UNL     1       7.936  32.066  59.421  1.00  0.00     0.037 A 
ENDBRANCH  39  40
ENDBRANCH  36  39
ENDBRANCH  30  33
ENDBRANCH   3  29
TORSDOF 8
ENDMDL
MODEL 9
REMARK VINA RESULT:     -10.4      3.448     12.841
REMARK  8 active torsions:
REMARK  status: ('A' for Active; 'I' for Inactive)
REMARK    1  A    between atoms: C_4  and  C_5 
REMARK    2  A    between atoms: C_5  and  N_6 
REMARK    3  A    between atoms: C_5  and  C_36 
REMARK    4  A    between atoms: N_10  and  C_11 
REMARK    5  A    between atoms: C_13  and  C_14 
REMARK       I    between atoms: C_14  and  N_15 
REMARK    6  A    between atoms: N_15  and  C_16 
REMARK    7  A    between atoms: C_19  and  O_20 
REMARK    8  A    between atoms: O_20  and  C_21 
ROOT
HETATM    1  C   UNL     1       4.369  32.660  58.630  1.00  0.00     0.181 C 
HETATM    2  N   UNL     1       5.475  32.538  57.861  1.00  0.00    -0.351 N 
HETATM    3  C   UNL     1       5.312  32.602  56.416  1.00  0.00     0.185 C 
HETATM    4  C   UNL     1       4.347  33.718  56.084  1.00  0.00     0.140 C 
HETATM    5  C   UNL     1       3.121  33.608  56.956  1.00  0.00     0.248 C 
HETATM    6  O   UNL     1       2.030  33.963  56.515  1.00  0.00    -0.271 OA
HETATM    7  N   UNL     1       3.252  33.178  58.255  1.00  0.00    -0.185 NA
HETATM    8  H   UNL     1       6.136  31.837  58.182  1.00  0.00     0.163 HD
ENDROOT
BRANCH   1   9
HETATM    9  N   UNL     1       4.548  32.114  59.882  1.00  0.00    -0.250 NA
HETATM   10  C   UNL     1       3.349  32.159  60.758  1.00  0.00     0.126 C 
HETATM   11  C   UNL     1       3.129  33.582  61.318  1.00  0.00     0.251 C 
HETATM   12  N   UNL     1       4.367  34.013  62.111  1.00  0.00    -0.057 N 
HETATM   13  H   UNL     1       4.501  33.312  62.845  1.00  0.00     0.281 HD
HETATM   14  C   UNL     1       5.624  33.935  61.252  1.00  0.00     0.251 C 
HETATM   15  C   UNL     1       5.767  32.531  60.620  1.00  0.00     0.126 C 
BRANCH  12  16
HETATM   16  C   UNL     1       4.155  35.321  62.876  1.00  0.00     0.254 C 
BRANCH  16  17
HETATM   17  C   UNL     1       4.701  36.586  62.216  1.00  0.00    -0.023 A 
HETATM   18  C   UNL     1       5.884  37.162  62.722  1.00  0.00     0.009 A 
HETATM   19  C   UNL     1       6.405  38.341  62.183  1.00  0.00     0.001 A 
HETATM   20  C   UNL     1       5.758  38.969  61.125  1.00  0.00     0.000 A 
HETATM   21  C   UNL     1       4.597  38.414  60.600  1.00  0.00     0.001 A 
HETATM   22  C   UNL     1       4.078  37.232  61.135  1.00  0.00     0.009 A 
ENDBRANCH  16  17
BRANCH  16  23
HETATM   23  C   UNL     1       4.388  35.139  64.376  1.00  0.00    -0.023 A 
HETATM   24  C   UNL     1       5.248  34.104  64.803  1.00  0.00     0.009 A 
HETATM   25  C   UNL     1       5.538  33.913  66.155  1.00  0.00     0.001 A 
HETATM   26  C   UNL     1       4.975  34.753  67.110  1.00  0.00     0.000 A 
HETATM   27  C   UNL     1       4.122  35.778  66.713  1.00  0.00     0.001 A 
HETATM   28  C   UNL     1       3.831  35.972  65.359  1.00  0.00     0.009 A 
ENDBRANCH  16  23
ENDBRANCH  12  16
ENDBRANCH   1   9
BRANCH   3  29
HETATM   29  C   UNL     1       4.856  31.231  55.853  1.00  0.00     0.245 C 
HETATM   30  N   UNL     1       5.851  30.266  55.902  1.00  0.00    -0.325 N 
HETATM   31  H   UNL     1       6.782  30.559  56.176  1.00  0.00     0.169 HD
HETATM   32  O   UNL     1       3.703  31.063  55.454  1.00  0.00    -0.271 OA
BRANCH  30  33
HETATM   33  C   UNL     1       5.718  28.883  55.644  1.00  0.00     0.035 A 
HETATM   34  C   UNL     1       5.186  27.966  56.554  1.00  0.00     0.032 A 
HETATM   35  C   UNL     1       5.137  26.604  56.240  1.00  0.00     0.039 A 
HETATM   36  C   UNL     1       5.599  26.152  55.006  1.00  0.00     0.076 A 
HETATM   37  C   UNL     1       6.145  27.052  54.096  1.00  0.00     0.039 A 
HETATM   38  C   UNL     1       6.197  28.414  54.412  1.00  0.00     0.032 A 
BRANCH  36  39
HETATM   39  O   UNL     1       5.579  24.795  54.787  1.00  0.00    -0.311 OA
BRANCH  39  40
HETATM   40  C   UNL     1       6.771  24.111  54.862  1.00  0.00     0.076 A 
HETATM   41  C   UNL     1       7.193  23.470  53.695  1.00  0.00     0.037 A 
HETATM   42  C   UNL     1       8.415  22.797  53.670  1.00  0.00     0.003 A 
HETATM   43  C   UNL     1       9.221  22.776  54.807  1.00  0.00     0.000 A 
HETATM   44  C   UNL     1       8.811  23.433  55.967  1.00  0.00     0.003 A 
HETATM   45  C   UNL     1       7.590  24.109  55.994  1.00  0.00     0.037 A 
ENDBRANCH  39  40
ENDBRANCH  36  39
ENDBRANCH  30  33
ENDBRANCH   3  29
TORSDOF 8
ENDMDL
MODEL 10
REMARK VINA RESULT:     -10.4      5.179      9.684
REMARK  8 active torsions:
REMARK  status: ('A' for Active; 'I' for Inactive)
REMARK    1  A    between atoms: C_4  and  C_5 
REMARK    2  A    between atoms: C_5  and  N_6 
REMARK    3  A    between atoms: C_5  and  C_36 
REMARK    4  A    between atoms: N_10  and  C_11 
REMARK    5  A    between atoms: C_13  and  C_14 
REMARK       I    between atoms: C_14  and  N_15 
REMARK    6  A    between atoms: N_15  and  C_16 
REMARK    7  A    between atoms: C_19  and  O_20 
REMARK    8  A    between atoms: O_20  and  C_21 
ROOT
HETATM    1  C   UNL     1       6.186  27.966  57.221  1.00  0.00     0.181 C 
HETATM    2  N   UNL     1       7.001  28.413  56.239  1.00  0.00    -0.351 N 
HETATM    3  C   UNL     1       6.491  29.442  55.344  1.00  0.00     0.185 C 
HETATM    4  C   UNL     1       5.748  30.473  56.163  1.00  0.00     0.140 C 
HETATM    5  C   UNL     1       4.794  29.784  57.108  1.00  0.00     0.248 C 
HETATM    6  O   UNL     1       3.735  30.331  57.405  1.00  0.00    -0.271 OA
HETATM    7  N   UNL     1       5.155  28.587  57.678  1.00  0.00    -0.185 NA
HETATM    8  H   UNL     1       7.549  27.689  55.783  1.00  0.00     0.163 HD
ENDROOT
BRANCH   1   9
HETATM    9  N   UNL     1       6.554  26.715  57.668  1.00  0.00    -0.250 NA
HETATM   10  C   UNL     1       7.966  26.346  57.392  1.00  0.00     0.126 C 
HETATM   11  C   UNL     1       8.154  25.962  55.907  1.00  0.00     0.251 C 
HETATM   12  N   UNL     1       7.234  24.786  55.565  1.00  0.00    -0.057 N 
HETATM   13  H   UNL     1       7.480  24.028  56.207  1.00  0.00     0.281 HD
HETATM   14  C   UNL     1       5.779  25.118  55.880  1.00  0.00     0.251 C 
HETATM   15  C   UNL     1       5.633  25.597  57.343  1.00  0.00     0.126 C 
BRANCH  12  16
HETATM   16  C   UNL     1       7.505  24.205  54.175  1.00  0.00     0.254 C 
BRANCH  16  17
HETATM   17  C   UNL     1       6.616  24.716  53.043  1.00  0.00    -0.023 A 
HETATM   18  C   UNL     1       7.146  25.654  52.132  1.00  0.00     0.009 A 
HETATM   19  C   UNL     1       6.364  26.185  51.103  1.00  0.00     0.001 A 
HETATM   20  C   UNL     1       5.040  25.791  50.958  1.00  0.00     0.000 A 
HETATM   21  C   UNL     1       4.498  24.857  51.835  1.00  0.00     0.001 A 
HETATM   22  C   UNL     1       5.280  24.321  52.862  1.00  0.00     0.009 A 
ENDBRANCH  16  17
BRANCH  16  23
HETATM   23  C   UNL     1       7.791  22.704  54.240  1.00  0.00    -0.023 A 
HETATM   24  C   UNL     1       8.092  22.024  53.040  1.00  0.00     0.009 A 
HETATM   25  C   UNL     1       8.406  20.664  53.037  1.00  0.00     0.001 A 
HETATM   26  C   UNL     1       8.427  19.955  54.233  1.00  0.00     0.000 A 
HETATM   27  C   UNL     1       8.129  20.603  55.427  1.00  0.00     0.001 A 
HETATM   28  C   UNL     1       7.815  21.966  55.433  1.00  0.00     0.009 A 
ENDBRANCH  16  23
ENDBRANCH  12  16
ENDBRANCH   1   9
BRANCH   3  29
HETATM   29  C   UNL     1       5.610  28.816  54.232  1.00  0.00     0.245 C 
HETATM   30  N   UNL     1       5.200  29.739  53.282  1.00  0.00    -0.325 N 
HETATM   31  H   UNL     1       5.399  30.718  53.454  1.00  0.00     0.169 HD
HETATM   32  O   UNL     1       5.367  27.609  54.222  1.00  0.00    -0.271 OA
BRANCH  30  33
HETATM   33  C   UNL     1       4.551  29.476  52.055  1.00  0.00     0.035 A 
HETATM   34  C   UNL     1       3.234  29.018  51.949  1.00  0.00     0.032 A 
HETATM   35  C   UNL     1       2.683  28.732  50.696  1.00  0.00     0.039 A 
HETATM   36  C   UNL     1       3.434  28.921  49.539  1.00  0.00     0.076 A 
HETATM   37  C   UNL     1       4.752  29.363  49.630  1.00  0.00     0.039 A 
HETATM   38  C   UNL     1       5.304  29.646  50.883  1.00  0.00     0.032 A 
BRANCH  36  39
HETATM   39  O   UNL     1       2.852  28.563  48.346  1.00  0.00    -0.311 OA
BRANCH  39  40
HETATM   40  C   UNL     1       2.294  29.558  47.576  1.00  0.00     0.076 A 
HETATM   41  C   UNL     1       1.044  30.029  47.982  1.00  0.00     0.037 A 
HETATM   42  C   UNL     1       0.431  31.072  47.287  1.00  0.00     0.003 A 
HETATM   43  C   UNL     1       1.072  31.652  46.194  1.00  0.00     0.000 A 
HETATM   44  C   UNL     1       2.330  31.196  45.799  1.00  0.00     0.003 A 
HETATM   45  C   UNL     1       2.947  30.155  46.494  1.00  0.00     0.037 A 
ENDBRANCH  39  40
ENDBRANCH  36  39
ENDBRANCH  30  33
ENDBRANCH   3  29
TORSDOF 8
ENDMDL
