MODEL 1
REMARK VINA RESULT:      -8.9      0.000      0.000
REMARK  5 active torsions:
REMARK  status: ('A' for Active; 'I' for Inactive)
REMARK    1  A    between atoms: C_8  and  C_9 
REMARK    2  A    between atoms: C_9  and  C_10 
REMARK       I    between atoms: C_10  and  N_11 
REMARK    3  A    between atoms: N_11  and  C_12 
REMARK    4  A    between atoms: C_12  and  C_13 
REMARK    5  A    between atoms: C_13  and  C_14 
ROOT
HETATM    1  C   UNL     1       8.280  29.184  57.499  1.00  0.00     0.226 C 
HETATM    2  N   UNL     1       7.405  28.256  58.025  1.00  0.00    -0.360 N 
HETATM    3  O   UNL     1       8.440  29.340  56.290  1.00  0.00    -0.273 OA
HETATM    4  H   UNL     1       7.557  27.985  58.988  1.00  0.00     0.162 HD
ENDROOT
BRANCH   2   5
HETATM    5  C   UNL     1       6.699  27.312  57.176  1.00  0.00     0.127 C 
BRANCH   5   6
HETATM    6  C   UNL     1       7.421  25.968  57.027  1.00  0.00     0.060 C 
BRANCH   6   7
HETATM    7  C   UNL     1       7.509  25.528  55.597  1.00  0.00    -0.029 A 
HETATM    8  C   UNL     1       7.706  24.191  55.125  1.00  0.00    -0.002 A 
HETATM    9  C   UNL     1       7.714  24.237  53.731  1.00  0.00     0.044 A 
HETATM   10  C   UNL     1       7.876  22.943  55.760  1.00  0.00     0.016 A 
HETATM   11  C   UNL     1       7.876  23.095  52.935  1.00  0.00     0.054 A 
HETATM   12  N   UNL     1       7.544  25.552  53.368  1.00  0.00    -0.365 N 
HETATM   13  C   UNL     1       8.034  21.872  53.593  1.00  0.00     0.036 A 
HETATM   14 CL   UNL     1       8.231  20.436  52.659  1.00  0.00    -0.084 Cl
HETATM   15  C   UNL     1       8.037  21.790  54.982  1.00  0.00     0.025 A 
HETATM   16  H   UNL     1       7.519  25.886  52.413  1.00  0.00     0.165 HD
HETATM   17  C   UNL     1       7.415  26.338  54.482  1.00  0.00     0.096 A 
ENDBRANCH   6   7
ENDBRANCH   5   6
ENDBRANCH   2   5
BRANCH   1  18
HETATM   18  C   UNL     1       9.049  30.021  58.527  1.00  0.00     0.111 C 
HETATM   19  C   UNL     1      10.125  30.875  57.862  1.00  0.00     0.025 C 
BRANCH  18  20
HETATM   20  C   UNL     1       8.097  30.764  59.431  1.00  0.00     0.004 A 
HETATM   21  C   UNL     1       6.901  31.413  59.161  1.00  0.00     0.033 A 
HETATM   22  C   UNL     1       6.114  31.634  57.924  1.00  0.00     0.070 C 
HETATM   23  N   UNL     1       6.470  31.917  60.359  1.00  0.00    -0.282 N 
HETATM   24  H   UNL     1       5.633  32.458  60.547  1.00  0.00     0.189 HD
HETATM   25  N   UNL     1       7.276  31.637  61.386  1.00  0.00    -0.179 NA
HETATM   26  C   UNL     1       8.275  30.939  60.840  1.00  0.00     0.060 A 
HETATM   27  C   UNL     1       9.387  30.446  61.694  1.00  0.00     0.073 C 
ENDBRANCH  18  20
ENDBRANCH   1  18
TORSDOF 5
ENDMDL
MODEL 2
REMARK VINA RESULT:      -8.8      5.478      8.813
REMARK  5 active torsions:
REMARK  status: ('A' for Active; 'I' for Inactive)
REMARK    1  A    between atoms: C_8  and  C_9 
REMARK    2  A    between atoms: C_9  and  C_10 
REMARK       I    between atoms: C_10  and  N_11 
REMARK    3  A    between atoms: N_11  and  C_12 
REMARK    4  A    between atoms: C_12  and  C_13 
REMARK    5  A    between atoms: C_13  and  C_14 
ROOT
HETATM    1  C   UNL     1       5.292  28.059  49.744  1.00  0.00     0.226 C 
HETATM    2  N   UNL     1       5.458  26.785  50.251  1.00  0.00    -0.360 N 
HETATM    3  O   UNL     1       5.591  29.072  50.375  1.00  0.00    -0.273 OA
HETATM    4  H   UNL     1       4.920  26.050  49.813  1.00  0.00     0.162 HD
ENDROOT
BRANCH   2   5
HETATM    5  C   UNL     1       5.889  26.564  51.621  1.00  0.00     0.127 C 
BRANCH   5   6
HETATM    6  C   UNL     1       6.871  25.395  51.769  1.00  0.00     0.060 C 
BRANCH   6   7
HETATM    7  C   UNL     1       6.904  24.859  53.168  1.00  0.00    -0.029 A 
HETATM    8  C   UNL     1       7.345  23.559  53.574  1.00  0.00    -0.002 A 
HETATM    9  C   UNL     1       7.215  23.487  54.961  1.00  0.00     0.044 A 
HETATM   10  C   UNL     1       7.846  22.435  52.884  1.00  0.00     0.016 A 
HETATM   11  C   UNL     1       7.569  22.350  55.699  1.00  0.00     0.054 A 
HETATM   12  N   UNL     1       6.701  24.691  55.382  1.00  0.00    -0.365 N 
HETATM   13  C   UNL     1       8.070  21.255  54.988  1.00  0.00     0.036 A 
HETATM   14 CL   UNL     1       8.526  19.834  55.851  1.00  0.00    -0.084 Cl
HETATM   15  C   UNL     1       8.209  21.289  53.604  1.00  0.00     0.025 A 
HETATM   16  H   UNL     1       6.492  24.921  56.344  1.00  0.00     0.165 HD
HETATM   17  C   UNL     1       6.513  25.525  54.313  1.00  0.00     0.096 A 
ENDBRANCH   6   7
ENDBRANCH   5   6
ENDBRANCH   2   5
BRANCH   1  18
HETATM   18  C   UNL     1       4.706  28.133  48.330  1.00  0.00     0.111 C 
HETATM   19  C   UNL     1       5.592  27.412  47.318  1.00  0.00     0.025 C 
BRANCH  18  20
HETATM   20  C   UNL     1       3.255  27.721  48.332  1.00  0.00     0.004 A 
HETATM   21  C   UNL     1       2.656  26.484  48.138  1.00  0.00     0.033 A 
HETATM   22  C   UNL     1       3.182  25.127  47.856  1.00  0.00     0.070 C 
HETATM   23  N   UNL     1       1.308  26.701  48.242  1.00  0.00    -0.282 N 
HETATM   24  H   UNL     1       0.556  26.026  48.150  1.00  0.00     0.189 HD
HETATM   25  N   UNL     1       0.981  27.968  48.502  1.00  0.00    -0.179 NA
HETATM   26  C   UNL     1       2.153  28.606  48.557  1.00  0.00     0.060 A 
HETATM   27  C   UNL     1       2.189  30.067  48.831  1.00  0.00     0.073 C 
ENDBRANCH  18  20
ENDBRANCH   1  18
TORSDOF 5
ENDMDL
MODEL 3
REMARK VINA RESULT:      -8.6      3.771      8.759
REMARK  5 active torsions:
REMARK  status: ('A' for Active; 'I' for Inactive)
REMARK    1  A    between atoms: C_8  and  C_9 
REMARK    2  A    between atoms: C_9  and  C_10 
REMARK       I    between atoms: C_10  and  N_11 
REMARK    3  A    between atoms: N_11  and  C_12 
REMARK    4  A    between atoms: C_12  and  C_13 
REMARK    5  A    between atoms: C_13  and  C_14 
ROOT
HETATM    1  C   UNL     1       6.623  27.061  56.356  1.00  0.00     0.226 C 
HETATM    2  N   UNL     1       7.939  27.472  56.431  1.00  0.00    -0.360 N 
HETATM    3  O   UNL     1       5.694  27.835  56.131  1.00  0.00    -0.273 OA
HETATM    4  H   UNL     1       8.579  26.854  56.910  1.00  0.00     0.162 HD
ENDROOT
BRANCH   2   5
HETATM    5  C   UNL     1       8.300  28.878  56.365  1.00  0.00     0.127 C 
BRANCH   5   6
HETATM    6  C   UNL     1       8.953  29.399  57.650  1.00  0.00     0.060 C 
BRANCH   6   7
HETATM    7  C   UNL     1       8.016  30.244  58.459  1.00  0.00    -0.029 A 
HETATM    8  C   UNL     1       8.255  30.770  59.769  1.00  0.00    -0.002 A 
HETATM    9  C   UNL     1       7.127  31.504  60.137  1.00  0.00     0.044 A 
HETATM   10  C   UNL     1       9.333  30.689  60.676  1.00  0.00     0.016 A 
HETATM   11  C   UNL     1       7.023  32.170  61.365  1.00  0.00     0.054 A 
HETATM   12  N   UNL     1       6.230  31.416  59.098  1.00  0.00    -0.365 N 
HETATM   13  C   UNL     1       8.110  32.078  62.239  1.00  0.00     0.036 A 
HETATM   14 CL   UNL     1       8.034  32.885  63.760  1.00  0.00    -0.084 Cl
HETATM   15  C   UNL     1       9.249  31.351  61.907  1.00  0.00     0.025 A 
HETATM   16  H   UNL     1       5.315  31.846  59.092  1.00  0.00     0.165 HD
HETATM   17  C   UNL     1       6.756  30.664  58.082  1.00  0.00     0.096 A 
ENDBRANCH   6   7
ENDBRANCH   5   6
ENDBRANCH   2   5
BRANCH   1  18
HETATM   18  C   UNL     1       6.388  25.562  56.574  1.00  0.00     0.111 C 
HETATM   19  C   UNL     1       4.985  25.288  57.109  1.00  0.00     0.025 C 
BRANCH  18  20
HETATM   20  C   UNL     1       6.779  24.777  55.347  1.00  0.00     0.004 A 
HETATM   21  C   UNL     1       6.194  24.692  54.091  1.00  0.00     0.033 A 
HETATM   22  C   UNL     1       4.992  25.308  53.480  1.00  0.00     0.070 C 
HETATM   23  N   UNL     1       6.972  23.824  53.374  1.00  0.00    -0.282 N 
HETATM   24  H   UNL     1       6.846  23.513  52.416  1.00  0.00     0.189 HD
HETATM   25  N   UNL     1       8.021  23.350  54.050  1.00  0.00    -0.179 NA
HETATM   26  C   UNL     1       7.918  23.917  55.255  1.00  0.00     0.060 A 
HETATM   27  C   UNL     1       8.932  23.618  56.302  1.00  0.00     0.073 C 
ENDBRANCH  18  20
ENDBRANCH   1  18
TORSDOF 5
ENDMDL
MODEL 4
REMARK VINA RESULT:      -8.6      2.102      2.995
REMARK  5 active torsions:
REMARK  status: ('A' for Active; 'I' for Inactive)
REMARK    1  A    between atoms: C_8  and  C_9 
REMARK    2  A    between atoms: C_9  and  C_10 
REMARK       I    between atoms: C_10  and  N_11 
REMARK    3  A    between atoms: N_11  and  C_12 
REMARK    4  A    between atoms: C_12  and  C_13 
REMARK    5  A    between atoms: C_13  and  C_14 
ROOT
HETATM    1  C   UNL     1       6.794  29.273  56.673  1.00  0.00     0.226 C 
HETATM    2  N   UNL     1       6.510  28.343  55.693  1.00  0.00    -0.360 N 
HETATM    3  O   UNL     1       6.287  30.393  56.698  1.00  0.00    -0.273 OA
HETATM    4  H   UNL     1       7.178  27.593  55.573  1.00  0.00     0.162 HD
ENDROOT
BRANCH   2   5
HETATM    5  C   UNL     1       5.675  28.675  54.552  1.00  0.00     0.127 C 
BRANCH   5   6
HETATM    6  C   UNL     1       4.853  27.490  54.033  1.00  0.00     0.060 C 
BRANCH   6   7
HETATM    7  C   UNL     1       5.668  26.566  53.179  1.00  0.00    -0.029 A 
HETATM    8  C   UNL     1       6.369  25.396  53.615  1.00  0.00    -0.002 A 
HETATM    9  C   UNL     1       6.983  24.836  52.494  1.00  0.00     0.044 A 
HETATM   10  C   UNL     1       6.534  24.761  54.863  1.00  0.00     0.016 A 
HETATM   11  C   UNL     1       7.750  23.665  52.556  1.00  0.00     0.054 A 
HETATM   12  N   UNL     1       6.682  25.642  51.422  1.00  0.00    -0.365 N 
HETATM   13  C   UNL     1       7.888  23.054  53.806  1.00  0.00     0.036 A 
HETATM   14 CL   UNL     1       8.817  21.607  53.933  1.00  0.00    -0.084 Cl
HETATM   15  C   UNL     1       7.294  23.587  54.945  1.00  0.00     0.025 A 
HETATM   16  H   UNL     1       7.004  25.483  50.476  1.00  0.00     0.165 HD
HETATM   17  C   UNL     1       5.888  26.683  51.821  1.00  0.00     0.096 A 
ENDBRANCH   6   7
ENDBRANCH   5   6
ENDBRANCH   2   5
BRANCH   1  18
HETATM   18  C   UNL     1       7.794  28.818  57.742  1.00  0.00     0.111 C 
HETATM   19  C   UNL     1       8.411  27.467  57.393  1.00  0.00     0.025 C 
BRANCH  18  20
HETATM   20  C   UNL     1       8.777  29.918  58.056  1.00  0.00     0.004 A 
HETATM   21  C   UNL     1       8.863  30.785  59.137  1.00  0.00     0.033 A 
HETATM   22  C   UNL     1       8.052  30.974  60.363  1.00  0.00     0.070 C 
HETATM   23  N   UNL     1       9.951  31.580  58.893  1.00  0.00    -0.282 N 
HETATM   24  H   UNL     1      10.317  32.335  59.463  1.00  0.00     0.189 HD
HETATM   25  N   UNL     1      10.587  31.294  57.755  1.00  0.00    -0.179 NA
HETATM   26  C   UNL     1       9.884  30.287  57.229  1.00  0.00     0.060 A 
HETATM   27  C   UNL     1      10.301  29.692  55.932  1.00  0.00     0.073 C 
ENDBRANCH  18  20
ENDBRANCH   1  18
TORSDOF 5
ENDMDL
MODEL 5
REMARK VINA RESULT:      -8.5      1.528      2.389
REMARK  5 active torsions:
REMARK  status: ('A' for Active; 'I' for Inactive)
REMARK    1  A    between atoms: C_8  and  C_9 
REMARK    2  A    between atoms: C_9  and  C_10 
REMARK       I    between atoms: C_10  and  N_11 
REMARK    3  A    between atoms: N_11  and  C_12 
REMARK    4  A    between atoms: C_12  and  C_13 
REMARK    5  A    between atoms: C_13  and  C_14 
ROOT
HETATM    1  C   UNL     1       7.278  29.425  57.901  1.00  0.00     0.226 C 
HETATM    2  N   UNL     1       6.488  28.790  56.964  1.00  0.00    -0.360 N 
HETATM    3  O   UNL     1       8.030  28.818  58.662  1.00  0.00    -0.273 OA
HETATM    4  H   UNL     1       5.699  29.312  56.607  1.00  0.00     0.162 HD
ENDROOT
BRANCH   2   5
HETATM    5  C   UNL     1       6.406  27.341  56.898  1.00  0.00     0.127 C 
BRANCH   5   6
HETATM    6  C   UNL     1       7.261  26.733  55.780  1.00  0.00     0.060 C 
BRANCH   6   7
HETATM    7  C   UNL     1       7.582  25.291  56.033  1.00  0.00    -0.029 A 
HETATM    8  C   UNL     1       7.692  24.255  55.051  1.00  0.00    -0.002 A 
HETATM    9  C   UNL     1       8.013  23.075  55.722  1.00  0.00     0.044 A 
HETATM   10  C   UNL     1       7.550  24.217  53.648  1.00  0.00     0.016 A 
HETATM   11  C   UNL     1       8.207  21.855  55.061  1.00  0.00     0.054 A 
HETATM   12  N   UNL     1       8.079  23.377  57.062  1.00  0.00    -0.365 N 
HETATM   13  C   UNL     1       8.068  21.850  53.670  1.00  0.00     0.036 A 
HETATM   14 CL   UNL     1       8.303  20.375  52.809  1.00  0.00    -0.084 Cl
HETATM   15  C   UNL     1       7.744  23.007  52.968  1.00  0.00     0.025 A 
HETATM   16  H   UNL     1       8.285  22.707  57.792  1.00  0.00     0.165 HD
HETATM   17  C   UNL     1       7.826  24.707  57.261  1.00  0.00     0.096 A 
ENDBRANCH   6   7
ENDBRANCH   5   6
ENDBRANCH   2   5
BRANCH   1  18
HETATM   18  C   UNL     1       7.158  30.953  57.936  1.00  0.00     0.111 C 
HETATM   19  C   UNL     1       5.700  31.401  57.890  1.00  0.00     0.025 C 
BRANCH  18  20
HETATM   20  C   UNL     1       7.979  31.527  59.063  1.00  0.00     0.004 A 
HETATM   21  C   UNL     1       7.605  32.021  60.305  1.00  0.00     0.033 A 
HETATM   22  C   UNL     1       6.301  32.182  60.992  1.00  0.00     0.070 C 
HETATM   23  N   UNL     1       8.766  32.416  60.915  1.00  0.00    -0.282 N 
HETATM   24  H   UNL     1       8.882  32.834  61.832  1.00  0.00     0.189 HD
HETATM   25  N   UNL     1       9.862  32.207  60.182  1.00  0.00    -0.179 NA
HETATM   26  C   UNL     1       9.402  31.670  59.049  1.00  0.00     0.060 A 
HETATM   27  C   UNL     1      10.353  31.297  57.968  1.00  0.00     0.073 C 
ENDBRANCH  18  20
ENDBRANCH   1  18
TORSDOF 5
ENDMDL
MODEL 6
REMARK VINA RESULT:      -8.4      5.991      9.388
REMARK  5 active torsions:
REMARK  status: ('A' for Active; 'I' for Inactive)
REMARK    1  A    between atoms: C_8  and  C_9 
REMARK    2  A    between atoms: C_9  and  C_10 
REMARK       I    between atoms: C_10  and  N_11 
REMARK    3  A    between atoms: N_11  and  C_12 
REMARK    4  A    between atoms: C_12  and  C_13 
REMARK    5  A    between atoms: C_13  and  C_14 
ROOT
HETATM    1  C   UNL     1       4.415  28.094  49.531  1.00  0.00     0.226 C 
HETATM    2  N   UNL     1       5.558  27.475  49.996  1.00  0.00    -0.360 N 
HETATM    3  O   UNL     1       3.473  28.393  50.263  1.00  0.00    -0.273 OA
HETATM    4  H   UNL     1       6.128  27.001  49.309  1.00  0.00     0.162 HD
ENDROOT
BRANCH   2   5
HETATM    5  C   UNL     1       5.672  27.027  51.373  1.00  0.00     0.127 C 
BRANCH   5   6
HETATM    6  C   UNL     1       5.792  25.505  51.511  1.00  0.00     0.060 C 
BRANCH   6   7
HETATM    7  C   UNL     1       6.011  25.081  52.931  1.00  0.00    -0.029 A 
HETATM    8  C   UNL     1       6.848  24.011  53.384  1.00  0.00    -0.002 A 
HETATM    9  C   UNL     1       6.764  23.975  54.776  1.00  0.00     0.044 A 
HETATM   10  C   UNL     1       7.672  23.070  52.733  1.00  0.00     0.016 A 
HETATM   11  C   UNL     1       7.471  23.049  55.555  1.00  0.00     0.054 A 
HETATM   12  N   UNL     1       5.898  24.973  55.155  1.00  0.00    -0.365 N 
HETATM   13  C   UNL     1       8.286  22.134  54.881  1.00  0.00     0.036 A 
HETATM   14 CL   UNL     1       9.181  20.978  55.795  1.00  0.00    -0.084 Cl
HETATM   15  C   UNL     1       8.390  22.138  53.493  1.00  0.00     0.025 A 
HETATM   16  H   UNL     1       5.639  25.175  56.112  1.00  0.00     0.165 HD
HETATM   17  C   UNL     1       5.442  25.648  54.055  1.00  0.00     0.096 A 
ENDBRANCH   6   7
ENDBRANCH   5   6
ENDBRANCH   2   5
BRANCH   1  18
HETATM   18  C   UNL     1       4.392  28.389  48.027  1.00  0.00     0.111 C 
HETATM   19  C   UNL     1       5.581  27.752  47.314  1.00  0.00     0.025 C 
BRANCH  18  20
HETATM   20  C   UNL     1       3.038  28.072  47.442  1.00  0.00     0.004 A 
HETATM   21  C   UNL     1       2.056  28.897  46.912  1.00  0.00     0.033 A 
HETATM   22  C   UNL     1       1.946  30.363  46.721  1.00  0.00     0.070 C 
HETATM   23  N   UNL     1       1.034  28.067  46.536  1.00  0.00    -0.282 N 
HETATM   24  H   UNL     1       0.145  28.318  46.116  1.00  0.00     0.189 HD
HETATM   25  N   UNL     1       1.273  26.774  46.764  1.00  0.00    -0.179 NA
HETATM   26  C   UNL     1       2.488  26.757  47.318  1.00  0.00     0.060 A 
HETATM   27  C   UNL     1       3.101  25.462  47.718  1.00  0.00     0.073 C 
ENDBRANCH  18  20
ENDBRANCH   1  18
TORSDOF 5
ENDMDL
MODEL 7
REMARK VINA RESULT:      -8.3      3.254      7.143
REMARK  5 active torsions:
REMARK  status: ('A' for Active; 'I' for Inactive)
REMARK    1  A    between atoms: C_8  and  C_9 
REMARK    2  A    between atoms: C_9  and  C_10 
REMARK       I    between atoms: C_10  and  N_11 
REMARK    3  A    between atoms: N_11  and  C_12 
REMARK    4  A    between atoms: C_12  and  C_13 
REMARK    5  A    between atoms: C_13  and  C_14 
ROOT
HETATM    1  C   UNL     1       5.050  28.798  53.787  1.00  0.00     0.226 C 
HETATM    2  N   UNL     1       5.488  29.765  54.669  1.00  0.00    -0.360 N 
HETATM    3  O   UNL     1       3.877  28.431  53.728  1.00  0.00    -0.273 OA
HETATM    4  H   UNL     1       6.480  29.785  54.863  1.00  0.00     0.162 HD
ENDROOT
BRANCH   2   5
HETATM    5  C   UNL     1       4.607  30.329  55.676  1.00  0.00     0.127 C 
BRANCH   5   6
HETATM    6  C   UNL     1       4.541  29.500  56.963  1.00  0.00     0.060 C 
BRANCH   6   7
HETATM    7  C   UNL     1       5.846  28.828  57.270  1.00  0.00    -0.029 A 
HETATM    8  C   UNL     1       6.149  27.438  57.108  1.00  0.00    -0.002 A 
HETATM    9  C   UNL     1       7.475  27.252  57.503  1.00  0.00     0.044 A 
HETATM   10  C   UNL     1       5.415  26.321  56.659  1.00  0.00     0.016 A 
HETATM   11  C   UNL     1       8.109  26.003  57.463  1.00  0.00     0.054 A 
HETATM   12  N   UNL     1       7.954  28.477  57.904  1.00  0.00    -0.365 N 
HETATM   13  C   UNL     1       7.358  24.916  57.005  1.00  0.00     0.036 A 
HETATM   14 CL   UNL     1       8.095  23.360  56.932  1.00  0.00    -0.084 Cl
HETATM   15  C   UNL     1       6.033  25.065  56.609  1.00  0.00     0.025 A 
HETATM   16  H   UNL     1       8.889  28.641  58.252  1.00  0.00     0.165 HD
HETATM   17  C   UNL     1       6.985  29.433  57.765  1.00  0.00     0.096 A 
ENDBRANCH   6   7
ENDBRANCH   5   6
ENDBRANCH   2   5
BRANCH   1  18
HETATM   18  C   UNL     1       6.127  28.204  52.873  1.00  0.00     0.111 C 
HETATM   19  C   UNL     1       7.275  27.603  53.679  1.00  0.00     0.025 C 
BRANCH  18  20
HETATM   20  C   UNL     1       5.509  27.291  51.843  1.00  0.00     0.004 A 
HETATM   21  C   UNL     1       5.075  25.975  51.932  1.00  0.00     0.033 A 
HETATM   22  C   UNL     1       5.052  24.978  53.028  1.00  0.00     0.070 C 
HETATM   23  N   UNL     1       4.608  25.652  50.686  1.00  0.00    -0.282 N 
HETATM   24  H   UNL     1       4.218  24.769  50.373  1.00  0.00     0.189 HD
HETATM   25  N   UNL     1       4.686  26.648  49.801  1.00  0.00    -0.179 NA
HETATM   26  C   UNL     1       5.237  27.654  50.486  1.00  0.00     0.060 A 
HETATM   27  C   UNL     1       5.486  28.957  49.815  1.00  0.00     0.073 C 
ENDBRANCH  18  20
ENDBRANCH   1  18
TORSDOF 5
ENDMDL
MODEL 8
REMARK VINA RESULT:      -8.3      3.890      8.843
REMARK  5 active torsions:
REMARK  status: ('A' for Active; 'I' for Inactive)
REMARK    1  A    between atoms: C_8  and  C_9 
REMARK    2  A    between atoms: C_9  and  C_10 
REMARK       I    between atoms: C_10  and  N_11 
REMARK    3  A    between atoms: N_11  and  C_12 
REMARK    4  A    between atoms: C_12  and  C_13 
REMARK    5  A    between atoms: C_13  and  C_14 
ROOT
HETATM    1  C   UNL     1       7.754  27.475  55.140  1.00  0.00     0.226 C 
HETATM    2  N   UNL     1       8.138  28.064  56.328  1.00  0.00    -0.360 N 
HETATM    3  O   UNL     1       7.950  27.996  54.043  1.00  0.00    -0.273 OA
HETATM    4  H   UNL     1       7.680  27.732  57.166  1.00  0.00     0.162 HD
ENDROOT
BRANCH   2   5
HETATM    5  C   UNL     1       8.697  29.404  56.365  1.00  0.00     0.127 C 
BRANCH   5   6
HETATM    6  C   UNL     1       9.233  29.802  57.745  1.00  0.00     0.060 C 
BRANCH   6   7
HETATM    7  C   UNL     1       8.203  30.515  58.567  1.00  0.00    -0.029 A 
HETATM    8  C   UNL     1       8.373  31.027  59.893  1.00  0.00    -0.002 A 
HETATM    9  C   UNL     1       7.168  31.620  60.271  1.00  0.00     0.044 A 
HETATM   10  C   UNL     1       9.448  31.041  60.807  1.00  0.00     0.016 A 
HETATM   11  C   UNL     1       6.983  32.236  61.515  1.00  0.00     0.054 A 
HETATM   12  N   UNL     1       6.293  31.462  59.222  1.00  0.00    -0.365 N 
HETATM   13  C   UNL     1       8.068  32.240  62.397  1.00  0.00     0.036 A 
HETATM   14 CL   UNL     1       7.893  32.991  63.939  1.00  0.00    -0.084 Cl
HETATM   15  C   UNL     1       9.283  31.654  62.056  1.00  0.00     0.025 A 
HETATM   16  H   UNL     1       5.336  31.787  59.219  1.00  0.00     0.165 HD
HETATM   17  C   UNL     1       6.906  30.802  58.190  1.00  0.00     0.096 A 
ENDBRANCH   6   7
ENDBRANCH   5   6
ENDBRANCH   2   5
BRANCH   1  18
HETATM   18  C   UNL     1       7.059  26.115  55.273  1.00  0.00     0.111 C 
HETATM   19  C   UNL     1       6.612  25.854  56.708  1.00  0.00     0.025 C 
BRANCH  18  20
HETATM   20  C   UNL     1       5.991  25.957  54.221  1.00  0.00     0.004 A 
HETATM   21  C   UNL     1       4.887  26.741  53.914  1.00  0.00     0.033 A 
HETATM   22  C   UNL     1       4.335  27.995  54.480  1.00  0.00     0.070 C 
HETATM   23  N   UNL     1       4.262  26.114  52.870  1.00  0.00    -0.282 N 
HETATM   24  H   UNL     1       3.416  26.395  52.386  1.00  0.00     0.189 HD
HETATM   25  N   UNL     1       4.872  24.999  52.463  1.00  0.00    -0.179 NA
HETATM   26  C   UNL     1       5.925  24.884  53.276  1.00  0.00     0.060 A 
HETATM   27  C   UNL     1       6.858  23.737  53.122  1.00  0.00     0.073 C 
ENDBRANCH  18  20
ENDBRANCH   1  18
TORSDOF 5
ENDMDL
MODEL 9
REMARK VINA RESULT:      -8.1      5.496      8.366
REMARK  5 active torsions:
REMARK  status: ('A' for Active; 'I' for Inactive)
REMARK    1  A    between atoms: C_8  and  C_9 
REMARK    2  A    between atoms: C_9  and  C_10 
REMARK       I    between atoms: C_10  and  N_11 
REMARK    3  A    between atoms: N_11  and  C_12 
REMARK    4  A    between atoms: C_12  and  C_13 
REMARK    5  A    between atoms: C_13  and  C_14 
ROOT
HETATM    1  C   UNL     1       5.359  28.101  49.990  1.00  0.00     0.226 C 
HETATM    2  N   UNL     1       5.342  26.730  50.155  1.00  0.00    -0.360 N 
HETATM    3  O   UNL     1       5.525  28.883  50.925  1.00  0.00    -0.273 OA
HETATM    4  H   UNL     1       4.906  26.192  49.418  1.00  0.00     0.162 HD
ENDROOT
BRANCH   2   5
HETATM    5  C   UNL     1       5.399  26.123  51.473  1.00  0.00     0.127 C 
BRANCH   5   6
HETATM    6  C   UNL     1       6.697  25.350  51.731  1.00  0.00     0.060 C 
BRANCH   6   7
HETATM    7  C   UNL     1       6.779  24.835  53.137  1.00  0.00    -0.029 A 
HETATM    8  C   UNL     1       7.270  23.555  53.550  1.00  0.00    -0.002 A 
HETATM    9  C   UNL     1       7.173  23.500  54.941  1.00  0.00     0.044 A 
HETATM   10  C   UNL     1       7.792  22.438  52.865  1.00  0.00     0.016 A 
HETATM   11  C   UNL     1       7.580  22.385  55.686  1.00  0.00     0.054 A 
HETATM   12  N   UNL     1       6.630  24.693  55.357  1.00  0.00    -0.365 N 
HETATM   13  C   UNL     1       8.100  21.297  54.980  1.00  0.00     0.036 A 
HETATM   14 CL   UNL     1       8.620  19.903  55.851  1.00  0.00    -0.084 Cl
HETATM   15  C   UNL     1       8.207  21.315  53.592  1.00  0.00     0.025 A 
HETATM   16  H   UNL     1       6.435  24.930  56.320  1.00  0.00     0.165 HD
HETATM   17  C   UNL     1       6.392  25.505  54.281  1.00  0.00     0.096 A 
ENDBRANCH   6   7
ENDBRANCH   5   6
ENDBRANCH   2   5
BRANCH   1  18
HETATM   18  C   UNL     1       5.158  28.594  48.553  1.00  0.00     0.111 C 
HETATM   19  C   UNL     1       5.202  27.441  47.554  1.00  0.00     0.025 C 
BRANCH  18  20
HETATM   20  C   UNL     1       3.946  29.487  48.461  1.00  0.00     0.004 A 
HETATM   21  C   UNL     1       2.590  29.198  48.539  1.00  0.00     0.033 A 
HETATM   22  C   UNL     1       1.821  27.946  48.732  1.00  0.00     0.070 C 
HETATM   23  N   UNL     1       1.944  30.395  48.381  1.00  0.00    -0.282 N 
HETATM   24  H   UNL     1       0.945  30.572  48.375  1.00  0.00     0.189 HD
HETATM   25  N   UNL     1       2.762  31.437  48.222  1.00  0.00    -0.179 NA
HETATM   26  C   UNL     1       3.986  30.903  48.264  1.00  0.00     0.060 A 
HETATM   27  C   UNL     1       5.180  31.777  48.116  1.00  0.00     0.073 C 
ENDBRANCH  18  20
ENDBRANCH   1  18
TORSDOF 5
ENDMDL
MODEL 10
REMARK VINA RESULT:      -8.1      3.947      6.448
REMARK  5 active torsions:
REMARK  status: ('A' for Active; 'I' for Inactive)
REMARK    1  A    between atoms: C_8  and  C_9 
REMARK    2  A    between atoms: C_9  and  C_10 
REMARK       I    between atoms: C_10  and  N_11 
REMARK    3  A    between atoms: N_11  and  C_12 
REMARK    4  A    between atoms: C_12  and  C_13 
REMARK    5  A    between atoms: C_13  and  C_14 
ROOT
HETATM    1  C   UNL     1       5.403  27.845  54.449  1.00  0.00     0.226 C 
HETATM    2  N   UNL     1       5.249  26.935  55.475  1.00  0.00    -0.360 N 
HETATM    3  O   UNL     1       6.373  28.595  54.362  1.00  0.00    -0.273 OA
HETATM    4  H   UNL     1       4.313  26.590  55.638  1.00  0.00     0.162 HD
ENDROOT
BRANCH   2   5
HETATM    5  C   UNL     1       6.176  26.887  56.593  1.00  0.00     0.127 C 
BRANCH   5   6
HETATM    6  C   UNL     1       7.610  26.534  56.181  1.00  0.00     0.060 C 
BRANCH   6   7
HETATM    7  C   UNL     1       7.894  25.070  56.320  1.00  0.00    -0.029 A 
HETATM    8  C   UNL     1       7.934  24.104  55.264  1.00  0.00    -0.002 A 
HETATM    9  C   UNL     1       8.242  22.870  55.837  1.00  0.00     0.044 A 
HETATM   10  C   UNL     1       7.739  24.169  53.868  1.00  0.00     0.016 A 
HETATM   11  C   UNL     1       8.374  21.695  55.085  1.00  0.00     0.054 A 
HETATM   12  N   UNL     1       8.368  23.073  57.191  1.00  0.00    -0.365 N 
HETATM   13  C   UNL     1       8.182  21.793  53.704  1.00  0.00     0.036 A 
HETATM   14 CL   UNL     1       8.338  20.377  52.733  1.00  0.00    -0.084 Cl
HETATM   15  C   UNL     1       7.869  23.006  53.098  1.00  0.00     0.025 A 
HETATM   16  H   UNL     1       8.580  22.348  57.864  1.00  0.00     0.165 HD
HETATM   17  C   UNL     1       8.165  24.393  57.493  1.00  0.00     0.096 A 
ENDBRANCH   6   7
ENDBRANCH   5   6
ENDBRANCH   2   5
BRANCH   1  18
HETATM   18  C   UNL     1       4.275  27.865  53.412  1.00  0.00     0.111 C 
HETATM   19  C   UNL     1       3.497  29.177  53.455  1.00  0.00     0.025 C 
BRANCH  18  20
HETATM   20  C   UNL     1       4.791  27.461  52.054  1.00  0.00     0.004 A 
HETATM   21  C   UNL     1       5.001  26.210  51.491  1.00  0.00     0.033 A 
HETATM   22  C   UNL     1       4.815  24.824  51.982  1.00  0.00     0.070 C 
HETATM   23  N   UNL     1       5.490  26.443  50.233  1.00  0.00    -0.282 N 
HETATM   24  H   UNL     1       5.765  25.763  49.531  1.00  0.00     0.189 HD
HETATM   25  N   UNL     1       5.601  27.737  49.925  1.00  0.00    -0.179 NA
HETATM   26  C   UNL     1       5.184  28.373  51.023  1.00  0.00     0.060 A 
HETATM   27  C   UNL     1       5.167  29.859  51.056  1.00  0.00     0.073 C 
ENDBRANCH  18  20
ENDBRANCH   1  18
TORSDOF 5
ENDMDL
