MODEL 1
REMARK VINA RESULT:     -11.0      0.000      0.000
REMARK  5 active torsions:
REMARK  status: ('A' for Active; 'I' for Inactive)
REMARK    1  A    between atoms: C_3  and  N_4 
REMARK       I    between atoms: N_4  and  C_5 
REMARK    2  A    between atoms: C_9  and  N_10 
REMARK       I    between atoms: N_10  and  C_11 
REMARK    3  A    between atoms: C_11  and  C_12 
REMARK    4  A    between atoms: C_17  and  C_18 
REMARK    5  A    between atoms: C_24  and  C_25 
ROOT
HETATM    1  C   UNL     1       6.229  32.883  63.988  1.00  0.00     0.148 C 
HETATM    2  N   UNL     1       4.994  33.069  64.513  1.00  0.00    -0.165 NA
HETATM    3  N   UNL     1       5.244  33.765  65.636  1.00  0.00    -0.240 N 
HETATM    4  C   UNL     1       6.571  33.901  65.926  1.00  0.00     0.123 C 
HETATM    5  N   UNL     1       6.975  34.419  67.102  1.00  0.00    -0.364 N 
HETATM    6  C   UNL     1       6.070  34.600  68.245  1.00  0.00     0.143 C 
HETATM    7  C   UNL     1       4.682  33.972  67.980  1.00  0.00     0.068 C 
HETATM    8  C   UNL     1       4.197  34.190  66.543  1.00  0.00     0.221 C 
HETATM    9  C   UNL     1       7.240  33.423  64.833  1.00  0.00     0.089 C 
HETATM   10  H   UNL     1       7.963  34.549  67.311  1.00  0.00     0.162 HD
ENDROOT
BRANCH   1  11
HETATM   11  C   UNL     1       6.441  32.149  62.727  1.00  0.00     0.276 C 
HETATM   12  N   UNL     1       7.721  32.332  62.236  1.00  0.00    -0.322 N 
HETATM   13  H   UNL     1       8.297  32.926  62.828  1.00  0.00     0.169 HD
HETATM   14  O   UNL     1       5.540  31.506  62.202  1.00  0.00    -0.266 OA
BRANCH  12  15
HETATM   15  C   UNL     1       8.265  31.869  61.027  1.00  0.00     0.037 A 
HETATM   16  C   UNL     1       7.545  31.148  60.074  1.00  0.00     0.059 A 
HETATM   17  C   UNL     1       8.124  30.731  58.855  1.00  0.00     0.042 A 
HETATM   18  C   UNL     1       9.485  30.994  58.625  1.00  0.00    -0.035 A 
HETATM   19  C   UNL     1      10.269  30.502  57.441  1.00  0.00     0.050 C 
HETATM   20  C   UNL     1      10.199  31.740  59.584  1.00  0.00     0.011 A 
HETATM   21  C   UNL     1       9.600  32.168  60.770  1.00  0.00     0.030 A 
BRANCH  17  22
HETATM   22  N   UNL     1       7.245  30.024  58.002  1.00  0.00    -0.327 N 
HETATM   23  C   UNL     1       7.174  28.665  57.774  1.00  0.00     0.218 C 
HETATM   24  C   UNL     1       6.025  28.290  56.869  1.00  0.00     0.117 C 
HETATM   25  O   UNL     1       7.923  27.799  58.210  1.00  0.00    -0.274 OA
HETATM   26  H   UNL     1       6.776  30.596  57.309  1.00  0.00     0.169 HD
ENDBRANCH  17  22
ENDBRANCH  12  15
ENDBRANCH   1  11
BRANCH   8  27
HETATM   27  C   UNL     1       3.818  35.627  66.261  1.00  0.00     0.409 C 
HETATM   28  F   UNL     1       3.476  35.822  64.968  1.00  0.00    -0.169 F 
HETATM   29  F   UNL     1       2.731  35.966  67.002  1.00  0.00    -0.169 F 
HETATM   30  F   UNL     1       4.786  36.514  66.568  1.00  0.00    -0.169 F 
ENDBRANCH   8  27
BRANCH   6  31
HETATM   31  C   UNL     1       6.626  34.022  69.512  1.00  0.00     0.075 A 
HETATM   32  O   UNL     1       5.847  33.118  70.172  1.00  0.00    -0.325 OA
HETATM   33  C   UNL     1       6.548  32.716  71.264  1.00  0.00     0.142 A 
HETATM   34  C   UNL     1       7.770  33.345  71.313  1.00  0.00     0.027 A 
HETATM   35  C   UNL     1       7.823  34.191  70.181  1.00  0.00     0.037 A 
ENDBRANCH   6  31
TORSDOF 5
ENDMDL
MODEL 2
REMARK VINA RESULT:     -10.8      1.459      2.320
REMARK  5 active torsions:
REMARK  status: ('A' for Active; 'I' for Inactive)
REMARK    1  A    between atoms: C_3  and  N_4 
REMARK       I    between atoms: N_4  and  C_5 
REMARK    2  A    between atoms: C_9  and  N_10 
REMARK       I    between atoms: N_10  and  C_11 
REMARK    3  A    between atoms: C_11  and  C_12 
REMARK    4  A    between atoms: C_17  and  C_18 
REMARK    5  A    between atoms: C_24  and  C_25 
ROOT
HETATM    1  C   UNL     1       6.546  32.720  63.888  1.00  0.00     0.148 C 
HETATM    2  N   UNL     1       5.270  32.856  64.327  1.00  0.00    -0.165 NA
HETATM    3  N   UNL     1       5.407  33.625  65.421  1.00  0.00    -0.240 N 
HETATM    4  C   UNL     1       6.703  33.860  65.782  1.00  0.00     0.123 C 
HETATM    5  N   UNL     1       7.000  34.464  66.948  1.00  0.00    -0.364 N 
HETATM    6  C   UNL     1       6.016  34.649  68.023  1.00  0.00     0.143 C 
HETATM    7  C   UNL     1       4.687  33.921  67.712  1.00  0.00     0.068 C 
HETATM    8  C   UNL     1       4.282  34.032  66.238  1.00  0.00     0.221 C 
HETATM    9  C   UNL     1       7.467  33.367  64.760  1.00  0.00     0.089 C 
HETATM   10  H   UNL     1       7.964  34.667  67.208  1.00  0.00     0.162 HD
ENDROOT
BRANCH   1  11
HETATM   11  C   UNL     1       6.880  31.935  62.686  1.00  0.00     0.276 C 
HETATM   12  N   UNL     1       6.314  32.475  61.547  1.00  0.00    -0.322 N 
HETATM   13  H   UNL     1       5.776  33.320  61.727  1.00  0.00     0.169 HD
HETATM   14  O   UNL     1       7.551  30.911  62.757  1.00  0.00    -0.266 OA
BRANCH  12  15
HETATM   15  C   UNL     1       6.334  31.967  60.237  1.00  0.00     0.037 A 
HETATM   16  C   UNL     1       7.466  31.418  59.632  1.00  0.00     0.059 A 
HETATM   17  C   UNL     1       7.432  30.888  58.324  1.00  0.00     0.042 A 
HETATM   18  C   UNL     1       6.240  30.977  57.585  1.00  0.00    -0.035 A 
HETATM   19  C   UNL     1       6.088  30.578  56.145  1.00  0.00     0.050 C 
HETATM   20  C   UNL     1       5.099  31.515  58.211  1.00  0.00     0.011 A 
HETATM   21  C   UNL     1       5.144  32.008  59.516  1.00  0.00     0.030 A 
BRANCH  17  22
HETATM   22  N   UNL     1       8.666  30.359  57.876  1.00  0.00    -0.327 N 
HETATM   23  C   UNL     1       9.918  30.939  57.922  1.00  0.00     0.218 C 
HETATM   24  C   UNL     1      11.003  30.006  57.438  1.00  0.00     0.117 C 
HETATM   25  O   UNL     1      10.198  32.074  58.288  1.00  0.00    -0.274 OA
HETATM   26  H   UNL     1       8.585  29.572  57.244  1.00  0.00     0.169 HD
ENDBRANCH  17  22
ENDBRANCH  12  15
ENDBRANCH   1  11
BRANCH   8  27
HETATM   27  C   UNL     1       3.837  35.424  65.852  1.00  0.00     0.409 C 
HETATM   28  F   UNL     1       4.881  36.237  65.575  1.00  0.00    -0.169 F 
HETATM   29  F   UNL     1       3.084  35.367  64.723  1.00  0.00    -0.169 F 
HETATM   30  F   UNL     1       3.080  36.032  66.789  1.00  0.00    -0.169 F 
ENDBRANCH   8  27
BRANCH   6  31
HETATM   31  C   UNL     1       6.524  34.176  69.352  1.00  0.00     0.075 A 
HETATM   32  O   UNL     1       5.693  33.379  70.082  1.00  0.00    -0.325 OA
HETATM   33  C   UNL     1       6.357  33.056  71.223  1.00  0.00     0.142 A 
HETATM   34  C   UNL     1       7.607  33.630  71.234  1.00  0.00     0.027 A 
HETATM   35  C   UNL     1       7.717  34.355  70.025  1.00  0.00     0.037 A 
ENDBRANCH   6  31
TORSDOF 5
ENDMDL
MODEL 3
REMARK VINA RESULT:     -10.3      7.597     13.441
REMARK  5 active torsions:
REMARK  status: ('A' for Active; 'I' for Inactive)
REMARK    1  A    between atoms: C_3  and  N_4 
REMARK       I    between atoms: N_4  and  C_5 
REMARK    2  A    between atoms: C_9  and  N_10 
REMARK       I    between atoms: N_10  and  C_11 
REMARK    3  A    between atoms: C_11  and  C_12 
REMARK    4  A    between atoms: C_17  and  C_18 
REMARK    5  A    between atoms: C_24  and  C_25 
ROOT
HETATM    1  C   UNL     1       7.545  27.509  55.366  1.00  0.00     0.148 C 
HETATM    2  N   UNL     1       7.628  27.445  54.014  1.00  0.00    -0.165 NA
HETATM    3  N   UNL     1       7.199  26.199  53.744  1.00  0.00    -0.240 N 
HETATM    4  C   UNL     1       6.991  25.426  54.850  1.00  0.00     0.123 C 
HETATM    5  N   UNL     1       6.730  24.110  54.738  1.00  0.00    -0.364 N 
HETATM    6  C   UNL     1       6.929  23.362  53.489  1.00  0.00     0.143 C 
HETATM    7  C   UNL     1       7.624  24.226  52.411  1.00  0.00     0.068 C 
HETATM    8  C   UNL     1       7.121  25.674  52.396  1.00  0.00     0.221 C 
HETATM    9  C   UNL     1       7.115  26.270  55.920  1.00  0.00     0.089 C 
HETATM   10  H   UNL     1       6.545  23.535  55.558  1.00  0.00     0.162 HD
ENDROOT
BRANCH   1  11
HETATM   11  C   UNL     1       7.925  28.719  56.117  1.00  0.00     0.276 C 
HETATM   12  N   UNL     1       7.193  28.853  57.281  1.00  0.00    -0.322 N 
HETATM   13  H   UNL     1       6.529  28.095  57.427  1.00  0.00     0.169 HD
HETATM   14  O   UNL     1       8.768  29.499  55.687  1.00  0.00    -0.266 OA
BRANCH  12  15
HETATM   15  C   UNL     1       7.209  29.910  58.206  1.00  0.00     0.037 A 
HETATM   16  C   UNL     1       6.222  30.894  58.281  1.00  0.00     0.059 A 
HETATM   17  C   UNL     1       6.260  31.920  59.249  1.00  0.00     0.042 A 
HETATM   18  C   UNL     1       7.360  31.991  60.121  1.00  0.00    -0.035 A 
HETATM   19  C   UNL     1       7.605  33.095  61.111  1.00  0.00     0.050 C 
HETATM   20  C   UNL     1       8.341  30.982  60.050  1.00  0.00     0.011 A 
HETATM   21  C   UNL     1       8.271  29.959  59.104  1.00  0.00     0.030 A 
BRANCH  17  22
HETATM   22  N   UNL     1       5.172  32.822  59.189  1.00  0.00    -0.327 N 
HETATM   23  C   UNL     1       4.822  33.682  58.167  1.00  0.00     0.218 C 
HETATM   24  C   UNL     1       3.527  34.407  58.442  1.00  0.00     0.117 C 
HETATM   25  O   UNL     1       5.442  33.897  57.132  1.00  0.00    -0.274 OA
HETATM   26  H   UNL     1       4.741  33.026  60.082  1.00  0.00     0.169 HD
ENDBRANCH  17  22
ENDBRANCH  12  15
ENDBRANCH   1  11
BRANCH   8  27
HETATM   27  C   UNL     1       5.710  25.802  51.869  1.00  0.00     0.409 C 
HETATM   28  F   UNL     1       4.976  26.685  52.581  1.00  0.00    -0.169 F 
HETATM   29  F   UNL     1       5.740  26.266  50.592  1.00  0.00    -0.169 F 
HETATM   30  F   UNL     1       5.033  24.635  51.838  1.00  0.00    -0.169 F 
ENDBRANCH   8  27
BRANCH   6  31
HETATM   31  C   UNL     1       7.729  22.111  53.694  1.00  0.00     0.075 A 
HETATM   32  O   UNL     1       8.217  21.888  54.948  1.00  0.00    -0.325 OA
HETATM   33  C   UNL     1       8.883  20.704  54.908  1.00  0.00     0.142 A 
HETATM   34  C   UNL     1       8.826  20.160  53.647  1.00  0.00     0.027 A 
HETATM   35  C   UNL     1       8.080  21.068  52.859  1.00  0.00     0.037 A 
ENDBRANCH   6  31
TORSDOF 5
ENDMDL
MODEL 4
REMARK VINA RESULT:     -10.1      5.662     12.065
REMARK  5 active torsions:
REMARK  status: ('A' for Active; 'I' for Inactive)
REMARK    1  A    between atoms: C_3  and  N_4 
REMARK       I    between atoms: N_4  and  C_5 
REMARK    2  A    between atoms: C_9  and  N_10 
REMARK       I    between atoms: N_10  and  C_11 
REMARK    3  A    between atoms: C_11  and  C_12 
REMARK    4  A    between atoms: C_17  and  C_18 
REMARK    5  A    between atoms: C_24  and  C_25 
ROOT
HETATM    1  C   UNL     1       8.272  29.593  57.596  1.00  0.00     0.148 C 
HETATM    2  N   UNL     1       7.512  28.493  57.824  1.00  0.00    -0.165 NA
HETATM    3  N   UNL     1       7.501  27.880  56.627  1.00  0.00    -0.240 N 
HETATM    4  C   UNL     1       8.083  28.600  55.624  1.00  0.00     0.123 C 
HETATM    5  N   UNL     1       7.996  28.200  54.341  1.00  0.00    -0.364 N 
HETATM    6  C   UNL     1       7.059  27.160  53.893  1.00  0.00     0.143 C 
HETATM    7  C   UNL     1       6.097  26.732  55.026  1.00  0.00     0.068 C 
HETATM    8  C   UNL     1       6.790  26.640  56.390  1.00  0.00     0.221 C 
HETATM    9  C   UNL     1       8.675  29.673  56.233  1.00  0.00     0.089 C 
HETATM   10  H   UNL     1       8.453  28.718  53.592  1.00  0.00     0.162 HD
ENDROOT
BRANCH   1  11
HETATM   11  C   UNL     1       8.558  30.579  58.654  1.00  0.00     0.276 C 
HETATM   12  N   UNL     1       7.674  30.469  59.711  1.00  0.00    -0.322 N 
HETATM   13  H   UNL     1       6.989  29.726  59.586  1.00  0.00     0.169 HD
HETATM   14  O   UNL     1       9.459  31.401  58.534  1.00  0.00    -0.266 OA
BRANCH  12  15
HETATM   15  C   UNL     1       7.573  31.281  60.852  1.00  0.00     0.037 A 
HETATM   16  C   UNL     1       6.645  32.313  60.994  1.00  0.00     0.059 A 
HETATM   17  C   UNL     1       6.556  33.083  62.174  1.00  0.00     0.042 A 
HETATM   18  C   UNL     1       7.476  32.847  63.210  1.00  0.00    -0.035 A 
HETATM   19  C   UNL     1       7.589  33.666  64.465  1.00  0.00     0.050 C 
HETATM   20  C   UNL     1       8.396  31.790  63.066  1.00  0.00     0.011 A 
HETATM   21  C   UNL     1       8.449  31.021  61.902  1.00  0.00     0.030 A 
BRANCH  17  22
HETATM   22  N   UNL     1       5.549  34.076  62.150  1.00  0.00    -0.327 N 
HETATM   23  C   UNL     1       4.345  34.097  62.825  1.00  0.00     0.218 C 
HETATM   24  C   UNL     1       3.589  35.387  62.617  1.00  0.00     0.117 C 
HETATM   25  O   UNL     1       3.869  33.208  63.522  1.00  0.00    -0.274 OA
HETATM   26  H   UNL     1       5.614  34.727  61.376  1.00  0.00     0.169 HD
ENDBRANCH  17  22
ENDBRANCH  12  15
ENDBRANCH   1  11
BRANCH   8  27
HETATM   27  C   UNL     1       7.741  25.470  56.488  1.00  0.00     0.409 C 
HETATM   28  F   UNL     1       8.874  25.785  57.155  1.00  0.00    -0.169 F 
HETATM   29  F   UNL     1       7.154  24.461  57.184  1.00  0.00    -0.169 F 
HETATM   30  F   UNL     1       8.098  24.956  55.293  1.00  0.00    -0.169 F 
ENDBRANCH   8  27
BRANCH   6  31
HETATM   31  C   UNL     1       6.247  27.594  52.710  1.00  0.00     0.075 A 
HETATM   32  O   UNL     1       5.833  26.617  51.853  1.00  0.00    -0.325 OA
HETATM   33  C   UNL     1       5.106  27.227  50.880  1.00  0.00     0.142 A 
HETATM   34  C   UNL     1       5.041  28.582  51.103  1.00  0.00     0.027 A 
HETATM   35  C   UNL     1       5.779  28.823  52.285  1.00  0.00     0.037 A 
ENDBRANCH   6  31
TORSDOF 5
ENDMDL
MODEL 5
REMARK VINA RESULT:      -9.9      7.241     13.625
REMARK  5 active torsions:
REMARK  status: ('A' for Active; 'I' for Inactive)
REMARK    1  A    between atoms: C_3  and  N_4 
REMARK       I    between atoms: N_4  and  C_5 
REMARK    2  A    between atoms: C_9  and  N_10 
REMARK       I    between atoms: N_10  and  C_11 
REMARK    3  A    between atoms: C_11  and  C_12 
REMARK    4  A    between atoms: C_17  and  C_18 
REMARK    5  A    between atoms: C_24  and  C_25 
ROOT
HETATM    1  C   UNL     1       6.878  27.658  55.104  1.00  0.00     0.148 C 
HETATM    2  N   UNL     1       7.070  27.603  53.763  1.00  0.00    -0.165 NA
HETATM    3  N   UNL     1       6.790  26.322  53.469  1.00  0.00    -0.240 N 
HETATM    4  C   UNL     1       6.576  25.531  54.562  1.00  0.00     0.123 C 
HETATM    5  N   UNL     1       6.458  24.195  54.440  1.00  0.00    -0.364 N 
HETATM    6  C   UNL     1       6.826  23.472  53.215  1.00  0.00     0.143 C 
HETATM    7  C   UNL     1       7.512  24.401  52.187  1.00  0.00     0.068 C 
HETATM    8  C   UNL     1       6.869  25.791  52.123  1.00  0.00     0.221 C 
HETATM    9  C   UNL     1       6.534  26.382  55.632  1.00  0.00     0.089 C 
HETATM   10  H   UNL     1       6.269  23.604  55.248  1.00  0.00     0.162 HD
ENDROOT
BRANCH   1  11
HETATM   11  C   UNL     1       7.077  28.901  55.872  1.00  0.00     0.276 C 
HETATM   12  N   UNL     1       5.891  29.371  56.404  1.00  0.00    -0.322 N 
HETATM   13  H   UNL     1       5.091  28.781  56.186  1.00  0.00     0.169 HD
HETATM   14  O   UNL     1       8.180  29.429  55.959  1.00  0.00    -0.266 OA
BRANCH  12  15
HETATM   15  C   UNL     1       5.664  30.560  57.115  1.00  0.00     0.037 A 
HETATM   16  C   UNL     1       6.170  30.812  58.392  1.00  0.00     0.059 A 
HETATM   17  C   UNL     1       5.945  32.036  59.058  1.00  0.00     0.042 A 
HETATM   18  C   UNL     1       5.132  33.005  58.444  1.00  0.00    -0.035 A 
HETATM   19  C   UNL     1       4.699  34.295  59.081  1.00  0.00     0.050 C 
HETATM   20  C   UNL     1       4.643  32.749  57.148  1.00  0.00     0.011 A 
HETATM   21  C   UNL     1       4.900  31.543  56.494  1.00  0.00     0.030 A 
BRANCH  17  22
HETATM   22  N   UNL     1       6.544  32.125  60.337  1.00  0.00    -0.327 N 
HETATM   23  C   UNL     1       7.837  32.484  60.659  1.00  0.00     0.218 C 
HETATM   24  C   UNL     1       8.060  32.560  62.150  1.00  0.00     0.117 C 
HETATM   25  O   UNL     1       8.757  32.720  59.884  1.00  0.00    -0.274 OA
HETATM   26  H   UNL     1       6.038  31.649  61.075  1.00  0.00     0.169 HD
ENDBRANCH  17  22
ENDBRANCH  12  15
ENDBRANCH   1  11
BRANCH   8  27
HETATM   27  C   UNL     1       5.497  25.777  51.489  1.00  0.00     0.409 C 
HETATM   28  F   UNL     1       4.852  24.607  51.690  1.00  0.00    -0.169 F 
HETATM   29  F   UNL     1       4.724  26.744  52.051  1.00  0.00    -0.169 F 
HETATM   30  F   UNL     1       5.509  26.017  50.162  1.00  0.00    -0.169 F 
ENDBRANCH   8  27
BRANCH   6  31
HETATM   31  C   UNL     1       7.730  22.307  53.489  1.00  0.00     0.075 A 
HETATM   32  O   UNL     1       8.563  22.411  54.564  1.00  0.00    -0.325 OA
HETATM   33  C   UNL     1       9.265  21.250  54.634  1.00  0.00     0.142 A 
HETATM   34  C   UNL     1       8.891  20.397  53.622  1.00  0.00     0.027 A 
HETATM   35  C   UNL     1       7.898  21.079  52.880  1.00  0.00     0.037 A 
ENDBRANCH   6  31
TORSDOF 5
ENDMDL
MODEL 6
REMARK VINA RESULT:      -9.7      4.321      7.557
REMARK  5 active torsions:
REMARK  status: ('A' for Active; 'I' for Inactive)
REMARK    1  A    between atoms: C_3  and  N_4 
REMARK       I    between atoms: N_4  and  C_5 
REMARK    2  A    between atoms: C_9  and  N_10 
REMARK       I    between atoms: N_10  and  C_11 
REMARK    3  A    between atoms: C_11  and  C_12 
REMARK    4  A    between atoms: C_17  and  C_18 
REMARK    5  A    between atoms: C_24  and  C_25 
ROOT
HETATM    1  C   UNL     1       7.612  29.817  57.883  1.00  0.00     0.148 C 
HETATM    2  N   UNL     1       6.283  30.068  57.981  1.00  0.00    -0.165 NA
HETATM    3  N   UNL     1       6.240  31.178  58.738  1.00  0.00    -0.240 N 
HETATM    4  C   UNL     1       7.450  31.558  59.244  1.00  0.00     0.123 C 
HETATM    5  N   UNL     1       7.543  32.543  60.158  1.00  0.00    -0.364 N 
HETATM    6  C   UNL     1       6.377  33.072  60.879  1.00  0.00     0.143 C 
HETATM    7  C   UNL     1       5.101  32.249  60.585  1.00  0.00     0.068 C 
HETATM    8  C   UNL     1       4.998  31.820  59.117  1.00  0.00     0.221 C 
HETATM    9  C   UNL     1       8.375  30.754  58.636  1.00  0.00     0.089 C 
HETATM   10  H   UNL     1       8.445  32.849  60.516  1.00  0.00     0.162 HD
ENDROOT
BRANCH   1  11
HETATM   11  C   UNL     1       8.137  28.666  57.126  1.00  0.00     0.276 C 
HETATM   12  N   UNL     1       7.218  28.192  56.210  1.00  0.00    -0.322 N 
HETATM   13  H   UNL     1       6.347  28.719  56.204  1.00  0.00     0.169 HD
HETATM   14  O   UNL     1       9.248  28.202  57.357  1.00  0.00    -0.266 OA
BRANCH  12  15
HETATM   15  C   UNL     1       7.318  27.067  55.375  1.00  0.00     0.037 A 
HETATM   16  C   UNL     1       7.351  25.751  55.841  1.00  0.00     0.059 A 
HETATM   17  C   UNL     1       7.419  24.648  54.963  1.00  0.00     0.042 A 
HETATM   18  C   UNL     1       7.524  24.884  53.582  1.00  0.00    -0.035 A 
HETATM   19  C   UNL     1       7.735  23.821  52.540  1.00  0.00     0.050 C 
HETATM   20  C   UNL     1       7.471  26.213  53.120  1.00  0.00     0.011 A 
HETATM   21  C   UNL     1       7.375  27.291  54.002  1.00  0.00     0.030 A 
BRANCH  17  22
HETATM   22  N   UNL     1       7.427  23.388  55.607  1.00  0.00    -0.327 N 
HETATM   23  C   UNL     1       8.471  22.493  55.734  1.00  0.00     0.218 C 
HETATM   24  C   UNL     1       8.108  21.302  56.587  1.00  0.00     0.117 C 
HETATM   25  O   UNL     1       9.586  22.578  55.234  1.00  0.00    -0.274 OA
HETATM   26  H   UNL     1       6.510  23.000  55.791  1.00  0.00     0.169 HD
ENDBRANCH  17  22
ENDBRANCH  12  15
ENDBRANCH   1  11
BRANCH   8  27
HETATM   27  C   UNL     1       4.704  32.973  58.186  1.00  0.00     0.409 C 
HETATM   28  F   UNL     1       5.681  33.153  57.269  1.00  0.00    -0.169 F 
HETATM   29  F   UNL     1       3.566  32.720  57.489  1.00  0.00    -0.169 F 
HETATM   30  F   UNL     1       4.514  34.149  58.819  1.00  0.00    -0.169 F 
ENDBRANCH   8  27
BRANCH   6  31
HETATM   31  C   UNL     1       6.593  33.113  62.362  1.00  0.00     0.075 A 
HETATM   32  O   UNL     1       5.507  33.398  63.136  1.00  0.00    -0.325 OA
HETATM   33  C   UNL     1       5.923  33.362  64.429  1.00  0.00     0.142 A 
HETATM   34  C   UNL     1       7.261  33.052  64.498  1.00  0.00     0.027 A 
HETATM   35  C   UNL     1       7.697  32.891  63.162  1.00  0.00     0.037 A 
ENDBRANCH   6  31
TORSDOF 5
ENDMDL
MODEL 7
REMARK VINA RESULT:      -9.6     11.638     15.058
REMARK  5 active torsions:
REMARK  status: ('A' for Active; 'I' for Inactive)
REMARK    1  A    between atoms: C_3  and  N_4 
REMARK       I    between atoms: N_4  and  C_5 
REMARK    2  A    between atoms: C_9  and  N_10 
REMARK       I    between atoms: N_10  and  C_11 
REMARK    3  A    between atoms: C_11  and  C_12 
REMARK    4  A    between atoms: C_17  and  C_18 
REMARK    5  A    between atoms: C_24  and  C_25 
ROOT
HETATM    1  C   UNL     1       5.433  27.015  52.409  1.00  0.00     0.148 C 
HETATM    2  N   UNL     1       5.138  26.769  53.709  1.00  0.00    -0.165 NA
HETATM    3  N   UNL     1       6.163  25.996  54.110  1.00  0.00    -0.240 N 
HETATM    4  C   UNL     1       7.007  25.620  53.105  1.00  0.00     0.123 C 
HETATM    5  N   UNL     1       7.975  24.708  53.316  1.00  0.00    -0.364 N 
HETATM    6  C   UNL     1       8.021  23.857  54.512  1.00  0.00     0.143 C 
HETATM    7  C   UNL     1       6.750  24.021  55.379  1.00  0.00     0.068 C 
HETATM    8  C   UNL     1       6.271  25.475  55.457  1.00  0.00     0.221 C 
HETATM    9  C   UNL     1       6.617  26.337  52.007  1.00  0.00     0.089 C 
HETATM   10  H   UNL     1       8.625  24.446  52.577  1.00  0.00     0.162 HD
ENDROOT
BRANCH   1  11
HETATM   11  C   UNL     1       4.562  27.841  51.553  1.00  0.00     0.276 C 
HETATM   12  N   UNL     1       4.961  27.807  50.230  1.00  0.00    -0.322 N 
HETATM   13  H   UNL     1       5.773  27.215  50.071  1.00  0.00     0.169 HD
HETATM   14  O   UNL     1       3.634  28.491  52.022  1.00  0.00    -0.266 OA
BRANCH  12  15
HETATM   15  C   UNL     1       4.439  28.525  49.142  1.00  0.00     0.037 A 
HETATM   16  C   UNL     1       3.379  28.079  48.350  1.00  0.00     0.059 A 
HETATM   17  C   UNL     1       2.864  28.850  47.286  1.00  0.00     0.042 A 
HETATM   18  C   UNL     1       3.480  30.074  46.973  1.00  0.00    -0.035 A 
HETATM   19  C   UNL     1       3.129  30.938  45.795  1.00  0.00     0.050 C 
HETATM   20  C   UNL     1       4.536  30.525  47.790  1.00  0.00     0.011 A 
HETATM   21  C   UNL     1       5.013  29.760  48.856  1.00  0.00     0.030 A 
BRANCH  17  22
HETATM   22  N   UNL     1       1.781  28.251  46.601  1.00  0.00    -0.327 N 
HETATM   23  C   UNL     1       0.474  28.687  46.508  1.00  0.00     0.218 C 
HETATM   24  C   UNL     1      -0.359  27.821  45.594  1.00  0.00     0.117 C 
HETATM   25  O   UNL     1      -0.030  29.647  47.077  1.00  0.00    -0.274 OA
HETATM   26  H   UNL     1       1.924  27.280  46.349  1.00  0.00     0.169 HD
ENDBRANCH  17  22
ENDBRANCH  12  15
ENDBRANCH   1  11
BRANCH   8  27
HETATM   27  C   UNL     1       7.184  26.352  56.282  1.00  0.00     0.409 C 
HETATM   28  F   UNL     1       7.888  27.218  55.519  1.00  0.00    -0.169 F 
HETATM   29  F   UNL     1       6.445  27.106  57.137  1.00  0.00    -0.169 F 
HETATM   30  F   UNL     1       8.063  25.663  57.038  1.00  0.00    -0.169 F 
ENDBRANCH   8  27
BRANCH   6  31
HETATM   31  C   UNL     1       8.189  22.405  54.175  1.00  0.00     0.075 A 
HETATM   32  O   UNL     1       8.464  21.559  55.209  1.00  0.00    -0.325 OA
HETATM   33  C   UNL     1       8.553  20.310  54.683  1.00  0.00     0.142 A 
HETATM   34  C   UNL     1       8.334  20.339  53.326  1.00  0.00     0.027 A 
HETATM   35  C   UNL     1       8.098  21.694  52.995  1.00  0.00     0.037 A 
ENDBRANCH   6  31
TORSDOF 5
ENDMDL
MODEL 8
REMARK VINA RESULT:      -9.5      5.736     12.229
REMARK  5 active torsions:
REMARK  status: ('A' for Active; 'I' for Inactive)
REMARK    1  A    between atoms: C_3  and  N_4 
REMARK       I    between atoms: N_4  and  C_5 
REMARK    2  A    between atoms: C_9  and  N_10 
REMARK       I    between atoms: N_10  and  C_11 
REMARK    3  A    between atoms: C_11  and  C_12 
REMARK    4  A    between atoms: C_17  and  C_18 
REMARK    5  A    between atoms: C_24  and  C_25 
ROOT
HETATM    1  C   UNL     1       6.586  29.211  56.950  1.00  0.00     0.148 C 
HETATM    2  N   UNL     1       6.767  29.393  55.619  1.00  0.00    -0.165 NA
HETATM    3  N   UNL     1       6.513  28.175  55.110  1.00  0.00    -0.240 N 
HETATM    4  C   UNL     1       6.326  27.203  56.050  1.00  0.00     0.123 C 
HETATM    5  N   UNL     1       6.236  25.905  55.700  1.00  0.00    -0.364 N 
HETATM    6  C   UNL     1       6.608  25.413  54.367  1.00  0.00     0.143 C 
HETATM    7  C   UNL     1       7.264  26.522  53.511  1.00  0.00     0.068 C 
HETATM    8  C   UNL     1       6.591  27.887  53.692  1.00  0.00     0.221 C 
HETATM    9  C   UNL     1       6.275  27.855  57.252  1.00  0.00     0.089 C 
HETATM   10  H   UNL     1       6.068  25.180  56.395  1.00  0.00     0.162 HD
ENDROOT
BRANCH   1  11
HETATM   11  C   UNL     1       6.765  30.306  57.921  1.00  0.00     0.276 C 
HETATM   12  N   UNL     1       5.555  30.845  58.315  1.00  0.00    -0.322 N 
HETATM   13  H   UNL     1       4.753  30.392  57.882  1.00  0.00     0.169 HD
HETATM   14  O   UNL     1       7.881  30.678  58.266  1.00  0.00    -0.266 OA
BRANCH  12  15
HETATM   15  C   UNL     1       5.323  31.948  59.153  1.00  0.00     0.037 A 
HETATM   16  C   UNL     1       5.990  32.164  60.359  1.00  0.00     0.059 A 
HETATM   17  C   UNL     1       5.749  33.306  61.154  1.00  0.00     0.042 A 
HETATM   18  C   UNL     1       4.759  34.218  60.751  1.00  0.00    -0.035 A 
HETATM   19  C   UNL     1       4.301  35.403  61.553  1.00  0.00     0.050 C 
HETATM   20  C   UNL     1       4.104  34.001  59.523  1.00  0.00     0.011 A 
HETATM   21  C   UNL     1       4.377  32.880  58.736  1.00  0.00     0.030 A 
BRANCH  17  22
HETATM   22  N   UNL     1       6.525  33.370  62.335  1.00  0.00    -0.327 N 
HETATM   23  C   UNL     1       6.222  32.886  63.592  1.00  0.00     0.218 C 
HETATM   24  C   UNL     1       7.361  33.060  64.567  1.00  0.00     0.117 C 
HETATM   25  O   UNL     1       5.172  32.372  63.956  1.00  0.00    -0.274 OA
HETATM   26  H   UNL     1       7.278  34.048  62.311  1.00  0.00     0.169 HD
ENDBRANCH  17  22
ENDBRANCH  12  15
ENDBRANCH   1  11
BRANCH   8  27
HETATM   27  C   UNL     1       5.213  27.950  53.073  1.00  0.00     0.409 C 
HETATM   28  F   UNL     1       4.232  27.785  53.988  1.00  0.00    -0.169 F 
HETATM   29  F   UNL     1       5.019  29.175  52.516  1.00  0.00    -0.169 F 
HETATM   30  F   UNL     1       5.016  27.046  52.091  1.00  0.00    -0.169 F 
ENDBRANCH   8  27
BRANCH   6  31
HETATM   31  C   UNL     1       7.540  24.240  54.431  1.00  0.00     0.075 A 
HETATM   32  O   UNL     1       8.293  24.110  55.561  1.00  0.00    -0.325 OA
HETATM   33  C   UNL     1       9.037  22.983  55.412  1.00  0.00     0.142 A 
HETATM   34  C   UNL     1       8.769  22.382  54.204  1.00  0.00     0.027 A 
HETATM   35  C   UNL     1       7.801  23.193  53.568  1.00  0.00     0.037 A 
ENDBRANCH   6  31
TORSDOF 5
ENDMDL
MODEL 9
REMARK VINA RESULT:      -9.4     11.650     15.084
REMARK  5 active torsions:
REMARK  status: ('A' for Active; 'I' for Inactive)
REMARK    1  A    between atoms: C_3  and  N_4 
REMARK       I    between atoms: N_4  and  C_5 
REMARK    2  A    between atoms: C_9  and  N_10 
REMARK       I    between atoms: N_10  and  C_11 
REMARK    3  A    between atoms: C_11  and  C_12 
REMARK    4  A    between atoms: C_17  and  C_18 
REMARK    5  A    between atoms: C_24  and  C_25 
ROOT
HETATM    1  C   UNL     1       5.233  26.961  52.498  1.00  0.00     0.148 C 
HETATM    2  N   UNL     1       5.062  26.724  53.822  1.00  0.00    -0.165 NA
HETATM    3  N   UNL     1       6.131  25.971  54.134  1.00  0.00    -0.240 N 
HETATM    4  C   UNL     1       6.886  25.597  53.060  1.00  0.00     0.123 C 
HETATM    5  N   UNL     1       7.884  24.701  53.190  1.00  0.00    -0.364 N 
HETATM    6  C   UNL     1       8.051  23.864  54.385  1.00  0.00     0.143 C 
HETATM    7  C   UNL     1       6.862  24.019  55.363  1.00  0.00     0.068 C 
HETATM    8  C   UNL     1       6.369  25.466  55.471  1.00  0.00     0.221 C 
HETATM    9  C   UNL     1       6.387  26.296  51.995  1.00  0.00     0.089 C 
HETATM   10  H   UNL     1       8.468  24.441  52.397  1.00  0.00     0.162 HD
ENDROOT
BRANCH   1  11
HETATM   11  C   UNL     1       4.275  27.765  51.717  1.00  0.00     0.276 C 
HETATM   12  N   UNL     1       4.332  27.464  50.369  1.00  0.00    -0.322 N 
HETATM   13  H   UNL     1       5.010  26.739  50.147  1.00  0.00     0.169 HD
HETATM   14  O   UNL     1       3.568  28.613  52.250  1.00  0.00    -0.266 OA
BRANCH  12  15
HETATM   15  C   UNL     1       3.641  28.074  49.309  1.00  0.00     0.037 A 
HETATM   16  C   UNL     1       4.218  28.990  48.428  1.00  0.00     0.059 A 
HETATM   17  C   UNL     1       3.495  29.553  47.355  1.00  0.00     0.042 A 
HETATM   18  C   UNL     1       2.135  29.233  47.209  1.00  0.00    -0.035 A 
HETATM   19  C   UNL     1       1.208  29.851  46.201  1.00  0.00     0.050 C 
HETATM   20  C   UNL     1       1.566  28.294  48.091  1.00  0.00     0.011 A 
HETATM   21  C   UNL     1       2.306  27.725  49.129  1.00  0.00     0.030 A 
BRANCH  17  22
HETATM   22  N   UNL     1       4.242  30.450  46.554  1.00  0.00    -0.327 N 
HETATM   23  C   UNL     1       4.396  31.814  46.704  1.00  0.00     0.218 C 
HETATM   24  C   UNL     1       5.361  32.399  45.702  1.00  0.00     0.117 C 
HETATM   25  O   UNL     1       3.841  32.538  47.522  1.00  0.00    -0.274 OA
HETATM   26  H   UNL     1       4.499  30.091  45.642  1.00  0.00     0.169 HD
ENDBRANCH  17  22
ENDBRANCH  12  15
ENDBRANCH   1  11
BRANCH   8  27
HETATM   27  C   UNL     1       7.340  26.366  56.201  1.00  0.00     0.409 C 
HETATM   28  F   UNL     1       7.937  27.252  55.374  1.00  0.00    -0.169 F 
HETATM   29  F   UNL     1       6.674  27.097  57.133  1.00  0.00    -0.169 F 
HETATM   30  F   UNL     1       8.311  25.699  56.858  1.00  0.00    -0.169 F 
ENDBRANCH   8  27
BRANCH   6  31
HETATM   31  C   UNL     1       8.211  22.412  54.048  1.00  0.00     0.075 A 
HETATM   32  O   UNL     1       8.638  21.589  55.048  1.00  0.00    -0.325 OA
HETATM   33  C   UNL     1       8.690  20.333  54.531  1.00  0.00     0.142 A 
HETATM   34  C   UNL     1       8.296  20.336  53.214  1.00  0.00     0.027 A 
HETATM   35  C   UNL     1       7.986  21.679  52.899  1.00  0.00     0.037 A 
ENDBRANCH   6  31
TORSDOF 5
ENDMDL
MODEL 10
REMARK VINA RESULT:      -9.4      7.538     11.652
REMARK  5 active torsions:
REMARK  status: ('A' for Active; 'I' for Inactive)
REMARK    1  A    between atoms: C_3  and  N_4 
REMARK       I    between atoms: N_4  and  C_5 
REMARK    2  A    between atoms: C_9  and  N_10 
REMARK       I    between atoms: N_10  and  C_11 
REMARK    3  A    between atoms: C_11  and  C_12 
REMARK    4  A    between atoms: C_17  and  C_18 
REMARK    5  A    between atoms: C_24  and  C_25 
ROOT
HETATM    1  C   UNL     1       5.423  29.002  54.442  1.00  0.00     0.148 C 
HETATM    2  N   UNL     1       6.532  28.222  54.451  1.00  0.00    -0.165 NA
HETATM    3  N   UNL     1       6.901  28.237  55.744  1.00  0.00    -0.240 N 
HETATM    4  C   UNL     1       6.181  29.097  56.522  1.00  0.00     0.123 C 
HETATM    5  N   UNL     1       6.543  29.353  57.793  1.00  0.00    -0.364 N 
HETATM    6  C   UNL     1       7.855  28.976  58.339  1.00  0.00     0.143 C 
HETATM    7  C   UNL     1       8.794  28.426  57.239  1.00  0.00     0.068 C 
HETATM    8  C   UNL     1       8.066  27.527  56.233  1.00  0.00     0.221 C 
HETATM    9  C   UNL     1       5.156  29.540  55.732  1.00  0.00     0.089 C 
HETATM   10  H   UNL     1       5.992  29.971  58.387  1.00  0.00     0.162 HD
ENDROOT
BRANCH   1  11
HETATM   11  C   UNL     1       4.668  29.273  53.205  1.00  0.00     0.276 C 
HETATM   12  N   UNL     1       5.472  29.188  52.083  1.00  0.00    -0.322 N 
HETATM   13  H   UNL     1       6.436  28.944  52.298  1.00  0.00     0.169 HD
HETATM   14  O   UNL     1       3.480  29.575  53.234  1.00  0.00    -0.266 OA
BRANCH  12  15
HETATM   15  C   UNL     1       5.137  29.462  50.747  1.00  0.00     0.037 A 
HETATM   16  C   UNL     1       4.385  28.606  49.941  1.00  0.00     0.059 A 
HETATM   17  C   UNL     1       4.043  28.937  48.612  1.00  0.00     0.042 A 
HETATM   18  C   UNL     1       4.532  30.134  48.063  1.00  0.00    -0.035 A 
HETATM   19  C   UNL     1       4.363  30.557  46.631  1.00  0.00     0.050 C 
HETATM   20  C   UNL     1       5.274  31.000  48.890  1.00  0.00     0.011 A 
HETATM   21  C   UNL     1       5.577  30.668  50.211  1.00  0.00     0.030 A 
BRANCH  17  22
HETATM   22  N   UNL     1       3.264  27.960  47.949  1.00  0.00    -0.327 N 
HETATM   23  C   UNL     1       3.676  26.772  47.378  1.00  0.00     0.218 C 
HETATM   24  C   UNL     1       2.521  25.951  46.857  1.00  0.00     0.117 C 
HETATM   25  O   UNL     1       4.825  26.365  47.261  1.00  0.00    -0.274 OA
HETATM   26  H   UNL     1       2.347  28.276  47.656  1.00  0.00     0.169 HD
ENDBRANCH  17  22
ENDBRANCH  12  15
ENDBRANCH   1  11
BRANCH   8  27
HETATM   27  C   UNL     1       7.654  26.198  56.822  1.00  0.00     0.409 C 
HETATM   28  F   UNL     1       7.651  25.209  55.902  1.00  0.00    -0.169 F 
HETATM   29  F   UNL     1       8.542  25.828  57.782  1.00  0.00    -0.169 F 
HETATM   30  F   UNL     1       6.439  26.215  57.409  1.00  0.00    -0.169 F 
ENDBRANCH   8  27
BRANCH   6  31
HETATM   31  C   UNL     1       8.537  30.121  59.026  1.00  0.00     0.075 A 
HETATM   32  O   UNL     1       8.561  30.096  60.389  1.00  0.00    -0.325 OA
HETATM   33  C   UNL     1       9.239  31.202  60.793  1.00  0.00     0.142 A 
HETATM   34  C   UNL     1       9.657  31.936  59.707  1.00  0.00     0.027 A 
HETATM   35  C   UNL     1       9.204  31.239  58.563  1.00  0.00     0.037 A 
ENDBRANCH   6  31
TORSDOF 5
ENDMDL
