MODEL 1
REMARK VINA RESULT:      -9.2      0.000      0.000
REMARK  7 active torsions:
REMARK  status: ('A' for Active; 'I' for Inactive)
REMARK    1  A    between atoms: C_2  and  O_3 
REMARK    2  A    between atoms: O_3  and  C_4 
REMARK       I    between atoms: C_4  and  N_5 
REMARK    3  A    between atoms: C_8  and  N_9 
REMARK       I    between atoms: N_9  and  C_10 
REMARK    4  A    between atoms: C_10  and  C_11 
REMARK    5  A    between atoms: C_13  and  N_14 
REMARK       I    between atoms: N_14  and  C_15 
REMARK    6  A    between atoms: C_15  and  C_16 
REMARK    7  A    between atoms: C_22  and  N_23 
ROOT
HETATM    1  C   UNL     1       4.992  31.601  57.466  1.00  0.00     0.034 A 
HETATM    2  C   UNL     1       5.802  31.289  58.561  1.00  0.00     0.049 A 
HETATM    3  C   UNL     1       5.633  31.936  59.801  1.00  0.00     0.062 A 
HETATM    4  C   UNL     1       4.660  32.952  59.965  1.00  0.00     0.057 A 
HETATM    5  C   UNL     1       3.865  33.246  58.840  1.00  0.00     0.033 A 
HETATM    6  C   UNL     1       4.021  32.587  57.616  1.00  0.00     0.019 A 
ENDROOT
BRANCH   1   7
HETATM    7  C   UNL     1       5.150  30.955  56.129  1.00  0.00     0.252 C 
HETATM    8  N   UNL     1       5.882  29.784  56.084  1.00  0.00    -0.352 N 
HETATM    9  H   UNL     1       6.073  29.304  56.951  1.00  0.00     0.163 HD
HETATM   10  O   UNL     1       4.630  31.455  55.137  1.00  0.00    -0.268 OA
BRANCH   8  11
HETATM   11  C   UNL     1       6.039  29.019  54.851  1.00  0.00     0.087 C 
HETATM   12  C   UNL     1       7.457  28.461  54.728  1.00  0.00     0.045 C 
HETATM   13  C   UNL     1       7.735  27.352  55.735  1.00  0.00     0.130 C 
HETATM   14  N   UNL     1       6.691  26.332  55.753  1.00  0.00    -0.328 N 
HETATM   15  C   UNL     1       6.952  25.053  56.235  1.00  0.00     0.362 C 
HETATM   16  C   UNL     1       5.305  26.788  55.788  1.00  0.00     0.130 C 
HETATM   17  O   UNL     1       6.081  24.231  56.501  1.00  0.00    -0.238 OA
HETATM   18  C   UNL     1       5.018  27.884  54.768  1.00  0.00     0.045 C 
BRANCH  15  19
HETATM   19  O   UNL     1       8.284  24.816  56.382  1.00  0.00    -0.304 OA
BRANCH  19  20
HETATM   20  C   UNL     1       8.672  23.444  56.534  1.00  0.00     0.176 C 
HETATM   21  C   UNL     1       8.993  22.844  55.177  1.00  0.00     0.034 C 
ENDBRANCH  19  20
ENDBRANCH  15  19
ENDBRANCH   8  11
ENDBRANCH   1   7
BRANCH   3  22
HETATM   22  N   UNL     1       6.464  31.555  60.881  1.00  0.00    -0.320 N 
HETATM   23  C   UNL     1       7.842  31.574  60.910  1.00  0.00     0.263 C 
HETATM   24  O   UNL     1       8.397  31.933  61.949  1.00  0.00    -0.267 OA
HETATM   25  H   UNL     1       6.052  31.646  61.795  1.00  0.00     0.169 HD
BRANCH  23  26
HETATM   26  C   UNL     1       8.542  31.055  59.741  1.00  0.00     0.072 A 
HETATM   27  S   UNL     1       9.842  31.941  59.063  1.00  0.00    -0.097 SA
HETATM   28  C   UNL     1      10.141  30.735  57.887  1.00  0.00     0.050 A 
HETATM   29  C   UNL     1       9.271  29.674  58.001  1.00  0.00     0.009 A 
HETATM   30  C   UNL     1       8.349  29.858  59.070  1.00  0.00     0.025 A 
ENDBRANCH  23  26
ENDBRANCH   3  22
BRANCH   4  31
HETATM   31  N   UNL     1       4.418  33.611  61.164  1.00  0.00    -0.378 N 
HETATM   32  C   UNL     1       5.100  34.857  61.520  1.00  0.00     0.134 C 
HETATM   33  C   UNL     1       4.091  35.936  61.973  1.00  0.00     0.054 C 
HETATM   34  C   UNL     1       3.246  35.398  63.124  1.00  0.00     0.020 C 
HETATM   35  C   UNL     1       3.227  36.345  60.793  1.00  0.00     0.020 A 
HETATM   36  C   UNL     1       2.462  34.203  62.596  1.00  0.00     0.023 C 
HETATM   37  C   UNL     1       1.503  34.685  61.501  1.00  0.00     0.138 C 
HETATM   38  C   UNL     1       3.418  33.100  62.108  1.00  0.00     0.129 C 
HETATM   39  N   UNL     1       2.032  35.666  60.551  1.00  0.00    -0.317 N 
HETATM   40  C   UNL     1       1.226  35.946  59.442  1.00  0.00     0.247 A 
HETATM   41  O   UNL     1       0.155  35.396  59.203  1.00  0.00    -0.268 OA
HETATM   42  C   UNL     1       1.729  36.987  58.509  1.00  0.00     0.074 A 
HETATM   43  C   UNL     1       2.868  37.635  58.776  1.00  0.00     0.007 A 
HETATM   44  C   UNL     1       3.633  37.312  59.949  1.00  0.00     0.026 A 
ENDBRANCH   4  31
TORSDOF 7
ENDMDL
MODEL 2
REMARK VINA RESULT:      -9.0      2.310      4.467
REMARK  7 active torsions:
REMARK  status: ('A' for Active; 'I' for Inactive)
REMARK    1  A    between atoms: C_2  and  O_3 
REMARK    2  A    between atoms: O_3  and  C_4 
REMARK       I    between atoms: C_4  and  N_5 
REMARK    3  A    between atoms: C_8  and  N_9 
REMARK       I    between atoms: N_9  and  C_10 
REMARK    4  A    between atoms: C_10  and  C_11 
REMARK    5  A    between atoms: C_13  and  N_14 
REMARK       I    between atoms: N_14  and  C_15 
REMARK    6  A    between atoms: C_15  and  C_16 
REMARK    7  A    between atoms: C_22  and  N_23 
ROOT
HETATM    1  C   UNL     1       6.565  31.613  58.824  1.00  0.00     0.034 A 
HETATM    2  C   UNL     1       5.745  31.990  57.758  1.00  0.00     0.049 A 
HETATM    3  C   UNL     1       4.761  32.986  57.913  1.00  0.00     0.062 A 
HETATM    4  C   UNL     1       4.546  33.609  59.166  1.00  0.00     0.057 A 
HETATM    5  C   UNL     1       5.386  33.201  60.220  1.00  0.00     0.033 A 
HETATM    6  C   UNL     1       6.377  32.226  60.059  1.00  0.00     0.019 A 
ENDROOT
BRANCH   1   7
HETATM    7  C   UNL     1       7.606  30.548  58.709  1.00  0.00     0.252 C 
HETATM    8  N   UNL     1       7.534  29.720  57.606  1.00  0.00    -0.352 N 
HETATM    9  H   UNL     1       6.951  30.001  56.832  1.00  0.00     0.163 HD
HETATM   10  O   UNL     1       8.483  30.448  59.562  1.00  0.00    -0.268 OA
BRANCH   8  11
HETATM   11  C   UNL     1       8.539  28.695  57.343  1.00  0.00     0.087 C 
HETATM   12  C   UNL     1       7.972  27.296  57.580  1.00  0.00     0.045 C 
HETATM   13  C   UNL     1       6.945  26.899  56.527  1.00  0.00     0.130 C 
HETATM   14  N   UNL     1       7.416  27.130  55.165  1.00  0.00    -0.328 N 
HETATM   15  C   UNL     1       6.857  26.443  54.091  1.00  0.00     0.362 C 
HETATM   16  C   UNL     1       8.043  28.416  54.879  1.00  0.00     0.130 C 
HETATM   17  O   UNL     1       7.028  26.753  52.916  1.00  0.00    -0.238 OA
HETATM   18  C   UNL     1       9.087  28.808  55.919  1.00  0.00     0.045 C 
BRANCH  15  19
HETATM   19  O   UNL     1       6.095  25.389  54.490  1.00  0.00    -0.304 OA
BRANCH  19  20
HETATM   20  C   UNL     1       6.513  24.095  54.036  1.00  0.00     0.176 C 
HETATM   21  C   UNL     1       7.372  23.428  55.095  1.00  0.00     0.034 C 
ENDBRANCH  19  20
ENDBRANCH  15  19
ENDBRANCH   8  11
ENDBRANCH   1   7
BRANCH   3  22
HETATM   22  N   UNL     1       3.982  33.347  56.788  1.00  0.00    -0.320 N 
HETATM   23  C   UNL     1       3.053  32.561  56.139  1.00  0.00     0.263 C 
HETATM   24  O   UNL     1       2.016  33.094  55.742  1.00  0.00    -0.267 OA
HETATM   25  H   UNL     1       3.799  34.332  56.687  1.00  0.00     0.169 HD
BRANCH  23  26
HETATM   26  C   UNL     1       3.421  31.176  55.869  1.00  0.00     0.072 A 
HETATM   27  S   UNL     1       4.186  30.771  54.390  1.00  0.00    -0.097 SA
HETATM   28  C   UNL     1       4.339  29.128  54.841  1.00  0.00     0.050 A 
HETATM   29  C   UNL     1       3.821  28.884  56.093  1.00  0.00     0.009 A 
HETATM   30  C   UNL     1       3.291  30.064  56.685  1.00  0.00     0.025 A 
ENDBRANCH  23  26
ENDBRANCH   3  22
BRANCH   4  31
HETATM   31  N   UNL     1       3.615  34.618  59.384  1.00  0.00    -0.378 N 
HETATM   32  C   UNL     1       2.335  34.365  60.049  1.00  0.00     0.134 C 
HETATM   33  C   UNL     1       2.090  35.378  61.190  1.00  0.00     0.054 C 
HETATM   34  C   UNL     1       2.180  36.800  60.644  1.00  0.00     0.020 C 
HETATM   35  C   UNL     1       3.102  35.143  62.299  1.00  0.00     0.020 A 
HETATM   36  C   UNL     1       3.599  37.001  60.124  1.00  0.00     0.023 C 
HETATM   37  C   UNL     1       4.577  36.892  61.299  1.00  0.00     0.138 C 
HETATM   38  C   UNL     1       3.909  36.001  58.996  1.00  0.00     0.129 C 
HETATM   39  N   UNL     1       4.319  35.828  62.271  1.00  0.00    -0.317 N 
HETATM   40  C   UNL     1       5.321  35.604  63.221  1.00  0.00     0.247 A 
HETATM   41  O   UNL     1       6.395  36.201  63.255  1.00  0.00    -0.268 OA
HETATM   42  C   UNL     1       5.036  34.569  64.248  1.00  0.00     0.074 A 
HETATM   43  C   UNL     1       3.855  33.943  64.261  1.00  0.00     0.007 A 
HETATM   44  C   UNL     1       2.861  34.241  63.267  1.00  0.00     0.026 A 
ENDBRANCH   4  31
TORSDOF 7
ENDMDL
MODEL 3
REMARK VINA RESULT:      -8.8      1.599      1.918
REMARK  7 active torsions:
REMARK  status: ('A' for Active; 'I' for Inactive)
REMARK    1  A    between atoms: C_2  and  O_3 
REMARK    2  A    between atoms: O_3  and  C_4 
REMARK       I    between atoms: C_4  and  N_5 
REMARK    3  A    between atoms: C_8  and  N_9 
REMARK       I    between atoms: N_9  and  C_10 
REMARK    4  A    between atoms: C_10  and  C_11 
REMARK    5  A    between atoms: C_13  and  N_14 
REMARK       I    between atoms: N_14  and  C_15 
REMARK    6  A    between atoms: C_15  and  C_16 
REMARK    7  A    between atoms: C_22  and  N_23 
ROOT
HETATM    1  C   UNL     1       4.835  32.476  58.438  1.00  0.00     0.034 A 
HETATM    2  C   UNL     1       5.592  31.868  59.443  1.00  0.00     0.049 A 
HETATM    3  C   UNL     1       5.666  32.423  60.736  1.00  0.00     0.062 A 
HETATM    4  C   UNL     1       5.007  33.637  61.046  1.00  0.00     0.057 A 
HETATM    5  C   UNL     1       4.259  34.227  60.008  1.00  0.00     0.033 A 
HETATM    6  C   UNL     1       4.169  33.662  58.731  1.00  0.00     0.019 A 
ENDROOT
BRANCH   1   7
HETATM    7  C   UNL     1       4.745  31.933  57.049  1.00  0.00     0.252 C 
HETATM    8  N   UNL     1       5.400  30.743  56.800  1.00  0.00    -0.352 N 
HETATM    9  H   UNL     1       5.703  30.188  57.587  1.00  0.00     0.163 HD
HETATM   10  O   UNL     1       4.098  32.530  56.195  1.00  0.00    -0.268 OA
BRANCH   8  11
HETATM   11  C   UNL     1       5.319  30.073  55.506  1.00  0.00     0.087 C 
HETATM   12  C   UNL     1       6.637  29.377  55.165  1.00  0.00     0.045 C 
HETATM   13  C   UNL     1       6.897  28.162  56.047  1.00  0.00     0.130 C 
HETATM   14  N   UNL     1       5.749  27.264  56.123  1.00  0.00    -0.328 N 
HETATM   15  C   UNL     1       5.911  25.928  56.476  1.00  0.00     0.362 C 
HETATM   16  C   UNL     1       4.441  27.864  56.367  1.00  0.00     0.130 C 
HETATM   17  O   UNL     1       4.986  25.186  56.791  1.00  0.00    -0.238 OA
HETATM   18  C   UNL     1       4.168  29.068  55.472  1.00  0.00     0.045 C 
BRANCH  15  19
HETATM   19  O   UNL     1       7.213  25.535  56.436  1.00  0.00    -0.304 OA
BRANCH  19  20
HETATM   20  C   UNL     1       7.486  24.309  55.745  1.00  0.00     0.176 C 
HETATM   21  C   UNL     1       7.299  24.504  54.252  1.00  0.00     0.034 C 
ENDBRANCH  19  20
ENDBRANCH  15  19
ENDBRANCH   8  11
ENDBRANCH   1   7
BRANCH   3  22
HETATM   22  N   UNL     1       6.424  31.744  61.720  1.00  0.00    -0.320 N 
HETATM   23  C   UNL     1       7.794  31.599  61.754  1.00  0.00     0.263 C 
HETATM   24  O   UNL     1       8.361  31.680  62.844  1.00  0.00    -0.267 OA
HETATM   25  H   UNL     1       6.003  31.700  62.634  1.00  0.00     0.169 HD
BRANCH  23  26
HETATM   26  C   UNL     1       8.459  31.243  60.506  1.00  0.00     0.072 A 
HETATM   27  S   UNL     1       9.587  32.325  59.803  1.00  0.00    -0.097 SA
HETATM   28  C   UNL     1       9.937  31.240  58.528  1.00  0.00     0.050 A 
HETATM   29  C   UNL     1       9.213  30.073  58.627  1.00  0.00     0.009 A 
HETATM   30  C   UNL     1       8.361  30.075  59.767  1.00  0.00     0.025 A 
ENDBRANCH  23  26
ENDBRANCH   3  22
BRANCH   4  31
HETATM   31  N   UNL     1       5.013  34.226  62.304  1.00  0.00    -0.378 N 
HETATM   32  C   UNL     1       6.188  34.923  62.833  1.00  0.00     0.134 C 
HETATM   33  C   UNL     1       5.812  36.322  63.371  1.00  0.00     0.054 C 
HETATM   34  C   UNL     1       4.706  36.191  64.415  1.00  0.00     0.020 C 
HETATM   35  C   UNL     1       5.382  37.207  62.214  1.00  0.00     0.020 A 
HETATM   36  C   UNL     1       3.486  35.604  63.717  1.00  0.00     0.023 C 
HETATM   37  C   UNL     1       3.002  36.593  62.650  1.00  0.00     0.138 C 
HETATM   38  C   UNL     1       3.807  34.214  63.139  1.00  0.00     0.129 C 
HETATM   39  N   UNL     1       4.036  37.247  61.846  1.00  0.00    -0.317 N 
HETATM   40  C   UNL     1       3.586  37.986  60.747  1.00  0.00     0.247 A 
HETATM   41  O   UNL     1       2.411  38.075  60.401  1.00  0.00    -0.268 OA
HETATM   42  C   UNL     1       4.626  38.704  59.965  1.00  0.00     0.074 A 
HETATM   43  C   UNL     1       5.905  38.664  60.352  1.00  0.00     0.007 A 
HETATM   44  C   UNL     1       6.293  37.903  61.508  1.00  0.00     0.026 A 
ENDBRANCH   4  31
TORSDOF 7
ENDMDL
MODEL 4
REMARK VINA RESULT:      -8.8      5.505     11.153
REMARK  7 active torsions:
REMARK  status: ('A' for Active; 'I' for Inactive)
REMARK    1  A    between atoms: C_2  and  O_3 
REMARK    2  A    between atoms: O_3  and  C_4 
REMARK       I    between atoms: C_4  and  N_5 
REMARK    3  A    between atoms: C_8  and  N_9 
REMARK       I    between atoms: N_9  and  C_10 
REMARK    4  A    between atoms: C_10  and  C_11 
REMARK    5  A    between atoms: C_13  and  N_14 
REMARK       I    between atoms: N_14  and  C_15 
REMARK    6  A    between atoms: C_15  and  C_16 
REMARK    7  A    between atoms: C_22  and  N_23 
ROOT
HETATM    1  C   UNL     1       3.216  30.713  51.885  1.00  0.00     0.034 A 
HETATM    2  C   UNL     1       3.082  29.669  50.967  1.00  0.00     0.049 A 
HETATM    3  C   UNL     1       3.753  28.444  51.154  1.00  0.00     0.062 A 
HETATM    4  C   UNL     1       4.614  28.248  52.260  1.00  0.00     0.057 A 
HETATM    5  C   UNL     1       4.730  29.322  53.163  1.00  0.00     0.033 A 
HETATM    6  C   UNL     1       4.047  30.530  52.986  1.00  0.00     0.019 A 
ENDROOT
BRANCH   1   7
HETATM    7  C   UNL     1       2.540  32.035  51.716  1.00  0.00     0.252 C 
HETATM    8  N   UNL     1       1.751  32.471  52.763  1.00  0.00    -0.352 N 
HETATM    9  H   UNL     1       1.845  32.014  53.657  1.00  0.00     0.163 HD
HETATM   10  O   UNL     1       2.709  32.688  50.692  1.00  0.00    -0.268 OA
BRANCH   8  11
HETATM   11  C   UNL     1       1.104  33.779  52.748  1.00  0.00     0.087 C 
HETATM   12  C   UNL     1      -0.329  33.677  52.225  1.00  0.00     0.045 C 
HETATM   13  C   UNL     1      -1.255  32.963  53.201  1.00  0.00     0.130 C 
HETATM   14  N   UNL     1      -1.151  33.484  54.561  1.00  0.00    -0.328 N 
HETATM   15  C   UNL     1      -2.187  33.307  55.473  1.00  0.00     0.362 C 
HETATM   16  C   UNL     1       0.188  33.685  55.103  1.00  0.00     0.130 C 
HETATM   17  O   UNL     1      -2.076  33.499  56.680  1.00  0.00    -0.238 OA
HETATM   18  C   UNL     1       1.113  34.418  54.138  1.00  0.00     0.045 C 
BRANCH  15  19
HETATM   19  O   UNL     1      -3.338  32.891  54.878  1.00  0.00    -0.304 OA
BRANCH  19  20
HETATM   20  C   UNL     1      -4.543  33.541  55.302  1.00  0.00     0.176 C 
HETATM   21  C   UNL     1      -5.674  33.210  54.346  1.00  0.00     0.034 C 
ENDBRANCH  19  20
ENDBRANCH  15  19
ENDBRANCH   8  11
ENDBRANCH   1   7
BRANCH   3  22
HETATM   22  N   UNL     1       3.554  27.414  50.204  1.00  0.00    -0.320 N 
HETATM   23  C   UNL     1       4.085  27.346  48.934  1.00  0.00     0.263 C 
HETATM   24  O   UNL     1       4.465  26.251  48.519  1.00  0.00    -0.267 OA
HETATM   25  H   UNL     1       3.345  26.507  50.589  1.00  0.00     0.169 HD
BRANCH  23  26
HETATM   26  C   UNL     1       4.048  28.562  48.129  1.00  0.00     0.072 A 
HETATM   27  S   UNL     1       2.628  28.968  47.262  1.00  0.00    -0.097 SA
HETATM   28  C   UNL     1       3.310  30.429  46.692  1.00  0.00     0.050 A 
HETATM   29  C   UNL     1       4.596  30.613  47.150  1.00  0.00     0.009 A 
HETATM   30  C   UNL     1       5.022  29.537  47.978  1.00  0.00     0.025 A 
ENDBRANCH  23  26
ENDBRANCH   3  22
BRANCH   4  31
HETATM   31  N   UNL     1       5.283  27.058  52.523  1.00  0.00    -0.378 N 
HETATM   32  C   UNL     1       6.717  26.897  52.267  1.00  0.00     0.134 C 
HETATM   33  C   UNL     1       7.442  26.319  53.503  1.00  0.00     0.054 C 
HETATM   34  C   UNL     1       6.784  25.005  53.917  1.00  0.00     0.020 C 
HETATM   35  C   UNL     1       7.409  27.337  54.629  1.00  0.00     0.020 A 
HETATM   36  C   UNL     1       5.346  25.319  54.311  1.00  0.00     0.023 C 
HETATM   37  C   UNL     1       5.359  26.239  55.538  1.00  0.00     0.138 C 
HETATM   38  C   UNL     1       4.577  25.921  53.122  1.00  0.00     0.129 C 
HETATM   39  N   UNL     1       6.349  27.318  55.538  1.00  0.00    -0.317 N 
HETATM   40  C   UNL     1       6.222  28.271  56.554  1.00  0.00     0.247 A 
HETATM   41  O   UNL     1       5.324  28.279  57.393  1.00  0.00    -0.268 OA
HETATM   42  C   UNL     1       7.261  29.331  56.597  1.00  0.00     0.074 A 
HETATM   43  C   UNL     1       8.275  29.314  55.726  1.00  0.00     0.007 A 
HETATM   44  C   UNL     1       8.356  28.288  54.722  1.00  0.00     0.026 A 
ENDBRANCH   4  31
TORSDOF 7
ENDMDL
MODEL 5
REMARK VINA RESULT:      -8.7      5.723      9.779
REMARK  7 active torsions:
REMARK  status: ('A' for Active; 'I' for Inactive)
REMARK    1  A    between atoms: C_2  and  O_3 
REMARK    2  A    between atoms: O_3  and  C_4 
REMARK       I    between atoms: C_4  and  N_5 
REMARK    3  A    between atoms: C_8  and  N_9 
REMARK       I    between atoms: N_9  and  C_10 
REMARK    4  A    between atoms: C_10  and  C_11 
REMARK    5  A    between atoms: C_13  and  N_14 
REMARK       I    between atoms: N_14  and  C_15 
REMARK    6  A    between atoms: C_15  and  C_16 
REMARK    7  A    between atoms: C_22  and  N_23 
ROOT
HETATM    1  C   UNL     1       4.230  29.262  53.906  1.00  0.00     0.034 A 
HETATM    2  C   UNL     1       4.471  30.631  53.773  1.00  0.00     0.049 A 
HETATM    3  C   UNL     1       4.442  31.256  52.510  1.00  0.00     0.062 A 
HETATM    4  C   UNL     1       4.207  30.507  51.332  1.00  0.00     0.057 A 
HETATM    5  C   UNL     1       3.974  29.129  51.502  1.00  0.00     0.033 A 
HETATM    6  C   UNL     1       3.982  28.514  52.759  1.00  0.00     0.019 A 
ENDROOT
BRANCH   1   7
HETATM    7  C   UNL     1       4.270  28.555  55.221  1.00  0.00     0.252 C 
HETATM    8  N   UNL     1       5.338  27.707  55.442  1.00  0.00    -0.352 N 
HETATM    9  H   UNL     1       6.139  27.775  54.831  1.00  0.00     0.163 HD
HETATM   10  O   UNL     1       3.391  28.751  56.054  1.00  0.00    -0.268 OA
BRANCH   8  11
HETATM   11  C   UNL     1       5.530  27.023  56.717  1.00  0.00     0.087 C 
HETATM   12  C   UNL     1       4.931  25.617  56.680  1.00  0.00     0.045 C 
HETATM   13  C   UNL     1       5.719  24.673  55.782  1.00  0.00     0.130 C 
HETATM   14  N   UNL     1       7.154  24.705  56.049  1.00  0.00    -0.328 N 
HETATM   15  C   UNL     1       7.970  23.638  55.687  1.00  0.00     0.362 C 
HETATM   16  C   UNL     1       7.785  26.014  56.178  1.00  0.00     0.130 C 
HETATM   17  O   UNL     1       9.196  23.692  55.660  1.00  0.00    -0.238 OA
HETATM   18  C   UNL     1       7.011  26.956  57.093  1.00  0.00     0.045 C 
BRANCH  15  19
HETATM   19  O   UNL     1       7.257  22.525  55.361  1.00  0.00    -0.304 OA
BRANCH  19  20
HETATM   20  C   UNL     1       8.017  21.340  55.092  1.00  0.00     0.176 C 
HETATM   21  C   UNL     1       7.919  20.985  53.620  1.00  0.00     0.034 C 
ENDBRANCH  19  20
ENDBRANCH  15  19
ENDBRANCH   8  11
ENDBRANCH   1   7
BRANCH   3  22
HETATM   22  N   UNL     1       4.664  32.653  52.442  1.00  0.00    -0.320 N 
HETATM   23  C   UNL     1       4.065  33.624  53.217  1.00  0.00     0.263 C 
HETATM   24  O   UNL     1       4.754  34.569  53.600  1.00  0.00    -0.267 OA
HETATM   25  H   UNL     1       5.569  32.930  52.099  1.00  0.00     0.169 HD
BRANCH  23  26
HETATM   26  C   UNL     1       2.625  33.516  53.427  1.00  0.00     0.072 A 
HETATM   27  S   UNL     1       2.012  33.269  55.007  1.00  0.00    -0.097 SA
HETATM   28  C   UNL     1       0.392  33.325  54.461  1.00  0.00     0.050 A 
HETATM   29  C   UNL     1       0.310  33.528  53.101  1.00  0.00     0.009 A 
HETATM   30  C   UNL     1       1.598  33.638  52.505  1.00  0.00     0.025 A 
ENDBRANCH  23  26
ENDBRANCH   3  22
BRANCH   4  31
HETATM   31  N   UNL     1       4.136  31.061  50.059  1.00  0.00    -0.378 N 
HETATM   32  C   UNL     1       5.232  30.940  49.095  1.00  0.00     0.134 C 
HETATM   33  C   UNL     1       4.718  30.437  47.727  1.00  0.00     0.054 C 
HETATM   34  C   UNL     1       3.611  31.359  47.223  1.00  0.00     0.020 C 
HETATM   35  C   UNL     1       4.228  29.006  47.868  1.00  0.00     0.020 A 
HETATM   36  C   UNL     1       2.462  31.282  48.222  1.00  0.00     0.023 C 
HETATM   37  C   UNL     1       1.908  29.853  48.230  1.00  0.00     0.138 C 
HETATM   38  C   UNL     1       2.921  31.752  49.613  1.00  0.00     0.129 C 
HETATM   39  N   UNL     1       2.891  28.768  48.192  1.00  0.00    -0.317 N 
HETATM   40  C   UNL     1       2.394  27.478  48.405  1.00  0.00     0.247 A 
HETATM   41  O   UNL     1       1.221  27.218  48.664  1.00  0.00    -0.268 OA
HETATM   42  C   UNL     1       3.376  26.369  48.304  1.00  0.00     0.074 A 
HETATM   43  C   UNL     1       4.646  26.623  47.974  1.00  0.00     0.007 A 
HETATM   44  C   UNL     1       5.083  27.974  47.744  1.00  0.00     0.026 A 
ENDBRANCH   4  31
TORSDOF 7
ENDMDL
MODEL 6
REMARK VINA RESULT:      -8.6      5.674      8.859
REMARK  7 active torsions:
REMARK  status: ('A' for Active; 'I' for Inactive)
REMARK    1  A    between atoms: C_2  and  O_3 
REMARK    2  A    between atoms: O_3  and  C_4 
REMARK       I    between atoms: C_4  and  N_5 
REMARK    3  A    between atoms: C_8  and  N_9 
REMARK       I    between atoms: N_9  and  C_10 
REMARK    4  A    between atoms: C_10  and  C_11 
REMARK    5  A    between atoms: C_13  and  N_14 
REMARK       I    between atoms: N_14  and  C_15 
REMARK    6  A    between atoms: C_15  and  C_16 
REMARK    7  A    between atoms: C_22  and  N_23 
ROOT
HETATM    1  C   UNL     1       4.875  29.070  50.611  1.00  0.00     0.034 A 
HETATM    2  C   UNL     1       3.890  29.544  51.481  1.00  0.00     0.049 A 
HETATM    3  C   UNL     1       3.607  30.921  51.579  1.00  0.00     0.062 A 
HETATM    4  C   UNL     1       4.339  31.870  50.826  1.00  0.00     0.057 A 
HETATM    5  C   UNL     1       5.328  31.358  49.964  1.00  0.00     0.033 A 
HETATM    6  C   UNL     1       5.594  29.989  49.853  1.00  0.00     0.019 A 
ENDROOT
BRANCH   1   7
HETATM    7  C   UNL     1       5.221  27.622  50.490  1.00  0.00     0.252 C 
HETATM    8  N   UNL     1       5.764  27.015  51.607  1.00  0.00    -0.352 N 
HETATM    9  H   UNL     1       5.690  27.488  52.495  1.00  0.00     0.163 HD
HETATM   10  O   UNL     1       5.008  27.021  49.443  1.00  0.00    -0.268 OA
BRANCH   8  11
HETATM   11  C   UNL     1       6.069  25.588  51.637  1.00  0.00     0.087 C 
HETATM   12  C   UNL     1       7.492  25.342  52.139  1.00  0.00     0.045 C 
HETATM   13  C   UNL     1       7.648  25.651  53.622  1.00  0.00     0.130 C 
HETATM   14  N   UNL     1       6.610  25.030  54.440  1.00  0.00    -0.328 N 
HETATM   15  C   UNL     1       6.813  24.805  55.798  1.00  0.00     0.362 C 
HETATM   16  C   UNL     1       5.230  25.153  53.983  1.00  0.00     0.130 C 
HETATM   17  O   UNL     1       5.917  24.516  56.585  1.00  0.00    -0.238 OA
HETATM   18  C   UNL     1       5.067  24.824  52.503  1.00  0.00     0.045 C 
BRANCH  15  19
HETATM   19  O   UNL     1       8.118  24.945  56.158  1.00  0.00    -0.304 OA
BRANCH  19  20
HETATM   20  C   UNL     1       8.370  25.719  57.339  1.00  0.00     0.176 C 
HETATM   21  C   UNL     1       8.176  27.194  57.042  1.00  0.00     0.034 C 
ENDBRANCH  19  20
ENDBRANCH  15  19
ENDBRANCH   8  11
ENDBRANCH   1   7
BRANCH   3  22
HETATM   22  N   UNL     1       2.577  31.338  52.455  1.00  0.00    -0.320 N 
HETATM   23  C   UNL     1       2.731  31.881  53.713  1.00  0.00     0.263 C 
HETATM   24  O   UNL     1       1.982  32.799  54.046  1.00  0.00    -0.267 OA
HETATM   25  H   UNL     1       1.719  31.622  52.010  1.00  0.00     0.169 HD
BRANCH  23  26
HETATM   26  C   UNL     1       3.697  31.244  54.601  1.00  0.00     0.072 A 
HETATM   27  S   UNL     1       4.779  32.210  55.514  1.00  0.00    -0.097 SA
HETATM   28  C   UNL     1       5.463  30.841  56.279  1.00  0.00     0.050 A 
HETATM   29  C   UNL     1       4.884  29.666  55.853  1.00  0.00     0.009 A 
HETATM   30  C   UNL     1       3.866  29.899  54.886  1.00  0.00     0.025 A 
ENDBRANCH  23  26
ENDBRANCH   3  22
BRANCH   4  31
HETATM   31  N   UNL     1       4.095  33.238  50.851  1.00  0.00    -0.378 N 
HETATM   32  C   UNL     1       5.112  34.204  51.275  1.00  0.00     0.134 C 
HETATM   33  C   UNL     1       5.263  35.344  50.243  1.00  0.00     0.054 C 
HETATM   34  C   UNL     1       3.908  36.007  50.008  1.00  0.00     0.020 C 
HETATM   35  C   UNL     1       5.840  34.786  48.954  1.00  0.00     0.020 A 
HETATM   36  C   UNL     1       2.980  34.951  49.419  1.00  0.00     0.023 C 
HETATM   37  C   UNL     1       3.526  34.515  48.056  1.00  0.00     0.138 C 
HETATM   38  C   UNL     1       2.808  33.775  50.397  1.00  0.00     0.129 C 
HETATM   39  N   UNL     1       4.975  34.321  47.961  1.00  0.00    -0.317 N 
HETATM   40  C   UNL     1       5.442  33.731  46.783  1.00  0.00     0.247 A 
HETATM   41  O   UNL     1       4.723  33.333  45.870  1.00  0.00    -0.268 OA
HETATM   42  C   UNL     1       6.916  33.590  46.656  1.00  0.00     0.074 A 
HETATM   43  C   UNL     1       7.721  34.061  47.614  1.00  0.00     0.007 A 
HETATM   44  C   UNL     1       7.171  34.680  48.789  1.00  0.00     0.026 A 
ENDBRANCH   4  31
TORSDOF 7
ENDMDL
MODEL 7
REMARK VINA RESULT:      -8.6      2.616      4.661
REMARK  7 active torsions:
REMARK  status: ('A' for Active; 'I' for Inactive)
REMARK    1  A    between atoms: C_2  and  O_3 
REMARK    2  A    between atoms: O_3  and  C_4 
REMARK       I    between atoms: C_4  and  N_5 
REMARK    3  A    between atoms: C_8  and  N_9 
REMARK       I    between atoms: N_9  and  C_10 
REMARK    4  A    between atoms: C_10  and  C_11 
REMARK    5  A    between atoms: C_13  and  N_14 
REMARK       I    between atoms: N_14  and  C_15 
REMARK    6  A    between atoms: C_15  and  C_16 
REMARK    7  A    between atoms: C_22  and  N_23 
ROOT
HETATM    1  C   UNL     1       6.552  31.528  58.543  1.00  0.00     0.034 A 
HETATM    2  C   UNL     1       5.399  31.506  57.754  1.00  0.00     0.049 A 
HETATM    3  C   UNL     1       4.281  32.301  58.075  1.00  0.00     0.062 A 
HETATM    4  C   UNL     1       4.277  33.120  59.230  1.00  0.00     0.057 A 
HETATM    5  C   UNL     1       5.453  33.114  60.006  1.00  0.00     0.033 A 
HETATM    6  C   UNL     1       6.570  32.340  59.674  1.00  0.00     0.019 A 
ENDROOT
BRANCH   1   7
HETATM    7  C   UNL     1       7.751  30.687  58.251  1.00  0.00     0.252 C 
HETATM    8  N   UNL     1       7.530  29.489  57.600  1.00  0.00    -0.352 N 
HETATM    9  H   UNL     1       6.636  29.342  57.155  1.00  0.00     0.163 HD
HETATM   10  O   UNL     1       8.870  31.076  58.571  1.00  0.00    -0.268 OA
BRANCH   8  11
HETATM   11  C   UNL     1       8.628  28.619  57.191  1.00  0.00     0.087 C 
HETATM   12  C   UNL     1       8.259  27.147  57.373  1.00  0.00     0.045 C 
HETATM   13  C   UNL     1       7.203  26.685  56.377  1.00  0.00     0.130 C 
HETATM   14  N   UNL     1       7.525  27.054  55.002  1.00  0.00    -0.328 N 
HETATM   15  C   UNL     1       6.966  26.366  53.929  1.00  0.00     0.362 C 
HETATM   16  C   UNL     1       7.963  28.424  54.759  1.00  0.00     0.130 C 
HETATM   17  O   UNL     1       6.998  26.764  52.769  1.00  0.00    -0.238 OA
HETATM   18  C   UNL     1       9.035  28.884  55.741  1.00  0.00     0.045 C 
BRANCH  15  19
HETATM   19  O   UNL     1       6.376  25.200  54.311  1.00  0.00    -0.304 OA
BRANCH  19  20
HETATM   20  C   UNL     1       6.551  24.082  53.432  1.00  0.00     0.176 C 
HETATM   21  C   UNL     1       7.919  23.462  53.649  1.00  0.00     0.034 C 
ENDBRANCH  19  20
ENDBRANCH  15  19
ENDBRANCH   8  11
ENDBRANCH   1   7
BRANCH   3  22
HETATM   22  N   UNL     1       3.154  32.258  57.220  1.00  0.00    -0.320 N 
HETATM   23  C   UNL     1       3.093  32.682  55.909  1.00  0.00     0.263 C 
HETATM   24  O   UNL     1       2.441  32.009  55.111  1.00  0.00    -0.267 OA
HETATM   25  H   UNL     1       2.480  31.541  57.431  1.00  0.00     0.169 HD
BRANCH  23  26
HETATM   26  C   UNL     1       3.713  33.963  55.592  1.00  0.00     0.072 A 
HETATM   27  S   UNL     1       2.730  35.331  55.281  1.00  0.00    -0.097 SA
HETATM   28  C   UNL     1       4.090  36.349  55.085  1.00  0.00     0.050 A 
HETATM   29  C   UNL     1       5.275  35.668  55.252  1.00  0.00     0.009 A 
HETATM   30  C   UNL     1       5.058  34.292  55.544  1.00  0.00     0.025 A 
ENDBRANCH  23  26
ENDBRANCH   3  22
BRANCH   4  31
HETATM   31  N   UNL     1       3.223  33.951  59.591  1.00  0.00    -0.378 N 
HETATM   32  C   UNL     1       2.261  33.581  60.632  1.00  0.00     0.134 C 
HETATM   33  C   UNL     1       2.090  34.719  61.663  1.00  0.00     0.054 C 
HETATM   34  C   UNL     1       1.691  36.006  60.947  1.00  0.00     0.020 C 
HETATM   35  C   UNL     1       3.383  34.893  62.441  1.00  0.00     0.020 A 
HETATM   36  C   UNL     1       2.833  36.379  60.009  1.00  0.00     0.023 C 
HETATM   37  C   UNL     1       4.082  36.681  60.845  1.00  0.00     0.138 C 
HETATM   38  C   UNL     1       3.066  35.269  58.969  1.00  0.00     0.129 C 
HETATM   39  N   UNL     1       4.350  35.784  61.971  1.00  0.00    -0.317 N 
HETATM   40  C   UNL     1       5.590  35.938  62.601  1.00  0.00     0.247 A 
HETATM   41  O   UNL     1       6.460  36.728  62.242  1.00  0.00    -0.268 OA
HETATM   42  C   UNL     1       5.841  35.074  63.783  1.00  0.00     0.074 A 
HETATM   43  C   UNL     1       4.889  34.243  64.222  1.00  0.00     0.007 A 
HETATM   44  C   UNL     1       3.627  34.155  63.539  1.00  0.00     0.026 A 
ENDBRANCH   4  31
TORSDOF 7
ENDMDL
MODEL 8
REMARK VINA RESULT:      -8.4      5.896      9.894
REMARK  7 active torsions:
REMARK  status: ('A' for Active; 'I' for Inactive)
REMARK    1  A    between atoms: C_2  and  O_3 
REMARK    2  A    between atoms: O_3  and  C_4 
REMARK       I    between atoms: C_4  and  N_5 
REMARK    3  A    between atoms: C_8  and  N_9 
REMARK       I    between atoms: N_9  and  C_10 
REMARK    4  A    between atoms: C_10  and  C_11 
REMARK    5  A    between atoms: C_13  and  N_14 
REMARK       I    between atoms: N_14  and  C_15 
REMARK    6  A    between atoms: C_15  and  C_16 
REMARK    7  A    between atoms: C_22  and  N_23 
ROOT
HETATM    1  C   UNL     1       4.999  28.293  52.323  1.00  0.00     0.034 A 
HETATM    2  C   UNL     1       5.523  28.010  51.059  1.00  0.00     0.049 A 
HETATM    3  C   UNL     1       5.349  28.902  49.982  1.00  0.00     0.062 A 
HETATM    4  C   UNL     1       4.602  30.094  50.138  1.00  0.00     0.057 A 
HETATM    5  C   UNL     1       4.083  30.346  51.422  1.00  0.00     0.033 A 
HETATM    6  C   UNL     1       4.275  29.469  52.496  1.00  0.00     0.019 A 
ENDROOT
BRANCH   1   7
HETATM    7  C   UNL     1       5.143  27.368  53.487  1.00  0.00     0.252 C 
HETATM    8  N   UNL     1       5.522  27.933  54.690  1.00  0.00    -0.352 N 
HETATM    9  H   UNL     1       5.460  28.935  54.790  1.00  0.00     0.163 HD
HETATM   10  O   UNL     1       4.912  26.171  53.356  1.00  0.00    -0.268 OA
BRANCH   8  11
HETATM   11  C   UNL     1       5.618  27.146  55.915  1.00  0.00     0.087 C 
HETATM   12  C   UNL     1       7.070  26.770  56.213  1.00  0.00     0.045 C 
HETATM   13  C   UNL     1       7.906  27.971  56.634  1.00  0.00     0.130 C 
HETATM   14  N   UNL     1       7.268  28.765  57.679  1.00  0.00    -0.328 N 
HETATM   15  C   UNL     1       8.020  29.598  58.502  1.00  0.00     0.362 C 
HETATM   16  C   UNL     1       5.858  29.097  57.505  1.00  0.00     0.130 C 
HETATM   17  O   UNL     1       7.537  30.461  59.228  1.00  0.00    -0.238 OA
HETATM   18  C   UNL     1       5.013  27.893  57.104  1.00  0.00     0.045 C 
BRANCH  15  19
HETATM   19  O   UNL     1       9.356  29.351  58.409  1.00  0.00    -0.304 OA
BRANCH  19  20
HETATM   20  C   UNL     1      10.155  30.391  57.830  1.00  0.00     0.176 C 
HETATM   21  C   UNL     1      11.282  29.784  57.015  1.00  0.00     0.034 C 
ENDBRANCH  19  20
ENDBRANCH  15  19
ENDBRANCH   8  11
ENDBRANCH   1   7
BRANCH   3  22
HETATM   22  N   UNL     1       5.929  28.574  48.734  1.00  0.00    -0.320 N 
HETATM   23  C   UNL     1       5.263  28.252  47.570  1.00  0.00     0.263 C 
HETATM   24  O   UNL     1       5.709  28.682  46.507  1.00  0.00    -0.267 OA
HETATM   25  H   UNL     1       6.841  28.966  48.566  1.00  0.00     0.169 HD
BRANCH  23  26
HETATM   26  C   UNL     1       4.141  27.327  47.678  1.00  0.00     0.072 A 
HETATM   27  S   UNL     1       2.560  27.854  47.278  1.00  0.00    -0.097 SA
HETATM   28  C   UNL     1       1.896  26.305  47.570  1.00  0.00     0.050 A 
HETATM   29  C   UNL     1       2.852  25.397  47.964  1.00  0.00     0.009 A 
HETATM   30  C   UNL     1       4.147  25.986  48.027  1.00  0.00     0.025 A 
ENDBRANCH  23  26
ENDBRANCH   3  22
BRANCH   4  31
HETATM   31  N   UNL     1       4.414  31.032  49.129  1.00  0.00    -0.378 N 
HETATM   32  C   UNL     1       3.111  31.244  48.495  1.00  0.00     0.134 C 
HETATM   33  C   UNL     1       2.739  32.743  48.472  1.00  0.00     0.054 C 
HETATM   34  C   UNL     1       3.846  33.537  47.783  1.00  0.00     0.020 C 
HETATM   35  C   UNL     1       2.509  33.227  49.893  1.00  0.00     0.020 A 
HETATM   36  C   UNL     1       5.112  33.372  48.616  1.00  0.00     0.023 C 
HETATM   37  C   UNL     1       4.882  33.997  49.996  1.00  0.00     0.138 C 
HETATM   38  C   UNL     1       5.521  31.890  48.693  1.00  0.00     0.129 C 
HETATM   39  N   UNL     1       3.582  33.747  50.621  1.00  0.00    -0.317 N 
HETATM   40  C   UNL     1       3.453  34.144  51.956  1.00  0.00     0.247 A 
HETATM   41  O   UNL     1       4.359  34.632  52.628  1.00  0.00    -0.268 OA
HETATM   42  C   UNL     1       2.117  33.950  52.576  1.00  0.00     0.074 A 
HETATM   43  C   UNL     1       1.103  33.468  51.849  1.00  0.00     0.007 A 
HETATM   44  C   UNL     1       1.301  33.104  50.473  1.00  0.00     0.026 A 
ENDBRANCH   4  31
TORSDOF 7
ENDMDL
MODEL 9
REMARK VINA RESULT:      -8.3      5.242     11.188
REMARK  7 active torsions:
REMARK  status: ('A' for Active; 'I' for Inactive)
REMARK    1  A    between atoms: C_2  and  O_3 
REMARK    2  A    between atoms: O_3  and  C_4 
REMARK       I    between atoms: C_4  and  N_5 
REMARK    3  A    between atoms: C_8  and  N_9 
REMARK       I    between atoms: N_9  and  C_10 
REMARK    4  A    between atoms: C_10  and  C_11 
REMARK    5  A    between atoms: C_13  and  N_14 
REMARK       I    between atoms: N_14  and  C_15 
REMARK    6  A    between atoms: C_15  and  C_16 
REMARK    7  A    between atoms: C_22  and  N_23 
ROOT
HETATM    1  C   UNL     1       3.131  29.849  51.252  1.00  0.00     0.034 A 
HETATM    2  C   UNL     1       3.665  29.104  50.198  1.00  0.00     0.049 A 
HETATM    3  C   UNL     1       4.448  27.957  50.440  1.00  0.00     0.062 A 
HETATM    4  C   UNL     1       4.750  27.548  51.761  1.00  0.00     0.057 A 
HETATM    5  C   UNL     1       4.201  28.325  52.799  1.00  0.00     0.033 A 
HETATM    6  C   UNL     1       3.407  29.451  52.557  1.00  0.00     0.019 A 
ENDROOT
BRANCH   1   7
HETATM    7  C   UNL     1       2.314  31.082  51.042  1.00  0.00     0.252 C 
HETATM    8  N   UNL     1       2.068  31.865  52.153  1.00  0.00    -0.352 N 
HETATM    9  H   UNL     1       2.622  31.709  52.982  1.00  0.00     0.163 HD
HETATM   10  O   UNL     1       1.907  31.369  49.921  1.00  0.00    -0.268 OA
BRANCH   8  11
HETATM   11  C   UNL     1       1.350  33.132  52.061  1.00  0.00     0.087 C 
HETATM   12  C   UNL     1       0.483  33.363  53.299  1.00  0.00     0.045 C 
HETATM   13  C   UNL     1       1.312  33.648  54.544  1.00  0.00     0.130 C 
HETATM   14  N   UNL     1       2.326  34.675  54.325  1.00  0.00    -0.328 N 
HETATM   15  C   UNL     1       2.859  35.390  55.393  1.00  0.00     0.362 C 
HETATM   16  C   UNL     1       3.142  34.568  53.120  1.00  0.00     0.130 C 
HETATM   17  O   UNL     1       3.868  36.085  55.316  1.00  0.00    -0.238 OA
HETATM   18  C   UNL     1       2.314  34.303  51.867  1.00  0.00     0.045 C 
BRANCH  15  19
HETATM   19  O   UNL     1       2.138  35.230  56.536  1.00  0.00    -0.304 OA
BRANCH  19  20
HETATM   20  C   UNL     1       2.886  34.922  57.720  1.00  0.00     0.176 C 
HETATM   21  C   UNL     1       3.517  33.548  57.591  1.00  0.00     0.034 C 
ENDBRANCH  19  20
ENDBRANCH  15  19
ENDBRANCH   8  11
ENDBRANCH   1   7
BRANCH   3  22
HETATM   22  N   UNL     1       4.935  27.226  49.330  1.00  0.00    -0.320 N 
HETATM   23  C   UNL     1       4.576  27.390  48.009  1.00  0.00     0.263 C 
HETATM   24  O   UNL     1       5.455  27.298  47.152  1.00  0.00    -0.267 OA
HETATM   25  H   UNL     1       5.859  26.841  49.440  1.00  0.00     0.169 HD
BRANCH  23  26
HETATM   26  C   UNL     1       3.156  27.546  47.718  1.00  0.00     0.072 A 
HETATM   27  S   UNL     1       2.586  28.998  47.009  1.00  0.00    -0.097 SA
HETATM   28  C   UNL     1       0.982  28.410  46.928  1.00  0.00     0.050 A 
HETATM   29  C   UNL     1       0.873  27.132  47.429  1.00  0.00     0.009 A 
HETATM   30  C   UNL     1       2.126  26.634  47.885  1.00  0.00     0.025 A 
ENDBRANCH  23  26
ENDBRANCH   3  22
BRANCH   4  31
HETATM   31  N   UNL     1       5.490  26.413  52.073  1.00  0.00    -0.378 N 
HETATM   32  C   UNL     1       6.947  26.370  51.931  1.00  0.00     0.134 C 
HETATM   33  C   UNL     1       7.618  25.841  53.219  1.00  0.00     0.054 C 
HETATM   34  C   UNL     1       7.037  24.476  53.577  1.00  0.00     0.020 C 
HETATM   35  C   UNL     1       7.414  26.844  54.341  1.00  0.00     0.020 A 
HETATM   36  C   UNL     1       5.552  24.671  53.858  1.00  0.00     0.023 C 
HETATM   37  C   UNL     1       5.394  25.578  55.083  1.00  0.00     0.138 C 
HETATM   38  C   UNL     1       4.832  25.219  52.613  1.00  0.00     0.129 C 
HETATM   39  N   UNL     1       6.291  26.733  55.163  1.00  0.00    -0.317 N 
HETATM   40  C   UNL     1       6.009  27.664  56.169  1.00  0.00     0.247 A 
HETATM   41  O   UNL     1       5.050  27.594  56.933  1.00  0.00    -0.268 OA
HETATM   42  C   UNL     1       6.953  28.804  56.295  1.00  0.00     0.074 A 
HETATM   43  C   UNL     1       8.030  28.875  55.507  1.00  0.00     0.007 A 
HETATM   44  C   UNL     1       8.272  27.867  54.510  1.00  0.00     0.026 A 
ENDBRANCH   4  31
TORSDOF 7
ENDMDL
MODEL 10
REMARK VINA RESULT:      -8.2      5.528      9.914
REMARK  7 active torsions:
REMARK  status: ('A' for Active; 'I' for Inactive)
REMARK    1  A    between atoms: C_2  and  O_3 
REMARK    2  A    between atoms: O_3  and  C_4 
REMARK       I    between atoms: C_4  and  N_5 
REMARK    3  A    between atoms: C_8  and  N_9 
REMARK       I    between atoms: N_9  and  C_10 
REMARK    4  A    between atoms: C_10  and  C_11 
REMARK    5  A    between atoms: C_13  and  N_14 
REMARK       I    between atoms: N_14  and  C_15 
REMARK    6  A    between atoms: C_15  and  C_16 
REMARK    7  A    between atoms: C_22  and  N_23 
ROOT
HETATM    1  C   UNL     1       3.197  31.469  53.924  1.00  0.00     0.034 A 
HETATM    2  C   UNL     1       2.962  32.768  53.468  1.00  0.00     0.049 A 
HETATM    3  C   UNL     1       3.085  33.095  52.103  1.00  0.00     0.062 A 
HETATM    4  C   UNL     1       3.488  32.123  51.156  1.00  0.00     0.057 A 
HETATM    5  C   UNL     1       3.723  30.825  51.650  1.00  0.00     0.033 A 
HETATM    6  C   UNL     1       3.580  30.498  53.003  1.00  0.00     0.019 A 
ENDROOT
BRANCH   1   7
HETATM    7  C   UNL     1       3.099  31.084  55.364  1.00  0.00     0.252 C 
HETATM    8  N   UNL     1       4.180  30.417  55.907  1.00  0.00    -0.352 N 
HETATM    9  H   UNL     1       5.053  30.424  55.400  1.00  0.00     0.163 HD
HETATM   10  O   UNL     1       2.100  31.374  56.013  1.00  0.00    -0.268 OA
BRANCH   8  11
HETATM   11  C   UNL     1       4.235  30.059  57.321  1.00  0.00     0.087 C 
HETATM   12  C   UNL     1       5.250  28.942  57.565  1.00  0.00     0.045 C 
HETATM   13  C   UNL     1       6.687  29.411  57.381  1.00  0.00     0.130 C 
HETATM   14  N   UNL     1       6.974  30.647  58.103  1.00  0.00    -0.328 N 
HETATM   15  C   UNL     1       8.280  30.989  58.439  1.00  0.00     0.362 C 
HETATM   16  C   UNL     1       6.009  31.735  57.984  1.00  0.00     0.130 C 
HETATM   17  O   UNL     1       8.618  32.105  58.824  1.00  0.00    -0.238 OA
HETATM   18  C   UNL     1       4.570  31.273  58.188  1.00  0.00     0.045 C 
BRANCH  15  19
HETATM   19  O   UNL     1       9.144  29.949  58.290  1.00  0.00    -0.304 OA
BRANCH  19  20
HETATM   20  C   UNL     1      10.396  30.249  57.659  1.00  0.00     0.176 C 
HETATM   21  C   UNL     1      10.381  29.761  56.222  1.00  0.00     0.034 C 
ENDBRANCH  19  20
ENDBRANCH  15  19
ENDBRANCH   8  11
ENDBRANCH   1   7
BRANCH   3  22
HETATM   22  N   UNL     1       2.804  34.421  51.698  1.00  0.00    -0.320 N 
HETATM   23  C   UNL     1       3.719  35.384  51.326  1.00  0.00     0.263 C 
HETATM   24  O   UNL     1       3.432  36.127  50.387  1.00  0.00    -0.267 OA
HETATM   25  H   UNL     1       1.897  34.564  51.284  1.00  0.00     0.169 HD
BRANCH  23  26
HETATM   26  C   UNL     1       4.913  35.524  52.151  1.00  0.00     0.072 A 
HETATM   27  S   UNL     1       4.804  36.275  53.687  1.00  0.00    -0.097 SA
HETATM   28  C   UNL     1       6.461  36.004  54.013  1.00  0.00     0.050 A 
HETATM   29  C   UNL     1       7.093  35.355  52.977  1.00  0.00     0.009 A 
HETATM   30  C   UNL     1       6.202  35.078  51.903  1.00  0.00     0.025 A 
ENDBRANCH  23  26
ENDBRANCH   3  22
BRANCH   4  31
HETATM   31  N   UNL     1       3.602  32.367  49.792  1.00  0.00    -0.378 N 
HETATM   32  C   UNL     1       4.870  32.213  49.076  1.00  0.00     0.134 C 
HETATM   33  C   UNL     1       4.693  31.347  47.808  1.00  0.00     0.054 C 
HETATM   34  C   UNL     1       3.606  31.949  46.922  1.00  0.00     0.020 C 
HETATM   35  C   UNL     1       4.355  29.923  48.212  1.00  0.00     0.020 A 
HETATM   36  C   UNL     1       2.302  31.912  47.711  1.00  0.00     0.023 C 
HETATM   37  C   UNL     1       1.926  30.451  47.978  1.00  0.00     0.138 C 
HETATM   38  C   UNL     1       2.425  32.742  49.001  1.00  0.00     0.129 C 
HETATM   39  N   UNL     1       3.017  29.554  48.364  1.00  0.00    -0.317 N 
HETATM   40  C   UNL     1       2.642  28.279  48.803  1.00  0.00     0.247 A 
HETATM   41  O   UNL     1       1.480  27.899  48.925  1.00  0.00    -0.268 OA
HETATM   42  C   UNL     1       3.747  27.344  49.135  1.00  0.00     0.074 A 
HETATM   43  C   UNL     1       5.019  27.719  48.962  1.00  0.00     0.007 A 
HETATM   44  C   UNL     1       5.332  29.037  48.483  1.00  0.00     0.026 A 
ENDBRANCH   4  31
TORSDOF 7
ENDMDL
