MODEL 1
REMARK VINA RESULT:      -9.8      0.000      0.000
REMARK  9 active torsions:
REMARK  status: ('A' for Active; 'I' for Inactive)
REMARK    1  A    between atoms: O_2  and  C_3 
REMARK    2  A    between atoms: C_3  and  C_4 
REMARK    3  A    between atoms: C_6  and  C_7 
REMARK    4  A    between atoms: C_7  and  N_8 
REMARK       I    between atoms: N_8  and  C_9 
REMARK    5  A    between atoms: C_9  and  C_10 
REMARK    6  A    between atoms: C_10  and  S_11 
REMARK    7  A    between atoms: S_11  and  C_12 
REMARK    8  A    between atoms: C_12  and  C_13 
REMARK       I    between atoms: C_13  and  N_14 
REMARK    9  A    between atoms: N_14  and  C_15 
ROOT
HETATM    1  S   UNL     1       7.589  28.861  57.685  1.00  0.00    -0.150 SA
ENDROOT
BRANCH   1   2
HETATM    2  C   UNL     1       6.939  30.466  58.253  1.00  0.00     0.177 C 
BRANCH   2   3
HETATM    3  C   UNL     1       7.838  31.206  59.232  1.00  0.00     0.227 C 
HETATM    4  N   UNL     1       7.654  30.932  60.562  1.00  0.00    -0.354 N 
HETATM    5  H   UNL     1       7.001  30.201  60.830  1.00  0.00     0.162 HD
HETATM    6  O   UNL     1       8.719  31.965  58.831  1.00  0.00    -0.273 OA
BRANCH   4   7
HETATM    7  C   UNL     1       8.547  31.437  61.578  1.00  0.00     0.187 C 
BRANCH   7   8
HETATM    8  C   UNL     1       7.759  32.124  62.630  1.00  0.00     0.071 A 
HETATM    9  O   UNL     1       6.401  32.153  62.477  1.00  0.00    -0.307 OA
HETATM   10  C   UNL     1       5.879  32.822  63.554  1.00  0.00     0.150 A 
HETATM   11  C   UNL     1       6.909  33.207  64.393  1.00  0.00     0.046 A 
HETATM   12  C   UNL     1       8.114  32.764  63.799  1.00  0.00     0.037 A 
BRANCH  10  13
HETATM   13  C   UNL     1       4.452  33.020  63.675  1.00  0.00     0.316 C 
HETATM   14  O   UNL     1       3.631  32.777  62.798  1.00  0.00    -0.257 OA
BRANCH  13  15
HETATM   15  O   UNL     1       4.142  33.516  64.908  1.00  0.00    -0.321 OA
HETATM   16  C   UNL     1       3.263  34.639  64.877  1.00  0.00     0.213 C 
ENDBRANCH  13  15
ENDBRANCH  10  13
ENDBRANCH   7   8
ENDBRANCH   4   7
ENDBRANCH   2   3
ENDBRANCH   1   2
BRANCH   1  17
HETATM   17  C   UNL     1       6.606  28.678  56.151  1.00  0.00     0.177 C 
BRANCH  17  18
HETATM   18  C   UNL     1       6.387  27.212  55.777  1.00  0.00     0.231 C 
HETATM   19  N   UNL     1       7.444  26.648  55.087  1.00  0.00    -0.327 N 
HETATM   20  H   UNL     1       8.261  27.244  54.991  1.00  0.00     0.169 HD
HETATM   21  O   UNL     1       5.313  26.669  56.025  1.00  0.00    -0.272 OA
BRANCH  19  22
HETATM   22  C   UNL     1       7.572  25.333  54.598  1.00  0.00     0.035 A 
HETATM   23  C   UNL     1       7.554  24.194  55.405  1.00  0.00     0.042 A 
HETATM   24  C   UNL     1       7.716  22.909  54.851  1.00  0.00    -0.024 A 
HETATM   25  C   UNL     1       7.887  22.768  53.456  1.00  0.00    -0.026 A 
HETATM   26  C   UNL     1       7.716  21.760  55.657  1.00  0.00     0.012 A 
HETATM   27  C   UNL     1       7.892  23.915  52.651  1.00  0.00     0.014 A 
HETATM   28  C   UNL     1       8.052  21.487  52.905  1.00  0.00     0.012 A 
HETATM   29  C   UNL     1       7.739  25.184  53.218  1.00  0.00     0.030 A 
HETATM   30  C   UNL     1       8.052  20.355  53.723  1.00  0.00     0.001 A 
HETATM   31  C   UNL     1       7.884  20.493  55.097  1.00  0.00     0.001 A 
ENDBRANCH  19  22
ENDBRANCH  17  18
ENDBRANCH   1  17
TORSDOF 9
ENDMDL
MODEL 2
REMARK VINA RESULT:      -9.7      1.465      1.686
REMARK  9 active torsions:
REMARK  status: ('A' for Active; 'I' for Inactive)
REMARK    1  A    between atoms: O_2  and  C_3 
REMARK    2  A    between atoms: C_3  and  C_4 
REMARK    3  A    between atoms: C_6  and  C_7 
REMARK    4  A    between atoms: C_7  and  N_8 
REMARK       I    between atoms: N_8  and  C_9 
REMARK    5  A    between atoms: C_9  and  C_10 
REMARK    6  A    between atoms: C_10  and  S_11 
REMARK    7  A    between atoms: S_11  and  C_12 
REMARK    8  A    between atoms: C_12  and  C_13 
REMARK       I    between atoms: C_13  and  N_14 
REMARK    9  A    between atoms: N_14  and  C_15 
ROOT
HETATM    1  S   UNL     1       5.618  28.395  57.047  1.00  0.00    -0.150 SA
ENDROOT
BRANCH   1   2
HETATM    2  C   UNL     1       7.269  28.076  57.750  1.00  0.00     0.177 C 
BRANCH   2   3
HETATM    3  C   UNL     1       8.091  29.323  58.035  1.00  0.00     0.227 C 
HETATM    4  N   UNL     1       7.964  29.868  59.286  1.00  0.00    -0.354 N 
HETATM    5  H   UNL     1       7.408  29.381  59.983  1.00  0.00     0.162 HD
HETATM    6  O   UNL     1       8.867  29.774  57.195  1.00  0.00    -0.273 OA
BRANCH   4   7
HETATM    7  C   UNL     1       8.807  30.949  59.739  1.00  0.00     0.187 C 
BRANCH   7   8
HETATM    8  C   UNL     1       8.322  31.436  61.053  1.00  0.00     0.071 A 
HETATM    9  O   UNL     1       6.972  31.421  61.267  1.00  0.00    -0.307 OA
HETATM   10  C   UNL     1       6.751  31.900  62.532  1.00  0.00     0.150 A 
HETATM   11  C   UNL     1       7.963  32.208  63.121  1.00  0.00     0.046 A 
HETATM   12  C   UNL     1       8.970  31.915  62.172  1.00  0.00     0.037 A 
BRANCH  10  13
HETATM   13  C   UNL     1       5.406  32.010  63.052  1.00  0.00     0.316 C 
HETATM   14  O   UNL     1       4.681  31.062  63.335  1.00  0.00    -0.257 OA
BRANCH  13  15
HETATM   15  O   UNL     1       5.051  33.321  63.185  1.00  0.00    -0.321 OA
HETATM   16  C   UNL     1       4.011  33.733  62.299  1.00  0.00     0.213 C 
ENDBRANCH  13  15
ENDBRANCH  10  13
ENDBRANCH   7   8
ENDBRANCH   4   7
ENDBRANCH   2   3
ENDBRANCH   1   2
BRANCH   1  17
HETATM   17  C   UNL     1       6.099  28.701  55.306  1.00  0.00     0.177 C 
BRANCH  17  18
HETATM   18  C   UNL     1       6.894  27.538  54.714  1.00  0.00     0.231 C 
HETATM   19  N   UNL     1       6.304  26.302  54.907  1.00  0.00    -0.327 N 
HETATM   20  H   UNL     1       5.384  26.329  55.337  1.00  0.00     0.169 HD
HETATM   21  O   UNL     1       7.991  27.743  54.198  1.00  0.00    -0.272 OA
BRANCH  19  22
HETATM   22  C   UNL     1       6.763  25.036  54.494  1.00  0.00     0.035 A 
HETATM   23  C   UNL     1       7.001  23.969  55.362  1.00  0.00     0.042 A 
HETATM   24  C   UNL     1       7.488  22.738  54.883  1.00  0.00    -0.024 A 
HETATM   25  C   UNL     1       7.728  22.574  53.500  1.00  0.00    -0.026 A 
HETATM   26  C   UNL     1       7.746  21.665  55.751  1.00  0.00     0.012 A 
HETATM   27  C   UNL     1       7.476  23.646  52.634  1.00  0.00     0.014 A 
HETATM   28  C   UNL     1       8.217  21.346  53.024  1.00  0.00     0.012 A 
HETATM   29  C   UNL     1       7.000  24.864  53.127  1.00  0.00     0.030 A 
HETATM   30  C   UNL     1       8.470  20.292  53.903  1.00  0.00     0.001 A 
HETATM   31  C   UNL     1       8.235  20.452  55.265  1.00  0.00     0.001 A 
ENDBRANCH  19  22
ENDBRANCH  17  18
ENDBRANCH   1  17
TORSDOF 9
ENDMDL
MODEL 3
REMARK VINA RESULT:      -9.3      1.203      1.894
REMARK  9 active torsions:
REMARK  status: ('A' for Active; 'I' for Inactive)
REMARK    1  A    between atoms: O_2  and  C_3 
REMARK    2  A    between atoms: C_3  and  C_4 
REMARK    3  A    between atoms: C_6  and  C_7 
REMARK    4  A    between atoms: C_7  and  N_8 
REMARK       I    between atoms: N_8  and  C_9 
REMARK    5  A    between atoms: C_9  and  C_10 
REMARK    6  A    between atoms: C_10  and  S_11 
REMARK    7  A    between atoms: S_11  and  C_12 
REMARK    8  A    between atoms: C_12  and  C_13 
REMARK       I    between atoms: C_13  and  N_14 
REMARK    9  A    between atoms: N_14  and  C_15 
ROOT
HETATM    1  S   UNL     1       7.327  29.700  56.952  1.00  0.00    -0.150 SA
ENDROOT
BRANCH   1   2
HETATM    2  C   UNL     1       6.571  30.725  58.255  1.00  0.00     0.177 C 
BRANCH   2   3
HETATM    3  C   UNL     1       7.553  31.290  59.270  1.00  0.00     0.227 C 
HETATM    4  N   UNL     1       7.337  30.962  60.582  1.00  0.00    -0.354 N 
HETATM    5  H   UNL     1       6.600  30.300  60.811  1.00  0.00     0.162 HD
HETATM    6  O   UNL     1       8.519  31.959  58.907  1.00  0.00    -0.273 OA
BRANCH   4   7
HETATM    7  C   UNL     1       8.284  31.293  61.620  1.00  0.00     0.187 C 
BRANCH   7   8
HETATM    8  C   UNL     1       7.625  32.153  62.633  1.00  0.00     0.071 A 
HETATM    9  O   UNL     1       6.286  32.380  62.486  1.00  0.00    -0.307 OA
HETATM   10  C   UNL     1       5.887  33.182  63.524  1.00  0.00     0.150 A 
HETATM   11  C   UNL     1       6.976  33.454  64.333  1.00  0.00     0.046 A 
HETATM   12  C   UNL     1       8.090  32.798  63.759  1.00  0.00     0.037 A 
BRANCH  10  13
HETATM   13  C   UNL     1       4.509  33.603  63.641  1.00  0.00     0.316 C 
HETATM   14  O   UNL     1       3.813  33.464  64.640  1.00  0.00    -0.257 OA
BRANCH  13  15
HETATM   15  O   UNL     1       4.086  34.181  62.479  1.00  0.00    -0.321 OA
HETATM   16  C   UNL     1       4.643  35.473  62.239  1.00  0.00     0.213 C 
ENDBRANCH  13  15
ENDBRANCH  10  13
ENDBRANCH   7   8
ENDBRANCH   4   7
ENDBRANCH   2   3
ENDBRANCH   1   2
BRANCH   1  17
HETATM   17  C   UNL     1       6.457  28.122  57.283  1.00  0.00     0.177 C 
BRANCH  17  18
HETATM   18  C   UNL     1       7.355  26.907  57.047  1.00  0.00     0.231 C 
HETATM   19  N   UNL     1       6.719  25.859  56.409  1.00  0.00    -0.327 N 
HETATM   20  H   UNL     1       5.771  26.055  56.101  1.00  0.00     0.169 HD
HETATM   21  O   UNL     1       8.503  26.899  57.484  1.00  0.00    -0.272 OA
BRANCH  19  22
HETATM   22  C   UNL     1       7.246  24.605  56.041  1.00  0.00     0.035 A 
HETATM   23  C   UNL     1       7.177  24.075  54.751  1.00  0.00     0.042 A 
HETATM   24  C   UNL     1       7.701  22.801  54.461  1.00  0.00    -0.024 A 
HETATM   25  C   UNL     1       8.318  22.050  55.487  1.00  0.00    -0.026 A 
HETATM   26  C   UNL     1       7.621  22.254  53.170  1.00  0.00     0.012 A 
HETATM   27  C   UNL     1       8.393  22.594  56.776  1.00  0.00     0.014 A 
HETATM   28  C   UNL     1       8.836  20.778  55.197  1.00  0.00     0.012 A 
HETATM   29  C   UNL     1       7.861  23.857  57.050  1.00  0.00     0.030 A 
HETATM   30  C   UNL     1       8.745  20.249  53.908  1.00  0.00     0.001 A 
HETATM   31  C   UNL     1       8.138  20.987  52.897  1.00  0.00     0.001 A 
ENDBRANCH  19  22
ENDBRANCH  17  18
ENDBRANCH   1  17
TORSDOF 9
ENDMDL
MODEL 4
REMARK VINA RESULT:      -9.3      2.321      3.498
REMARK  9 active torsions:
REMARK  status: ('A' for Active; 'I' for Inactive)
REMARK    1  A    between atoms: O_2  and  C_3 
REMARK    2  A    between atoms: C_3  and  C_4 
REMARK    3  A    between atoms: C_6  and  C_7 
REMARK    4  A    between atoms: C_7  and  N_8 
REMARK       I    between atoms: N_8  and  C_9 
REMARK    5  A    between atoms: C_9  and  C_10 
REMARK    6  A    between atoms: C_10  and  S_11 
REMARK    7  A    between atoms: S_11  and  C_12 
REMARK    8  A    between atoms: C_12  and  C_13 
REMARK       I    between atoms: C_13  and  N_14 
REMARK    9  A    between atoms: N_14  and  C_15 
ROOT
HETATM    1  S   UNL     1       4.271  28.760  55.341  1.00  0.00    -0.150 SA
ENDROOT
BRANCH   1   2
HETATM    2  C   UNL     1       4.918  28.965  57.033  1.00  0.00     0.177 C 
BRANCH   2   3
HETATM    3  C   UNL     1       6.382  28.590  57.203  1.00  0.00     0.227 C 
HETATM    4  N   UNL     1       7.288  29.617  57.152  1.00  0.00    -0.354 N 
HETATM    5  H   UNL     1       6.949  30.573  57.092  1.00  0.00     0.162 HD
HETATM    6  O   UNL     1       6.714  27.428  57.431  1.00  0.00    -0.273 OA
BRANCH   4   7
HETATM    7  C   UNL     1       8.684  29.421  57.463  1.00  0.00     0.187 C 
BRANCH   7   8
HETATM    8  C   UNL     1       9.084  30.352  58.547  1.00  0.00     0.071 A 
HETATM    9  O   UNL     1       8.655  30.061  59.812  1.00  0.00    -0.307 OA
HETATM   10  C   UNL     1       9.141  31.036  60.645  1.00  0.00     0.150 A 
HETATM   11  C   UNL     1       9.885  31.937  59.906  1.00  0.00     0.046 A 
HETATM   12  C   UNL     1       9.844  31.502  58.561  1.00  0.00     0.037 A 
BRANCH  10  13
HETATM   13  C   UNL     1       8.849  31.004  62.061  1.00  0.00     0.316 C 
HETATM   14  O   UNL     1       8.788  29.988  62.744  1.00  0.00    -0.257 OA
BRANCH  13  15
HETATM   15  O   UNL     1       8.652  32.268  62.537  1.00  0.00    -0.321 OA
HETATM   16  C   UNL     1       7.495  32.403  63.361  1.00  0.00     0.213 C 
ENDBRANCH  13  15
ENDBRANCH  10  13
ENDBRANCH   7   8
ENDBRANCH   4   7
ENDBRANCH   2   3
ENDBRANCH   1   2
BRANCH   1  17
HETATM   17  C   UNL     1       5.833  28.336  54.484  1.00  0.00     0.177 C 
BRANCH  17  18
HETATM   18  C   UNL     1       5.880  26.866  54.063  1.00  0.00     0.231 C 
HETATM   19  N   UNL     1       7.007  26.196  54.503  1.00  0.00    -0.327 N 
HETATM   20  H   UNL     1       7.613  26.732  55.117  1.00  0.00     0.169 HD
HETATM   21  O   UNL     1       5.005  26.409  53.332  1.00  0.00    -0.272 OA
BRANCH  19  22
HETATM   22  C   UNL     1       7.362  24.848  54.297  1.00  0.00     0.035 A 
HETATM   23  C   UNL     1       7.472  23.904  55.320  1.00  0.00     0.042 A 
HETATM   24  C   UNL     1       7.861  22.579  55.045  1.00  0.00    -0.024 A 
HETATM   25  C   UNL     1       8.132  22.194  53.713  1.00  0.00    -0.026 A 
HETATM   26  C   UNL     1       7.991  21.627  56.069  1.00  0.00     0.012 A 
HETATM   27  C   UNL     1       8.008  23.144  52.691  1.00  0.00     0.014 A 
HETATM   28  C   UNL     1       8.523  20.872  53.440  1.00  0.00     0.012 A 
HETATM   29  C   UNL     1       7.629  24.458  52.982  1.00  0.00     0.030 A 
HETATM   30  C   UNL     1       8.649  19.941  54.472  1.00  0.00     0.001 A 
HETATM   31  C   UNL     1       8.383  20.318  55.785  1.00  0.00     0.001 A 
ENDBRANCH  19  22
ENDBRANCH  17  18
ENDBRANCH   1  17
TORSDOF 9
ENDMDL
MODEL 5
REMARK VINA RESULT:      -9.2      2.730     11.680
REMARK  9 active torsions:
REMARK  status: ('A' for Active; 'I' for Inactive)
REMARK    1  A    between atoms: O_2  and  C_3 
REMARK    2  A    between atoms: C_3  and  C_4 
REMARK    3  A    between atoms: C_6  and  C_7 
REMARK    4  A    between atoms: C_7  and  N_8 
REMARK       I    between atoms: N_8  and  C_9 
REMARK    5  A    between atoms: C_9  and  C_10 
REMARK    6  A    between atoms: C_10  and  S_11 
REMARK    7  A    between atoms: S_11  and  C_12 
REMARK    8  A    between atoms: C_12  and  C_13 
REMARK       I    between atoms: C_13  and  N_14 
REMARK    9  A    between atoms: N_14  and  C_15 
ROOT
HETATM    1  S   UNL     1       8.291  29.029  57.360  1.00  0.00    -0.150 SA
ENDROOT
BRANCH   1   2
HETATM    2  C   UNL     1       8.411  28.888  55.546  1.00  0.00     0.177 C 
BRANCH   2   3
HETATM    3  C   UNL     1       7.384  27.963  54.911  1.00  0.00     0.227 C 
HETATM    4  N   UNL     1       7.752  27.348  53.744  1.00  0.00    -0.354 N 
HETATM    5  H   UNL     1       8.702  27.461  53.404  1.00  0.00     0.162 HD
HETATM    6  O   UNL     1       6.305  27.747  55.460  1.00  0.00    -0.273 OA
BRANCH   4   7
HETATM    7  C   UNL     1       6.939  26.324  53.130  1.00  0.00     0.187 C 
BRANCH   7   8
HETATM    8  C   UNL     1       7.528  24.992  53.411  1.00  0.00     0.071 A 
HETATM    9  O   UNL     1       7.746  24.668  54.721  1.00  0.00    -0.307 OA
HETATM   10  C   UNL     1       8.281  23.405  54.749  1.00  0.00     0.150 A 
HETATM   11  C   UNL     1       8.391  22.929  53.455  1.00  0.00     0.046 A 
HETATM   12  C   UNL     1       7.913  23.947  52.598  1.00  0.00     0.037 A 
BRANCH  10  13
HETATM   13  C   UNL     1       8.626  22.781  56.006  1.00  0.00     0.316 C 
HETATM   14  O   UNL     1       8.594  23.336  57.099  1.00  0.00    -0.257 OA
BRANCH  13  15
HETATM   15  O   UNL     1       8.993  21.482  55.809  1.00  0.00    -0.321 OA
HETATM   16  C   UNL     1       8.068  20.532  56.336  1.00  0.00     0.213 C 
ENDBRANCH  13  15
ENDBRANCH  10  13
ENDBRANCH   7   8
ENDBRANCH   4   7
ENDBRANCH   2   3
ENDBRANCH   1   2
BRANCH   1  17
HETATM   17  C   UNL     1       9.714  30.143  57.658  1.00  0.00     0.177 C 
BRANCH  17  18
HETATM   18  C   UNL     1       9.385  31.242  58.670  1.00  0.00     0.231 C 
HETATM   19  N   UNL     1       8.218  31.017  59.377  1.00  0.00    -0.327 N 
HETATM   20  H   UNL     1       7.776  30.120  59.202  1.00  0.00     0.169 HD
HETATM   21  O   UNL     1      10.092  32.244  58.737  1.00  0.00    -0.272 OA
BRANCH  19  22
HETATM   22  C   UNL     1       7.630  31.819  60.375  1.00  0.00     0.035 A 
HETATM   23  C   UNL     1       8.140  31.960  61.667  1.00  0.00     0.042 A 
HETATM   24  C   UNL     1       7.483  32.756  62.624  1.00  0.00    -0.024 A 
HETATM   25  C   UNL     1       6.295  33.434  62.270  1.00  0.00    -0.026 A 
HETATM   26  C   UNL     1       7.981  32.890  63.931  1.00  0.00     0.012 A 
HETATM   27  C   UNL     1       5.795  33.297  60.969  1.00  0.00     0.014 A 
HETATM   28  C   UNL     1       5.639  34.225  63.228  1.00  0.00     0.012 A 
HETATM   29  C   UNL     1       6.455  32.496  60.033  1.00  0.00     0.030 A 
HETATM   30  C   UNL     1       6.147  34.344  64.522  1.00  0.00     0.001 A 
HETATM   31  C   UNL     1       7.317  33.677  64.873  1.00  0.00     0.001 A 
ENDBRANCH  19  22
ENDBRANCH  17  18
ENDBRANCH   1  17
TORSDOF 9
ENDMDL
MODEL 6
REMARK VINA RESULT:      -9.0      1.887      2.906
REMARK  9 active torsions:
REMARK  status: ('A' for Active; 'I' for Inactive)
REMARK    1  A    between atoms: O_2  and  C_3 
REMARK    2  A    between atoms: C_3  and  C_4 
REMARK    3  A    between atoms: C_6  and  C_7 
REMARK    4  A    between atoms: C_7  and  N_8 
REMARK       I    between atoms: N_8  and  C_9 
REMARK    5  A    between atoms: C_9  and  C_10 
REMARK    6  A    between atoms: C_10  and  S_11 
REMARK    7  A    between atoms: S_11  and  C_12 
REMARK    8  A    between atoms: C_12  and  C_13 
REMARK       I    between atoms: C_13  and  N_14 
REMARK    9  A    between atoms: N_14  and  C_15 
ROOT
HETATM    1  S   UNL     1       7.866  30.596  59.236  1.00  0.00    -0.150 SA
ENDROOT
BRANCH   1   2
HETATM    2  C   UNL     1       7.076  32.233  59.372  1.00  0.00     0.177 C 
BRANCH   2   3
HETATM    3  C   UNL     1       5.974  32.322  60.416  1.00  0.00     0.227 C 
HETATM    4  N   UNL     1       6.147  31.582  61.556  1.00  0.00    -0.354 N 
HETATM    5  H   UNL     1       7.021  31.084  61.693  1.00  0.00     0.162 HD
HETATM    6  O   UNL     1       5.010  33.070  60.254  1.00  0.00    -0.273 OA
BRANCH   4   7
HETATM    7  C   UNL     1       5.261  31.705  62.689  1.00  0.00     0.187 C 
BRANCH   7   8
HETATM    8  C   UNL     1       5.898  32.558  63.722  1.00  0.00     0.071 A 
HETATM    9  O   UNL     1       5.131  32.921  64.794  1.00  0.00    -0.307 OA
HETATM   10  C   UNL     1       5.912  33.691  65.617  1.00  0.00     0.150 A 
HETATM   11  C   UNL     1       7.176  33.806  65.068  1.00  0.00     0.046 A 
HETATM   12  C   UNL     1       7.166  33.084  63.852  1.00  0.00     0.037 A 
BRANCH  10  13
HETATM   13  C   UNL     1       5.375  34.233  66.844  1.00  0.00     0.316 C 
HETATM   14  O   UNL     1       6.044  34.618  67.797  1.00  0.00    -0.257 OA
BRANCH  13  15
HETATM   15  O   UNL     1       4.011  34.261  66.797  1.00  0.00    -0.321 OA
HETATM   16  C   UNL     1       3.471  35.519  66.395  1.00  0.00     0.213 C 
ENDBRANCH  13  15
ENDBRANCH  10  13
ENDBRANCH   7   8
ENDBRANCH   4   7
ENDBRANCH   2   3
ENDBRANCH   1   2
BRANCH   1  17
HETATM   17  C   UNL     1       6.900  29.924  57.833  1.00  0.00     0.177 C 
BRANCH  17  18
HETATM   18  C   UNL     1       7.666  28.842  57.071  1.00  0.00     0.231 C 
HETATM   19  N   UNL     1       7.097  27.585  57.164  1.00  0.00    -0.327 N 
HETATM   20  H   UNL     1       6.205  27.553  57.649  1.00  0.00     0.169 HD
HETATM   21  O   UNL     1       8.727  29.117  56.515  1.00  0.00    -0.272 OA
BRANCH  19  22
HETATM   22  C   UNL     1       7.538  26.377  56.589  1.00  0.00     0.035 A 
HETATM   23  C   UNL     1       7.277  25.997  55.271  1.00  0.00     0.042 A 
HETATM   24  C   UNL     1       7.725  24.760  54.770  1.00  0.00    -0.024 A 
HETATM   25  C   UNL     1       8.461  23.893  55.609  1.00  0.00    -0.026 A 
HETATM   26  C   UNL     1       7.452  24.363  53.451  1.00  0.00     0.012 A 
HETATM   27  C   UNL     1       8.729  24.287  56.926  1.00  0.00     0.014 A 
HETATM   28  C   UNL     1       8.904  22.658  55.108  1.00  0.00     0.012 A 
HETATM   29  C   UNL     1       8.270  25.514  57.411  1.00  0.00     0.030 A 
HETATM   30  C   UNL     1       8.621  22.279  53.795  1.00  0.00     0.001 A 
HETATM   31  C   UNL     1       7.896  23.131  52.968  1.00  0.00     0.001 A 
ENDBRANCH  19  22
ENDBRANCH  17  18
ENDBRANCH   1  17
TORSDOF 9
ENDMDL
MODEL 7
REMARK VINA RESULT:      -9.0      2.631      3.976
REMARK  9 active torsions:
REMARK  status: ('A' for Active; 'I' for Inactive)
REMARK    1  A    between atoms: O_2  and  C_3 
REMARK    2  A    between atoms: C_3  and  C_4 
REMARK    3  A    between atoms: C_6  and  C_7 
REMARK    4  A    between atoms: C_7  and  N_8 
REMARK       I    between atoms: N_8  and  C_9 
REMARK    5  A    between atoms: C_9  and  C_10 
REMARK    6  A    between atoms: C_10  and  S_11 
REMARK    7  A    between atoms: S_11  and  C_12 
REMARK    8  A    between atoms: C_12  and  C_13 
REMARK       I    between atoms: C_13  and  N_14 
REMARK    9  A    between atoms: N_14  and  C_15 
ROOT
HETATM    1  S   UNL     1       4.937  28.054  56.540  1.00  0.00    -0.150 SA
ENDROOT
BRANCH   1   2
HETATM    2  C   UNL     1       4.389  29.604  55.751  1.00  0.00     0.177 C 
BRANCH   2   3
HETATM    3  C   UNL     1       3.964  30.695  56.722  1.00  0.00     0.227 C 
HETATM    4  N   UNL     1       4.965  31.327  57.411  1.00  0.00    -0.354 N 
HETATM    5  H   UNL     1       5.932  31.108  57.189  1.00  0.00     0.162 HD
HETATM    6  O   UNL     1       2.783  31.020  56.828  1.00  0.00    -0.273 OA
BRANCH   4   7
HETATM    7  C   UNL     1       4.713  32.486  58.234  1.00  0.00     0.187 C 
BRANCH   7   8
HETATM    8  C   UNL     1       5.691  32.521  59.350  1.00  0.00     0.071 A 
HETATM    9  O   UNL     1       7.003  32.301  59.039  1.00  0.00    -0.307 OA
HETATM   10  C   UNL     1       7.722  32.386  60.204  1.00  0.00     0.150 A 
HETATM   11  C   UNL     1       6.862  32.669  61.249  1.00  0.00     0.046 A 
HETATM   12  C   UNL     1       5.560  32.751  60.703  1.00  0.00     0.037 A 
BRANCH  10  13
HETATM   13  C   UNL     1       9.155  32.193  60.199  1.00  0.00     0.316 C 
HETATM   14  O   UNL     1       9.822  31.850  61.168  1.00  0.00    -0.257 OA
BRANCH  13  15
HETATM   15  O   UNL     1       9.666  32.446  58.959  1.00  0.00    -0.321 OA
HETATM   16  C   UNL     1      10.192  31.292  58.304  1.00  0.00     0.213 C 
ENDBRANCH  13  15
ENDBRANCH  10  13
ENDBRANCH   7   8
ENDBRANCH   4   7
ENDBRANCH   2   3
ENDBRANCH   1   2
BRANCH   1  17
HETATM   17  C   UNL     1       6.743  28.224  56.288  1.00  0.00     0.177 C 
BRANCH  17  18
HETATM   18  C   UNL     1       7.428  26.872  56.087  1.00  0.00     0.231 C 
HETATM   19  N   UNL     1       6.866  26.106  55.083  1.00  0.00    -0.327 N 
HETATM   20  H   UNL     1       6.133  26.566  54.551  1.00  0.00     0.169 HD
HETATM   21  O   UNL     1       8.336  26.527  56.839  1.00  0.00    -0.272 OA
BRANCH  19  22
HETATM   22  C   UNL     1       7.248  24.824  54.639  1.00  0.00     0.035 A 
HETATM   23  C   UNL     1       7.375  23.713  55.475  1.00  0.00     0.042 A 
HETATM   24  C   UNL     1       7.789  22.467  54.968  1.00  0.00    -0.024 A 
HETATM   25  C   UNL     1       8.070  22.333  53.590  1.00  0.00    -0.026 A 
HETATM   26  C   UNL     1       7.935  21.349  55.805  1.00  0.00     0.012 A 
HETATM   27  C   UNL     1       7.929  23.450  52.756  1.00  0.00     0.014 A 
HETATM   28  C   UNL     1       8.487  21.090  53.087  1.00  0.00     0.012 A 
HETATM   29  C   UNL     1       7.525  24.682  53.276  1.00  0.00     0.030 A 
HETATM   30  C   UNL     1       8.629  19.990  53.935  1.00  0.00     0.001 A 
HETATM   31  C   UNL     1       8.353  20.120  55.292  1.00  0.00     0.001 A 
ENDBRANCH  19  22
ENDBRANCH  17  18
ENDBRANCH   1  17
TORSDOF 9
ENDMDL
MODEL 8
REMARK VINA RESULT:      -9.0      3.561      5.009
REMARK  9 active torsions:
REMARK  status: ('A' for Active; 'I' for Inactive)
REMARK    1  A    between atoms: O_2  and  C_3 
REMARK    2  A    between atoms: C_3  and  C_4 
REMARK    3  A    between atoms: C_6  and  C_7 
REMARK    4  A    between atoms: C_7  and  N_8 
REMARK       I    between atoms: N_8  and  C_9 
REMARK    5  A    between atoms: C_9  and  C_10 
REMARK    6  A    between atoms: C_10  and  S_11 
REMARK    7  A    between atoms: S_11  and  C_12 
REMARK    8  A    between atoms: C_12  and  C_13 
REMARK       I    between atoms: C_13  and  N_14 
REMARK    9  A    between atoms: N_14  and  C_15 
ROOT
HETATM    1  S   UNL     1       3.812  29.002  53.259  1.00  0.00    -0.150 SA
ENDROOT
BRANCH   1   2
HETATM    2  C   UNL     1       4.394  30.511  54.100  1.00  0.00     0.177 C 
BRANCH   2   3
HETATM    3  C   UNL     1       4.711  30.334  55.577  1.00  0.00     0.227 C 
HETATM    4  N   UNL     1       5.008  29.062  55.992  1.00  0.00    -0.354 N 
HETATM    5  H   UNL     1       5.088  28.323  55.300  1.00  0.00     0.162 HD
HETATM    6  O   UNL     1       4.750  31.301  56.335  1.00  0.00    -0.273 OA
BRANCH   4   7
HETATM    7  C   UNL     1       5.486  28.785  57.326  1.00  0.00     0.187 C 
BRANCH   7   8
HETATM    8  C   UNL     1       6.944  29.052  57.393  1.00  0.00     0.071 A 
HETATM    9  O   UNL     1       7.359  30.063  58.213  1.00  0.00    -0.307 OA
HETATM   10  C   UNL     1       8.726  30.128  58.128  1.00  0.00     0.150 A 
HETATM   11  C   UNL     1       9.175  29.149  57.260  1.00  0.00     0.046 A 
HETATM   12  C   UNL     1       8.033  28.463  56.785  1.00  0.00     0.037 A 
BRANCH  10  13
HETATM   13  C   UNL     1       9.463  31.112  58.888  1.00  0.00     0.316 C 
HETATM   14  O   UNL     1      10.082  32.054  58.406  1.00  0.00    -0.257 OA
BRANCH  13  15
HETATM   15  O   UNL     1       9.375  30.849  60.224  1.00  0.00    -0.321 OA
HETATM   16  C   UNL     1       9.611  31.984  61.055  1.00  0.00     0.213 C 
ENDBRANCH  13  15
ENDBRANCH  10  13
ENDBRANCH   7   8
ENDBRANCH   4   7
ENDBRANCH   2   3
ENDBRANCH   1   2
BRANCH   1  17
HETATM   17  C   UNL     1       5.434  28.265  52.833  1.00  0.00     0.177 C 
BRANCH  17  18
HETATM   18  C   UNL     1       5.497  26.775  53.168  1.00  0.00     0.231 C 
HETATM   19  N   UNL     1       6.686  26.386  53.758  1.00  0.00    -0.327 N 
HETATM   20  H   UNL     1       7.327  27.144  53.972  1.00  0.00     0.169 HD
HETATM   21  O   UNL     1       4.574  26.033  52.842  1.00  0.00    -0.272 OA
BRANCH  19  22
HETATM   22  C   UNL     1       7.072  25.102  54.191  1.00  0.00     0.035 A 
HETATM   23  C   UNL     1       7.352  24.038  53.330  1.00  0.00     0.042 A 
HETATM   24  C   UNL     1       7.705  22.771  53.833  1.00  0.00    -0.024 A 
HETATM   25  C   UNL     1       7.788  22.574  55.230  1.00  0.00    -0.026 A 
HETATM   26  C   UNL     1       7.972  21.692  52.976  1.00  0.00     0.012 A 
HETATM   27  C   UNL     1       7.517  23.649  56.086  1.00  0.00     0.014 A 
HETATM   28  C   UNL     1       8.136  21.309  55.730  1.00  0.00     0.012 A 
HETATM   29  C   UNL     1       7.160  24.898  55.571  1.00  0.00     0.030 A 
HETATM   30  C   UNL     1       8.396  20.247  54.862  1.00  0.00     0.001 A 
HETATM   31  C   UNL     1       8.313  20.439  53.486  1.00  0.00     0.001 A 
ENDBRANCH  19  22
ENDBRANCH  17  18
ENDBRANCH   1  17
TORSDOF 9
ENDMDL
MODEL 9
REMARK VINA RESULT:      -8.9      5.501      9.297
REMARK  9 active torsions:
REMARK  status: ('A' for Active; 'I' for Inactive)
REMARK    1  A    between atoms: O_2  and  C_3 
REMARK    2  A    between atoms: C_3  and  C_4 
REMARK    3  A    between atoms: C_6  and  C_7 
REMARK    4  A    between atoms: C_7  and  N_8 
REMARK       I    between atoms: N_8  and  C_9 
REMARK    5  A    between atoms: C_9  and  C_10 
REMARK    6  A    between atoms: C_10  and  S_11 
REMARK    7  A    between atoms: S_11  and  C_12 
REMARK    8  A    between atoms: C_12  and  C_13 
REMARK       I    between atoms: C_13  and  N_14 
REMARK    9  A    between atoms: N_14  and  C_15 
ROOT
HETATM    1  S   UNL     1       7.337  29.210  56.222  1.00  0.00    -0.150 SA
ENDROOT
BRANCH   1   2
HETATM    2  C   UNL     1       5.731  29.913  55.725  1.00  0.00     0.177 C 
BRANCH   2   3
HETATM    3  C   UNL     1       4.943  29.065  54.739  1.00  0.00     0.227 C 
HETATM    4  N   UNL     1       5.670  28.235  53.927  1.00  0.00    -0.354 N 
HETATM    5  H   UNL     1       6.673  28.156  54.071  1.00  0.00     0.162 HD
HETATM    6  O   UNL     1       3.714  29.093  54.723  1.00  0.00    -0.273 OA
BRANCH   4   7
HETATM    7  C   UNL     1       5.040  27.261  53.067  1.00  0.00     0.187 C 
BRANCH   7   8
HETATM    8  C   UNL     1       5.114  27.724  51.660  1.00  0.00     0.071 A 
HETATM    9  O   UNL     1       4.706  26.851  50.691  1.00  0.00    -0.307 OA
HETATM   10  C   UNL     1       4.851  27.480  49.481  1.00  0.00     0.150 A 
HETATM   11  C   UNL     1       5.342  28.756  49.689  1.00  0.00     0.046 A 
HETATM   12  C   UNL     1       5.515  28.911  51.084  1.00  0.00     0.037 A 
BRANCH  10  13
HETATM   13  C   UNL     1       4.501  26.802  48.253  1.00  0.00     0.316 C 
HETATM   14  O   UNL     1       5.259  26.628  47.305  1.00  0.00    -0.257 OA
BRANCH  13  15
HETATM   15  O   UNL     1       3.205  26.378  48.295  1.00  0.00    -0.321 OA
HETATM   16  C   UNL     1       2.714  25.894  47.046  1.00  0.00     0.213 C 
ENDBRANCH  13  15
ENDBRANCH  10  13
ENDBRANCH   7   8
ENDBRANCH   4   7
ENDBRANCH   2   3
ENDBRANCH   1   2
BRANCH   1  17
HETATM   17  C   UNL     1       6.741  27.893  57.347  1.00  0.00     0.177 C 
BRANCH  17  18
HETATM   18  C   UNL     1       6.492  26.575  56.613  1.00  0.00     0.231 C 
HETATM   19  N   UNL     1       7.626  26.035  56.037  1.00  0.00    -0.327 N 
HETATM   20  H   UNL     1       8.490  26.528  56.243  1.00  0.00     0.169 HD
HETATM   21  O   UNL     1       5.349  26.135  56.513  1.00  0.00    -0.272 OA
BRANCH  19  22
HETATM   22  C   UNL     1       7.752  24.843  55.296  1.00  0.00     0.035 A 
HETATM   23  C   UNL     1       8.012  23.594  55.864  1.00  0.00     0.042 A 
HETATM   24  C   UNL     1       8.153  22.447  55.059  1.00  0.00    -0.024 A 
HETATM   25  C   UNL     1       8.018  22.557  53.657  1.00  0.00    -0.026 A 
HETATM   26  C   UNL     1       8.432  21.190  55.620  1.00  0.00     0.012 A 
HETATM   27  C   UNL     1       7.746  23.812  53.097  1.00  0.00     0.014 A 
HETATM   28  C   UNL     1       8.164  21.413  52.856  1.00  0.00     0.012 A 
HETATM   29  C   UNL     1       7.617  24.942  53.908  1.00  0.00     0.030 A 
HETATM   30  C   UNL     1       8.443  20.172  53.432  1.00  0.00     0.001 A 
HETATM   31  C   UNL     1       8.577  20.062  54.812  1.00  0.00     0.001 A 
ENDBRANCH  19  22
ENDBRANCH  17  18
ENDBRANCH   1  17
TORSDOF 9
ENDMDL
MODEL 10
REMARK VINA RESULT:      -8.8      4.131      5.743
REMARK  9 active torsions:
REMARK  status: ('A' for Active; 'I' for Inactive)
REMARK    1  A    between atoms: O_2  and  C_3 
REMARK    2  A    between atoms: C_3  and  C_4 
REMARK    3  A    between atoms: C_6  and  C_7 
REMARK    4  A    between atoms: C_7  and  N_8 
REMARK       I    between atoms: N_8  and  C_9 
REMARK    5  A    between atoms: C_9  and  C_10 
REMARK    6  A    between atoms: C_10  and  S_11 
REMARK    7  A    between atoms: S_11  and  C_12 
REMARK    8  A    between atoms: C_12  and  C_13 
REMARK       I    between atoms: C_13  and  N_14 
REMARK    9  A    between atoms: N_14  and  C_15 
ROOT
HETATM    1  S   UNL     1       4.525  28.377  51.933  1.00  0.00    -0.150 SA
ENDROOT
BRANCH   1   2
HETATM    2  C   UNL     1       4.400  29.958  52.831  1.00  0.00     0.177 C 
BRANCH   2   3
HETATM    3  C   UNL     1       4.208  29.822  54.334  1.00  0.00     0.227 C 
HETATM    4  N   UNL     1       4.022  28.553  54.816  1.00  0.00    -0.354 N 
HETATM    5  H   UNL     1       4.106  27.766  54.180  1.00  0.00     0.162 HD
HETATM    6  O   UNL     1       4.274  30.805  55.070  1.00  0.00    -0.273 OA
BRANCH   4   7
HETATM    7  C   UNL     1       3.994  28.269  56.232  1.00  0.00     0.187 C 
BRANCH   7   8
HETATM    8  C   UNL     1       5.344  27.846  56.677  1.00  0.00     0.071 A 
HETATM    9  O   UNL     1       6.204  28.827  57.083  1.00  0.00    -0.307 OA
HETATM   10  C   UNL     1       7.376  28.219  57.455  1.00  0.00     0.150 A 
HETATM   11  C   UNL     1       7.250  26.851  57.293  1.00  0.00     0.046 A 
HETATM   12  C   UNL     1       5.949  26.613  56.790  1.00  0.00     0.037 A 
BRANCH  10  13
HETATM   13  C   UNL     1       8.492  29.004  57.932  1.00  0.00     0.316 C 
HETATM   14  O   UNL     1       9.585  29.081  57.381  1.00  0.00    -0.257 OA
BRANCH  13  15
HETATM   15  O   UNL     1       8.161  29.654  59.086  1.00  0.00    -0.321 OA
HETATM   16  C   UNL     1       9.143  30.592  59.524  1.00  0.00     0.213 C 
ENDBRANCH  13  15
ENDBRANCH  10  13
ENDBRANCH   7   8
ENDBRANCH   4   7
ENDBRANCH   2   3
ENDBRANCH   1   2
BRANCH   1  17
HETATM   17  C   UNL     1       6.121  27.785  52.609  1.00  0.00     0.177 C 
BRANCH  17  18
HETATM   18  C   UNL     1       6.032  26.349  53.126  1.00  0.00     0.231 C 
HETATM   19  N   UNL     1       7.252  25.700  53.184  1.00  0.00    -0.327 N 
HETATM   20  H   UNL     1       8.057  26.279  52.961  1.00  0.00     0.169 HD
HETATM   21  O   UNL     1       4.936  25.852  53.372  1.00  0.00    -0.272 OA
BRANCH  19  22
HETATM   22  C   UNL     1       7.528  24.386  53.608  1.00  0.00     0.035 A 
HETATM   23  C   UNL     1       7.722  24.019  54.942  1.00  0.00     0.042 A 
HETATM   24  C   UNL     1       8.023  22.689  55.292  1.00  0.00    -0.024 A 
HETATM   25  C   UNL     1       8.119  21.706  54.281  1.00  0.00    -0.026 A 
HETATM   26  C   UNL     1       8.236  22.315  56.629  1.00  0.00     0.012 A 
HETATM   27  C   UNL     1       7.912  22.079  52.947  1.00  0.00     0.014 A 
HETATM   28  C   UNL     1       8.423  20.380  54.632  1.00  0.00     0.012 A 
HETATM   29  C   UNL     1       7.622  23.406  52.615  1.00  0.00     0.030 A 
HETATM   30  C   UNL     1       8.634  20.028  55.967  1.00  0.00     0.001 A 
HETATM   31  C   UNL     1       8.541  20.995  56.963  1.00  0.00     0.001 A 
ENDBRANCH  19  22
ENDBRANCH  17  18
ENDBRANCH   1  17
TORSDOF 9
ENDMDL
