MODEL 1
REMARK VINA RESULT:     -10.1      0.000      0.000
REMARK  6 active torsions:
REMARK  status: ('A' for Active; 'I' for Inactive)
REMARK    1  A    between atoms: O_2  and  C_3 
REMARK    2  A    between atoms: C_6  and  C_7 
REMARK    3  A    between atoms: C_11  and  C_12 
REMARK       I    between atoms: C_12  and  N_13 
REMARK    4  A    between atoms: N_13  and  N_14 
REMARK       I    between atoms: N_14  and  C_15 
REMARK    5  A    between atoms: C_15  and  C_16 
REMARK    6  A    between atoms: C_17  and  C_18 
ROOT
HETATM    1  C   UNL     1       9.468  29.523  57.237  1.00  0.00     0.288 C 
HETATM    2  N   UNL     1       8.384  28.789  56.814  1.00  0.00    -0.262 N 
HETATM    3  O   UNL     1      10.594  29.368  56.773  1.00  0.00    -0.264 OA
HETATM    4  H   UNL     1       7.433  28.948  57.141  1.00  0.00     0.190 HD
ENDROOT
BRANCH   1   5
HETATM    5  C   UNL     1       9.176  30.472  58.277  1.00  0.00     0.121 A 
HETATM    6  N   UNL     1       9.887  31.628  58.441  1.00  0.00    -0.272 N 
HETATM    7  N   UNL     1       9.487  32.377  59.480  1.00  0.00    -0.174 NA
HETATM    8  H   UNL     1      10.660  31.955  57.868  1.00  0.00     0.189 HD
HETATM    9  C   UNL     1       8.496  31.671  60.048  1.00  0.00     0.089 A 
HETATM   10  C   UNL     1       8.252  30.485  59.303  1.00  0.00     0.071 A 
BRANCH   9  11
HETATM   11  C   UNL     1       7.815  32.119  61.268  1.00  0.00    -0.005 A 
HETATM   12  C   UNL     1       6.455  32.456  61.248  1.00  0.00     0.016 A 
HETATM   13  C   UNL     1       5.800  32.884  62.412  1.00  0.00     0.037 A 
HETATM   14  C   UNL     1       6.500  32.987  63.612  1.00  0.00     0.068 A 
HETATM   15  C   UNL     1       7.856  32.660  63.638  1.00  0.00     0.037 A 
HETATM   16  C   UNL     1       8.510  32.230  62.479  1.00  0.00     0.016 A 
BRANCH  14  17
HETATM   17  O   UNL     1       5.990  33.391  64.814  1.00  0.00    -0.356 OA
HETATM   18  C   UNL     1       6.924  33.809  65.801  1.00  0.00     0.210 C 
ENDBRANCH  14  17
ENDBRANCH   9  11
ENDBRANCH   1   5
BRANCH   2  19
HETATM   19  N   UNL     1       8.540  27.766  55.872  1.00  0.00    -0.263 N 
HETATM   20  C   UNL     1       7.386  27.135  55.457  1.00  0.00     0.271 C 
HETATM   21  O   UNL     1       6.273  27.507  55.825  1.00  0.00    -0.266 OA
HETATM   22  H   UNL     1       9.495  27.447  55.699  1.00  0.00     0.190 HD
BRANCH  20  23
HETATM   23  C   UNL     1       7.515  25.916  54.614  1.00  0.00     0.048 A 
HETATM   24  C   UNL     1       7.646  24.606  55.108  1.00  0.00     0.063 A 
HETATM   25  C   UNL     1       7.754  23.547  54.183  1.00  0.00     0.017 A 
HETATM   26  C   UNL     1       7.759  23.784  52.808  1.00  0.00     0.001 A 
HETATM   27  C   UNL     1       7.658  25.084  52.328  1.00  0.00     0.001 A 
HETATM   28  C   UNL     1       7.540  26.144  53.226  1.00  0.00     0.018 A 
BRANCH  24  29
HETATM   29  C   UNL     1       7.697  24.304  56.580  1.00  0.00     0.418 C 
HETATM   30  F   UNL     1       6.586  24.709  57.248  1.00  0.00    -0.166 F 
HETATM   31  F   UNL     1       7.824  22.967  56.814  1.00  0.00    -0.166 F 
HETATM   32  F   UNL     1       8.748  24.889  57.219  1.00  0.00    -0.166 F 
ENDBRANCH  24  29
ENDBRANCH  20  23
ENDBRANCH   2  19
TORSDOF 6
ENDMDL
MODEL 2
REMARK VINA RESULT:      -9.9      1.719      2.230
REMARK  6 active torsions:
REMARK  status: ('A' for Active; 'I' for Inactive)
REMARK    1  A    between atoms: O_2  and  C_3 
REMARK    2  A    between atoms: C_6  and  C_7 
REMARK    3  A    between atoms: C_11  and  C_12 
REMARK       I    between atoms: C_12  and  N_13 
REMARK    4  A    between atoms: N_13  and  N_14 
REMARK       I    between atoms: N_14  and  C_15 
REMARK    5  A    between atoms: C_15  and  C_16 
REMARK    6  A    between atoms: C_17  and  C_18 
ROOT
HETATM    1  C   UNL     1       9.202  29.315  57.340  1.00  0.00     0.288 C 
HETATM    2  N   UNL     1       8.388  28.218  57.506  1.00  0.00    -0.262 N 
HETATM    3  O   UNL     1      10.030  29.393  56.436  1.00  0.00    -0.264 OA
HETATM    4  H   UNL     1       7.654  28.163  58.209  1.00  0.00     0.190 HD
ENDROOT
BRANCH   1   5
HETATM    5  C   UNL     1       9.015  30.351  58.319  1.00  0.00     0.121 A 
HETATM    6  N   UNL     1       9.786  31.478  58.356  1.00  0.00    -0.272 N 
HETATM    7  N   UNL     1       9.482  32.321  59.355  1.00  0.00    -0.174 NA
HETATM    8  H   UNL     1      10.539  31.724  57.719  1.00  0.00     0.189 HD
HETATM    9  C   UNL     1       8.493  31.710  60.028  1.00  0.00     0.089 A 
HETATM   10  C   UNL     1       8.153  30.485  59.389  1.00  0.00     0.071 A 
BRANCH   9  11
HETATM   11  C   UNL     1       7.905  32.279  61.245  1.00  0.00    -0.005 A 
HETATM   12  C   UNL     1       6.706  33.002  61.191  1.00  0.00     0.016 A 
HETATM   13  C   UNL     1       6.140  33.548  62.353  1.00  0.00     0.037 A 
HETATM   14  C   UNL     1       6.771  33.383  63.584  1.00  0.00     0.068 A 
HETATM   15  C   UNL     1       7.969  32.670  63.644  1.00  0.00     0.037 A 
HETATM   16  C   UNL     1       8.533  32.123  62.487  1.00  0.00     0.016 A 
BRANCH  14  17
HETATM   17  O   UNL     1       6.334  33.862  64.788  1.00  0.00    -0.356 OA
HETATM   18  C   UNL     1       4.993  33.559  65.151  1.00  0.00     0.210 C 
ENDBRANCH  14  17
ENDBRANCH   9  11
ENDBRANCH   1   5
BRANCH   2  19
HETATM   19  N   UNL     1       8.526  27.096  56.681  1.00  0.00    -0.263 N 
HETATM   20  C   UNL     1       7.358  26.480  56.286  1.00  0.00     0.271 C 
HETATM   21  O   UNL     1       6.252  26.939  56.569  1.00  0.00    -0.266 OA
HETATM   22  H   UNL     1       9.469  26.717  56.580  1.00  0.00     0.190 HD
BRANCH  20  23
HETATM   23  C   UNL     1       7.455  25.175  55.578  1.00  0.00     0.048 A 
HETATM   24  C   UNL     1       7.412  25.011  54.182  1.00  0.00     0.063 A 
HETATM   25  C   UNL     1       7.522  23.708  53.655  1.00  0.00     0.017 A 
HETATM   26  C   UNL     1       7.645  22.598  54.490  1.00  0.00     0.001 A 
HETATM   27  C   UNL     1       7.658  22.765  55.869  1.00  0.00     0.001 A 
HETATM   28  C   UNL     1       7.561  24.045  56.410  1.00  0.00     0.018 A 
BRANCH  24  29
HETATM   29  C   UNL     1       7.230  26.171  53.243  1.00  0.00     0.418 C 
HETATM   30  F   UNL     1       6.027  26.786  53.379  1.00  0.00    -0.166 F 
HETATM   31  F   UNL     1       8.180  27.129  53.438  1.00  0.00    -0.166 F 
HETATM   32  F   UNL     1       7.324  25.826  51.928  1.00  0.00    -0.166 F 
ENDBRANCH  24  29
ENDBRANCH  20  23
ENDBRANCH   2  19
TORSDOF 6
ENDMDL
MODEL 3
REMARK VINA RESULT:      -9.9      2.356      3.438
REMARK  6 active torsions:
REMARK  status: ('A' for Active; 'I' for Inactive)
REMARK    1  A    between atoms: O_2  and  C_3 
REMARK    2  A    between atoms: C_6  and  C_7 
REMARK    3  A    between atoms: C_11  and  C_12 
REMARK       I    between atoms: C_12  and  N_13 
REMARK    4  A    between atoms: N_13  and  N_14 
REMARK       I    between atoms: N_14  and  C_15 
REMARK    5  A    between atoms: C_15  and  C_16 
REMARK    6  A    between atoms: C_17  and  C_18 
ROOT
HETATM    1  C   UNL     1       7.661  27.144  56.245  1.00  0.00     0.288 C 
HETATM    2  N   UNL     1       7.554  25.928  56.881  1.00  0.00    -0.262 N 
HETATM    3  O   UNL     1       7.472  27.279  55.039  1.00  0.00    -0.264 OA
HETATM    4  H   UNL     1       7.645  25.809  57.888  1.00  0.00     0.190 HD
ENDROOT
BRANCH   1   5
HETATM    5  C   UNL     1       8.028  28.237  57.104  1.00  0.00     0.121 A 
HETATM    6  N   UNL     1       9.263  28.821  57.068  1.00  0.00    -0.272 N 
HETATM    7  N   UNL     1       9.430  29.809  57.961  1.00  0.00    -0.174 NA
HETATM    8  H   UNL     1      10.033  28.582  56.451  1.00  0.00     0.189 HD
HETATM    9  C   UNL     1       8.272  29.857  58.639  1.00  0.00     0.089 A 
HETATM   10  C   UNL     1       7.357  28.905  58.109  1.00  0.00     0.071 A 
BRANCH   9  11
HETATM   11  C   UNL     1       8.058  30.777  59.761  1.00  0.00    -0.005 A 
HETATM   12  C   UNL     1       8.901  30.751  60.880  1.00  0.00     0.016 A 
HETATM   13  C   UNL     1       8.700  31.630  61.955  1.00  0.00     0.037 A 
HETATM   14  C   UNL     1       7.648  32.543  61.927  1.00  0.00     0.068 A 
HETATM   15  C   UNL     1       6.800  32.569  60.820  1.00  0.00     0.037 A 
HETATM   16  C   UNL     1       7.001  31.696  59.746  1.00  0.00     0.016 A 
BRANCH  14  17
HETATM   17  O   UNL     1       7.337  33.449  62.902  1.00  0.00    -0.356 OA
HETATM   18  C   UNL     1       7.632  33.078  64.242  1.00  0.00     0.210 C 
ENDBRANCH  14  17
ENDBRANCH   9  11
ENDBRANCH   1   5
BRANCH   2  19
HETATM   19  N   UNL     1       7.294  24.763  56.151  1.00  0.00    -0.263 N 
HETATM   20  C   UNL     1       8.370  23.931  55.923  1.00  0.00     0.271 C 
HETATM   21  O   UNL     1       9.478  24.154  56.407  1.00  0.00    -0.266 OA
HETATM   22  H   UNL     1       6.382  24.704  55.697  1.00  0.00     0.190 HD
BRANCH  20  23
HETATM   23  C   UNL     1       8.189  22.788  54.988  1.00  0.00     0.048 A 
HETATM   24  C   UNL     1       7.862  22.906  53.626  1.00  0.00     0.063 A 
HETATM   25  C   UNL     1       7.728  21.729  52.862  1.00  0.00     0.017 A 
HETATM   26  C   UNL     1       7.889  20.469  53.440  1.00  0.00     0.001 A 
HETATM   27  C   UNL     1       8.184  20.360  54.794  1.00  0.00     0.001 A 
HETATM   28  C   UNL     1       8.331  21.512  55.563  1.00  0.00     0.018 A 
BRANCH  24  29
HETATM   29  C   UNL     1       7.629  24.238  52.968  1.00  0.00     0.418 C 
HETATM   30  F   UNL     1       8.532  25.183  53.339  1.00  0.00    -0.166 F 
HETATM   31  F   UNL     1       7.699  24.147  51.610  1.00  0.00    -0.166 F 
HETATM   32  F   UNL     1       6.404  24.771  53.236  1.00  0.00    -0.166 F 
ENDBRANCH  24  29
ENDBRANCH  20  23
ENDBRANCH   2  19
TORSDOF 6
ENDMDL
MODEL 4
REMARK VINA RESULT:      -9.4      1.676      2.543
REMARK  6 active torsions:
REMARK  status: ('A' for Active; 'I' for Inactive)
REMARK    1  A    between atoms: O_2  and  C_3 
REMARK    2  A    between atoms: C_6  and  C_7 
REMARK    3  A    between atoms: C_11  and  C_12 
REMARK       I    between atoms: C_12  and  N_13 
REMARK    4  A    between atoms: N_13  and  N_14 
REMARK       I    between atoms: N_14  and  C_15 
REMARK    5  A    between atoms: C_15  and  C_16 
REMARK    6  A    between atoms: C_17  and  C_18 
ROOT
HETATM    1  C   UNL     1       8.204  30.580  59.159  1.00  0.00     0.288 C 
HETATM    2  N   UNL     1       7.855  29.271  58.918  1.00  0.00    -0.262 N 
HETATM    3  O   UNL     1       8.635  31.322  58.280  1.00  0.00    -0.264 OA
HETATM    4  H   UNL     1       7.437  28.661  59.618  1.00  0.00     0.190 HD
ENDROOT
BRANCH   1   5
HETATM    5  C   UNL     1       8.038  31.000  60.524  1.00  0.00     0.121 A 
HETATM    6  N   UNL     1       8.706  30.414  61.562  1.00  0.00    -0.272 N 
HETATM    7  N   UNL     1       8.405  30.923  62.767  1.00  0.00    -0.174 NA
HETATM    8  H   UNL     1       9.383  29.658  61.504  1.00  0.00     0.189 HD
HETATM    9  C   UNL     1       7.474  31.858  62.520  1.00  0.00     0.089 A 
HETATM   10  C   UNL     1       7.240  31.956  61.120  1.00  0.00     0.071 A 
BRANCH   9  11
HETATM   11  C   UNL     1       6.827  32.622  63.592  1.00  0.00    -0.005 A 
HETATM   12  C   UNL     1       7.589  33.245  64.589  1.00  0.00     0.016 A 
HETATM   13  C   UNL     1       6.975  33.976  65.616  1.00  0.00     0.037 A 
HETATM   14  C   UNL     1       5.586  34.089  65.663  1.00  0.00     0.068 A 
HETATM   15  C   UNL     1       4.821  33.466  64.677  1.00  0.00     0.037 A 
HETATM   16  C   UNL     1       5.432  32.739  63.651  1.00  0.00     0.016 A 
BRANCH  14  17
HETATM   17  O   UNL     1       4.861  34.765  66.603  1.00  0.00    -0.356 OA
HETATM   18  C   UNL     1       5.322  34.692  67.945  1.00  0.00     0.210 C 
ENDBRANCH  14  17
ENDBRANCH   9  11
ENDBRANCH   1   5
BRANCH   2  19
HETATM   19  N   UNL     1       8.051  28.702  57.654  1.00  0.00    -0.263 N 
HETATM   20  C   UNL     1       6.942  28.142  57.057  1.00  0.00     0.271 C 
HETATM   21  O   UNL     1       5.824  28.215  57.564  1.00  0.00    -0.266 OA
HETATM   22  H   UNL     1       9.020  28.586  57.351  1.00  0.00     0.190 HD
BRANCH  20  23
HETATM   23  C   UNL     1       7.137  27.353  55.811  1.00  0.00     0.048 A 
HETATM   24  C   UNL     1       7.204  25.949  55.749  1.00  0.00     0.063 A 
HETATM   25  C   UNL     1       7.388  25.340  54.491  1.00  0.00     0.017 A 
HETATM   26  C   UNL     1       7.528  26.103  53.331  1.00  0.00     0.001 A 
HETATM   27  C   UNL     1       7.490  27.490  53.404  1.00  0.00     0.001 A 
HETATM   28  C   UNL     1       7.298  28.111  54.637  1.00  0.00     0.018 A 
BRANCH  24  29
HETATM   29  C   UNL     1       7.109  25.086  56.976  1.00  0.00     0.418 C 
HETATM   30  F   UNL     1       5.879  25.107  57.552  1.00  0.00    -0.166 F 
HETATM   31  F   UNL     1       7.382  23.781  56.694  1.00  0.00    -0.166 F 
HETATM   32  F   UNL     1       7.984  25.439  57.959  1.00  0.00    -0.166 F 
ENDBRANCH  24  29
ENDBRANCH  20  23
ENDBRANCH   2  19
TORSDOF 6
ENDMDL
MODEL 5
REMARK VINA RESULT:      -9.3      3.516     10.196
REMARK  6 active torsions:
REMARK  status: ('A' for Active; 'I' for Inactive)
REMARK    1  A    between atoms: O_2  and  C_3 
REMARK    2  A    between atoms: C_6  and  C_7 
REMARK    3  A    between atoms: C_11  and  C_12 
REMARK       I    between atoms: C_12  and  N_13 
REMARK    4  A    between atoms: N_13  and  N_14 
REMARK       I    between atoms: N_14  and  C_15 
REMARK    5  A    between atoms: C_15  and  C_16 
REMARK    6  A    between atoms: C_17  and  C_18 
ROOT
HETATM    1  C   UNL     1       5.786  29.561  56.953  1.00  0.00     0.288 C 
HETATM    2  N   UNL     1       6.554  30.022  57.998  1.00  0.00    -0.262 N 
HETATM    3  O   UNL     1       4.624  29.919  56.777  1.00  0.00    -0.264 OA
HETATM    4  H   UNL     1       7.536  29.786  58.122  1.00  0.00     0.190 HD
ENDROOT
BRANCH   1   5
HETATM    5  C   UNL     1       6.449  28.616  56.096  1.00  0.00     0.121 A 
HETATM    6  N   UNL     1       7.317  28.996  55.112  1.00  0.00    -0.272 N 
HETATM    7  N   UNL     1       7.819  27.976  54.397  1.00  0.00    -0.174 NA
HETATM    8  H   UNL     1       7.604  29.943  54.883  1.00  0.00     0.189 HD
HETATM    9  C   UNL     1       7.231  26.881  54.906  1.00  0.00     0.089 A 
HETATM   10  C   UNL     1       6.388  27.241  55.994  1.00  0.00     0.071 A 
BRANCH   9  11
HETATM   11  C   UNL     1       7.466  25.541  54.359  1.00  0.00    -0.005 A 
HETATM   12  C   UNL     1       7.634  25.348  52.981  1.00  0.00     0.016 A 
HETATM   13  C   UNL     1       7.859  24.068  52.454  1.00  0.00     0.037 A 
HETATM   14  C   UNL     1       7.912  22.961  53.299  1.00  0.00     0.068 A 
HETATM   15  C   UNL     1       7.739  23.145  54.670  1.00  0.00     0.037 A 
HETATM   16  C   UNL     1       7.517  24.420  55.198  1.00  0.00     0.016 A 
BRANCH  14  17
HETATM   17  O   UNL     1       8.120  21.664  52.920  1.00  0.00    -0.356 OA
HETATM   18  C   UNL     1       7.986  20.671  53.929  1.00  0.00     0.210 C 
ENDBRANCH  14  17
ENDBRANCH   9  11
ENDBRANCH   1   5
BRANCH   2  19
HETATM   19  N   UNL     1       6.006  30.876  58.962  1.00  0.00    -0.263 N 
HETATM   20  C   UNL     1       6.814  31.907  59.394  1.00  0.00     0.271 C 
HETATM   21  O   UNL     1       7.919  32.119  58.899  1.00  0.00    -0.266 OA
HETATM   22  H   UNL     1       5.133  30.574  59.397  1.00  0.00     0.190 HD
BRANCH  20  23
HETATM   23  C   UNL     1       6.358  32.717  60.555  1.00  0.00     0.048 A 
HETATM   24  C   UNL     1       6.955  32.708  61.828  1.00  0.00     0.063 A 
HETATM   25  C   UNL     1       6.412  33.537  62.832  1.00  0.00     0.017 A 
HETATM   26  C   UNL     1       5.293  34.333  62.586  1.00  0.00     0.001 A 
HETATM   27  C   UNL     1       4.691  34.315  61.333  1.00  0.00     0.001 A 
HETATM   28  C   UNL     1       5.218  33.511  60.326  1.00  0.00     0.018 A 
BRANCH  24  29
HETATM   29  C   UNL     1       8.131  31.831  62.157  1.00  0.00     0.418 C 
HETATM   30  F   UNL     1       8.002  30.564  61.686  1.00  0.00    -0.166 F 
HETATM   31  F   UNL     1       9.287  32.324  61.631  1.00  0.00    -0.166 F 
HETATM   32  F   UNL     1       8.361  31.708  63.494  1.00  0.00    -0.166 F 
ENDBRANCH  24  29
ENDBRANCH  20  23
ENDBRANCH   2  19
TORSDOF 6
ENDMDL
MODEL 6
REMARK VINA RESULT:      -9.0      6.905     11.842
REMARK  6 active torsions:
REMARK  status: ('A' for Active; 'I' for Inactive)
REMARK    1  A    between atoms: O_2  and  C_3 
REMARK    2  A    between atoms: C_6  and  C_7 
REMARK    3  A    between atoms: C_11  and  C_12 
REMARK       I    between atoms: C_12  and  N_13 
REMARK    4  A    between atoms: N_13  and  N_14 
REMARK       I    between atoms: N_14  and  C_15 
REMARK    5  A    between atoms: C_15  and  C_16 
REMARK    6  A    between atoms: C_17  and  C_18 
ROOT
HETATM    1  C   UNL     1       5.364  27.204  50.623  1.00  0.00     0.288 C 
HETATM    2  N   UNL     1       5.885  25.960  50.897  1.00  0.00    -0.262 N 
HETATM    3  O   UNL     1       5.582  28.184  51.332  1.00  0.00    -0.264 OA
HETATM    4  H   UNL     1       5.767  25.154  50.287  1.00  0.00     0.190 HD
ENDROOT
BRANCH   1   5
HETATM    5  C   UNL     1       4.533  27.259  49.451  1.00  0.00     0.121 A 
HETATM    6  N   UNL     1       4.930  26.762  48.242  1.00  0.00    -0.272 N 
HETATM    7  N   UNL     1       4.031  26.926  47.258  1.00  0.00    -0.174 NA
HETATM    8  H   UNL     1       5.810  26.300  48.031  1.00  0.00     0.189 HD
HETATM    9  C   UNL     1       3.014  27.589  47.831  1.00  0.00     0.089 A 
HETATM   10  C   UNL     1       3.280  27.789  49.214  1.00  0.00     0.071 A 
BRANCH   9  11
HETATM   11  C   UNL     1       1.836  28.022  47.074  1.00  0.00    -0.005 A 
HETATM   12  C   UNL     1       1.592  29.383  46.843  1.00  0.00     0.016 A 
HETATM   13  C   UNL     1       0.466  29.802  46.119  1.00  0.00     0.037 A 
HETATM   14  C   UNL     1      -0.436  28.863  45.620  1.00  0.00     0.068 A 
HETATM   15  C   UNL     1      -0.203  27.508  45.852  1.00  0.00     0.037 A 
HETATM   16  C   UNL     1       0.920  27.089  46.571  1.00  0.00     0.016 A 
BRANCH  14  17
HETATM   17  O   UNL     1      -1.569  29.131  44.904  1.00  0.00    -0.356 OA
HETATM   18  C   UNL     1      -2.502  30.029  45.490  1.00  0.00     0.210 C 
ENDBRANCH  14  17
ENDBRANCH   9  11
ENDBRANCH   1   5
BRANCH   2  19
HETATM   19  N   UNL     1       6.636  25.742  52.057  1.00  0.00    -0.263 N 
HETATM   20  C   UNL     1       6.040  24.978  53.038  1.00  0.00     0.271 C 
HETATM   21  O   UNL     1       4.945  24.444  52.869  1.00  0.00    -0.266 OA
HETATM   22  H   UNL     1       7.483  26.303  52.164  1.00  0.00     0.190 HD
BRANCH  20  23
HETATM   23  C   UNL     1       6.711  24.885  54.361  1.00  0.00     0.048 A 
HETATM   24  C   UNL     1       7.723  23.964  54.688  1.00  0.00     0.063 A 
HETATM   25  C   UNL     1       8.269  23.999  55.987  1.00  0.00     0.017 A 
HETATM   26  C   UNL     1       7.807  24.904  56.943  1.00  0.00     0.001 A 
HETATM   27  C   UNL     1       6.787  25.792  56.622  1.00  0.00     0.001 A 
HETATM   28  C   UNL     1       6.241  25.780  55.340  1.00  0.00     0.018 A 
BRANCH  24  29
HETATM   29  C   UNL     1       8.220  22.937  53.710  1.00  0.00     0.418 C 
HETATM   30  F   UNL     1       9.317  22.267  54.147  1.00  0.00    -0.166 F 
HETATM   31  F   UNL     1       7.271  21.995  53.446  1.00  0.00    -0.166 F 
HETATM   32  F   UNL     1       8.563  23.459  52.499  1.00  0.00    -0.166 F 
ENDBRANCH  24  29
ENDBRANCH  20  23
ENDBRANCH   2  19
TORSDOF 6
ENDMDL
MODEL 7
REMARK VINA RESULT:      -8.9      2.231      2.933
REMARK  6 active torsions:
REMARK  status: ('A' for Active; 'I' for Inactive)
REMARK    1  A    between atoms: O_2  and  C_3 
REMARK    2  A    between atoms: C_6  and  C_7 
REMARK    3  A    between atoms: C_11  and  C_12 
REMARK       I    between atoms: C_12  and  N_13 
REMARK    4  A    between atoms: N_13  and  N_14 
REMARK       I    between atoms: N_14  and  C_15 
REMARK    5  A    between atoms: C_15  and  C_16 
REMARK    6  A    between atoms: C_17  and  C_18 
ROOT
HETATM    1  C   UNL     1       8.724  29.885  58.557  1.00  0.00     0.288 C 
HETATM    2  N   UNL     1       7.891  28.810  58.347  1.00  0.00    -0.262 N 
HETATM    3  O   UNL     1       9.580  30.228  57.745  1.00  0.00    -0.264 OA
HETATM    4  H   UNL     1       7.136  28.552  58.977  1.00  0.00     0.190 HD
ENDROOT
BRANCH   1   5
HETATM    5  C   UNL     1       8.521  30.562  59.809  1.00  0.00     0.121 A 
HETATM    6  N   UNL     1       9.061  30.119  60.983  1.00  0.00    -0.272 N 
HETATM    7  N   UNL     1       8.742  30.865  62.052  1.00  0.00    -0.174 NA
HETATM    8  H   UNL     1       9.658  29.306  61.112  1.00  0.00     0.189 HD
HETATM    9  C   UNL     1       7.929  31.820  61.571  1.00  0.00     0.089 A 
HETATM   10  C   UNL     1       7.792  31.680  60.163  1.00  0.00     0.071 A 
BRANCH   9  11
HETATM   11  C   UNL     1       7.301  32.822  62.438  1.00  0.00    -0.005 A 
HETATM   12  C   UNL     1       7.642  32.912  63.795  1.00  0.00     0.016 A 
HETATM   13  C   UNL     1       7.044  33.869  64.627  1.00  0.00     0.037 A 
HETATM   14  C   UNL     1       6.091  34.748  64.114  1.00  0.00     0.068 A 
HETATM   15  C   UNL     1       5.742  34.659  62.766  1.00  0.00     0.037 A 
HETATM   16  C   UNL     1       6.340  33.707  61.934  1.00  0.00     0.016 A 
BRANCH  14  17
HETATM   17  O   UNL     1       5.431  35.722  64.809  1.00  0.00    -0.356 OA
HETATM   18  C   UNL     1       4.678  35.306  65.941  1.00  0.00     0.210 C 
ENDBRANCH  14  17
ENDBRANCH   9  11
ENDBRANCH   1   5
BRANCH   2  19
HETATM   19  N   UNL     1       8.039  28.005  57.212  1.00  0.00    -0.263 N 
HETATM   20  C   UNL     1       6.923  27.302  56.811  1.00  0.00     0.271 C 
HETATM   21  O   UNL     1       5.834  27.441  57.365  1.00  0.00    -0.266 OA
HETATM   22  H   UNL     1       8.993  27.861  56.876  1.00  0.00     0.190 HD
BRANCH  20  23
HETATM   23  C   UNL     1       7.081  26.284  55.738  1.00  0.00     0.048 A 
HETATM   24  C   UNL     1       7.176  26.571  54.364  1.00  0.00     0.063 A 
HETATM   25  C   UNL     1       7.328  25.497  53.463  1.00  0.00     0.017 A 
HETATM   26  C   UNL     1       7.360  24.176  53.909  1.00  0.00     0.001 A 
HETATM   27  C   UNL     1       7.237  23.899  55.266  1.00  0.00     0.001 A 
HETATM   28  C   UNL     1       7.096  24.947  56.173  1.00  0.00     0.018 A 
BRANCH  24  29
HETATM   29  C   UNL     1       7.096  27.974  53.829  1.00  0.00     0.418 C 
HETATM   30  F   UNL     1       8.253  28.670  53.978  1.00  0.00    -0.166 F 
HETATM   31  F   UNL     1       6.804  27.987  52.498  1.00  0.00    -0.166 F 
HETATM   32  F   UNL     1       6.130  28.729  54.423  1.00  0.00    -0.166 F 
ENDBRANCH  24  29
ENDBRANCH  20  23
ENDBRANCH   2  19
TORSDOF 6
ENDMDL
MODEL 8
REMARK VINA RESULT:      -8.8      7.229     11.560
REMARK  6 active torsions:
REMARK  status: ('A' for Active; 'I' for Inactive)
REMARK    1  A    between atoms: O_2  and  C_3 
REMARK    2  A    between atoms: C_6  and  C_7 
REMARK    3  A    between atoms: C_11  and  C_12 
REMARK       I    between atoms: C_12  and  N_13 
REMARK    4  A    between atoms: N_13  and  N_14 
REMARK       I    between atoms: N_14  and  C_15 
REMARK    5  A    between atoms: C_15  and  C_16 
REMARK    6  A    between atoms: C_17  and  C_18 
ROOT
HETATM    1  C   UNL     1       5.269  27.551  51.001  1.00  0.00     0.288 C 
HETATM    2  N   UNL     1       5.652  26.275  50.654  1.00  0.00    -0.262 N 
HETATM    3  O   UNL     1       5.778  28.164  51.936  1.00  0.00    -0.264 OA
HETATM    4  H   UNL     1       5.287  25.778  49.845  1.00  0.00     0.190 HD
ENDROOT
BRANCH   1   5
HETATM    5  C   UNL     1       4.215  28.098  50.191  1.00  0.00     0.121 A 
HETATM    6  N   UNL     1       3.649  29.316  50.442  1.00  0.00    -0.272 N 
HETATM    7  N   UNL     1       2.662  29.650  49.596  1.00  0.00    -0.174 NA
HETATM    8  H   UNL     1       3.899  29.965  51.184  1.00  0.00     0.189 HD
HETATM    9  C   UNL     1       2.547  28.594  48.773  1.00  0.00     0.089 A 
HETATM   10  C   UNL     1       3.525  27.614  49.098  1.00  0.00     0.071 A 
BRANCH   9  11
HETATM   11  C   UNL     1       1.527  28.529  47.722  1.00  0.00    -0.005 A 
HETATM   12  C   UNL     1       1.166  27.302  47.148  1.00  0.00     0.016 A 
HETATM   13  C   UNL     1       0.191  27.234  46.142  1.00  0.00     0.037 A 
HETATM   14  C   UNL     1      -0.433  28.396  45.692  1.00  0.00     0.068 A 
HETATM   15  C   UNL     1      -0.074  29.621  46.253  1.00  0.00     0.037 A 
HETATM   16  C   UNL     1       0.896  29.690  47.258  1.00  0.00     0.016 A 
BRANCH  14  17
HETATM   17  O   UNL     1      -1.393  28.475  44.722  1.00  0.00    -0.356 OA
HETATM   18  C   UNL     1      -2.110  29.699  44.625  1.00  0.00     0.210 C 
ENDBRANCH  14  17
ENDBRANCH   9  11
ENDBRANCH   1   5
BRANCH   2  19
HETATM   19  N   UNL     1       6.604  25.586  51.414  1.00  0.00    -0.263 N 
HETATM   20  C   UNL     1       6.113  24.707  52.357  1.00  0.00     0.271 C 
HETATM   21  O   UNL     1       4.910  24.474  52.465  1.00  0.00    -0.266 OA
HETATM   22  H   UNL     1       7.569  25.910  51.340  1.00  0.00     0.190 HD
BRANCH  20  23
HETATM   23  C   UNL     1       7.071  24.102  53.320  1.00  0.00     0.048 A 
HETATM   24  C   UNL     1       7.456  24.681  54.543  1.00  0.00     0.063 A 
HETATM   25  C   UNL     1       8.373  23.984  55.357  1.00  0.00     0.017 A 
HETATM   26  C   UNL     1       8.912  22.762  54.957  1.00  0.00     0.001 A 
HETATM   27  C   UNL     1       8.549  22.210  53.734  1.00  0.00     0.001 A 
HETATM   28  C   UNL     1       7.636  22.878  52.920  1.00  0.00     0.018 A 
BRANCH  24  29
HETATM   29  C   UNL     1       6.942  26.019  54.996  1.00  0.00     0.418 C 
HETATM   30  F   UNL     1       5.586  26.104  54.984  1.00  0.00    -0.166 F 
HETATM   31  F   UNL     1       7.337  26.305  56.268  1.00  0.00    -0.166 F 
HETATM   32  F   UNL     1       7.384  27.058  54.233  1.00  0.00    -0.166 F 
ENDBRANCH  24  29
ENDBRANCH  20  23
ENDBRANCH   2  19
TORSDOF 6
ENDMDL
MODEL 9
REMARK VINA RESULT:      -8.8      2.427      3.194
REMARK  6 active torsions:
REMARK  status: ('A' for Active; 'I' for Inactive)
REMARK    1  A    between atoms: O_2  and  C_3 
REMARK    2  A    between atoms: C_6  and  C_7 
REMARK    3  A    between atoms: C_11  and  C_12 
REMARK       I    between atoms: C_12  and  N_13 
REMARK    4  A    between atoms: N_13  and  N_14 
REMARK       I    between atoms: N_14  and  C_15 
REMARK    5  A    between atoms: C_15  and  C_16 
REMARK    6  A    between atoms: C_17  and  C_18 
ROOT
HETATM    1  C   UNL     1       8.212  28.662  56.817  1.00  0.00     0.288 C 
HETATM    2  N   UNL     1       7.964  27.379  57.248  1.00  0.00    -0.262 N 
HETATM    3  O   UNL     1       8.635  28.912  55.691  1.00  0.00    -0.264 OA
HETATM    4  H   UNL     1       7.553  27.158  58.153  1.00  0.00     0.190 HD
ENDROOT
BRANCH   1   5
HETATM    5  C   UNL     1       7.950  29.682  57.796  1.00  0.00     0.121 A 
HETATM    6  N   UNL     1       8.786  29.925  58.849  1.00  0.00    -0.272 N 
HETATM    7  N   UNL     1       8.365  30.898  59.673  1.00  0.00    -0.174 NA
HETATM    8  H   UNL     1       9.662  29.453  59.054  1.00  0.00     0.189 HD
HETATM    9  C   UNL     1       7.185  31.289  59.164  1.00  0.00     0.089 A 
HETATM   10  C   UNL     1       6.906  30.569  57.969  1.00  0.00     0.071 A 
BRANCH   9  11
HETATM   11  C   UNL     1       6.353  32.310  59.810  1.00  0.00    -0.005 A 
HETATM   12  C   UNL     1       6.636  32.746  61.111  1.00  0.00     0.016 A 
HETATM   13  C   UNL     1       5.843  33.723  61.733  1.00  0.00     0.037 A 
HETATM   14  C   UNL     1       4.752  34.271  61.062  1.00  0.00     0.068 A 
HETATM   15  C   UNL     1       4.461  33.836  59.769  1.00  0.00     0.037 A 
HETATM   16  C   UNL     1       5.252  32.865  59.147  1.00  0.00     0.016 A 
BRANCH  14  17
HETATM   17  O   UNL     1       3.899  35.223  61.547  1.00  0.00    -0.356 OA
HETATM   18  C   UNL     1       2.641  34.772  62.031  1.00  0.00     0.210 C 
ENDBRANCH  14  17
ENDBRANCH   9  11
ENDBRANCH   1   5
BRANCH   2  19
HETATM   19  N   UNL     1       8.261  26.283  56.430  1.00  0.00    -0.263 N 
HETATM   20  C   UNL     1       7.187  25.652  55.839  1.00  0.00     0.271 C 
HETATM   21  O   UNL     1       6.040  26.080  55.951  1.00  0.00    -0.266 OA
HETATM   22  H   UNL     1       9.218  25.927  56.474  1.00  0.00     0.190 HD
BRANCH  20  23
HETATM   23  C   UNL     1       7.430  24.369  55.127  1.00  0.00     0.048 A 
HETATM   24  C   UNL     1       7.532  24.229  53.731  1.00  0.00     0.063 A 
HETATM   25  C   UNL     1       7.770  22.945  53.200  1.00  0.00     0.017 A 
HETATM   26  C   UNL     1       7.879  21.828  54.028  1.00  0.00     0.001 A 
HETATM   27  C   UNL     1       7.749  21.969  55.405  1.00  0.00     0.001 A 
HETATM   28  C   UNL     1       7.524  23.231  55.950  1.00  0.00     0.018 A 
BRANCH  24  29
HETATM   29  C   UNL     1       7.372  25.394  52.794  1.00  0.00     0.418 C 
HETATM   30  F   UNL     1       7.670  25.088  51.505  1.00  0.00    -0.166 F 
HETATM   31  F   UNL     1       6.094  25.867  52.795  1.00  0.00    -0.166 F 
HETATM   32  F   UNL     1       8.158  26.461  53.113  1.00  0.00    -0.166 F 
ENDBRANCH  24  29
ENDBRANCH  20  23
ENDBRANCH   2  19
TORSDOF 6
ENDMDL
MODEL 10
REMARK VINA RESULT:      -8.7      4.427     10.322
REMARK  6 active torsions:
REMARK  status: ('A' for Active; 'I' for Inactive)
REMARK    1  A    between atoms: O_2  and  C_3 
REMARK    2  A    between atoms: C_6  and  C_7 
REMARK    3  A    between atoms: C_11  and  C_12 
REMARK       I    between atoms: C_12  and  N_13 
REMARK    4  A    between atoms: N_13  and  N_14 
REMARK       I    between atoms: N_14  and  C_15 
REMARK    5  A    between atoms: C_15  and  C_16 
REMARK    6  A    between atoms: C_17  and  C_18 
ROOT
HETATM    1  C   UNL     1       6.447  31.375  58.543  1.00  0.00     0.288 C 
HETATM    2  N   UNL     1       6.821  31.425  59.867  1.00  0.00    -0.262 N 
HETATM    3  O   UNL     1       6.172  32.382  57.895  1.00  0.00    -0.264 OA
HETATM    4  H   UNL     1       7.113  30.609  60.400  1.00  0.00     0.190 HD
ENDROOT
BRANCH   1   5
HETATM    5  C   UNL     1       6.390  30.050  57.988  1.00  0.00     0.121 A 
HETATM    6  N   UNL     1       5.211  29.422  57.700  1.00  0.00    -0.272 N 
HETATM    7  N   UNL     1       5.354  28.179  57.213  1.00  0.00    -0.174 NA
HETATM    8  H   UNL     1       4.274  29.797  57.819  1.00  0.00     0.189 HD
HETATM    9  C   UNL     1       6.680  27.964  57.212  1.00  0.00     0.089 A 
HETATM   10  C   UNL     1       7.363  29.127  57.663  1.00  0.00     0.071 A 
BRANCH   9  11
HETATM   11  C   UNL     1       7.265  26.684  56.801  1.00  0.00    -0.005 A 
HETATM   12  C   UNL     1       7.095  26.204  55.495  1.00  0.00     0.016 A 
HETATM   13  C   UNL     1       7.652  24.980  55.097  1.00  0.00     0.037 A 
HETATM   14  C   UNL     1       8.384  24.215  56.004  1.00  0.00     0.068 A 
HETATM   15  C   UNL     1       8.552  24.684  57.307  1.00  0.00     0.037 A 
HETATM   16  C   UNL     1       7.999  25.905  57.704  1.00  0.00     0.016 A 
BRANCH  14  17
HETATM   17  O   UNL     1       8.977  23.010  55.752  1.00  0.00    -0.356 OA
HETATM   18  C   UNL     1       8.432  21.876  56.413  1.00  0.00     0.210 C 
ENDBRANCH  14  17
ENDBRANCH   9  11
ENDBRANCH   1   5
BRANCH   2  19
HETATM   19  N   UNL     1       6.830  32.641  60.559  1.00  0.00    -0.263 N 
HETATM   20  C   UNL     1       5.821  32.828  61.480  1.00  0.00     0.271 C 
HETATM   21  O   UNL     1       5.009  31.942  61.744  1.00  0.00    -0.266 OA
HETATM   22  H   UNL     1       7.466  33.360  60.211  1.00  0.00     0.190 HD
BRANCH  20  23
HETATM   23  C   UNL     1       5.670  34.174  62.094  1.00  0.00     0.048 A 
HETATM   24  C   UNL     1       6.226  34.565  63.326  1.00  0.00     0.063 A 
HETATM   25  C   UNL     1       6.000  35.881  63.778  1.00  0.00     0.017 A 
HETATM   26  C   UNL     1       5.223  36.775  63.042  1.00  0.00     0.001 A 
HETATM   27  C   UNL     1       4.653  36.373  61.840  1.00  0.00     0.001 A 
HETATM   28  C   UNL     1       4.873  35.080  61.371  1.00  0.00     0.018 A 
BRANCH  24  29
HETATM   29  C   UNL     1       7.029  33.622  64.179  1.00  0.00     0.418 C 
HETATM   30  F   UNL     1       6.308  32.563  64.630  1.00  0.00    -0.166 F 
HETATM   31  F   UNL     1       8.090  33.107  63.497  1.00  0.00    -0.166 F 
HETATM   32  F   UNL     1       7.558  34.209  65.289  1.00  0.00    -0.166 F 
ENDBRANCH  24  29
ENDBRANCH  20  23
ENDBRANCH   2  19
TORSDOF 6
ENDMDL
