MODEL 1
REMARK VINA RESULT:     -10.8      0.000      0.000
REMARK  5 active torsions:
REMARK  status: ('A' for Active; 'I' for Inactive)
REMARK    1  A    between atoms: C_7  and  C_8 
REMARK    2  A    between atoms: C_10  and  N_11 
REMARK       I    between atoms: N_11  and  C_12 
REMARK    3  A    between atoms: C_12  and  C_13 
REMARK    4  A    between atoms: C_15  and  O_16 
REMARK    5  A    between atoms: C_19  and  O_20 
ROOT
HETATM    1  C   UNL     1       8.832  30.677  58.722  1.00  0.00     0.019 A 
HETATM    2  C   UNL     1       8.224  29.581  58.087  1.00  0.00     0.045 A 
HETATM    3  C   UNL     1       8.889  28.838  57.105  1.00  0.00     0.035 A 
HETATM    4  C   UNL     1      10.190  29.204  56.754  1.00  0.00     0.029 A 
HETATM    5  C   UNL     1      10.808  30.301  57.364  1.00  0.00     0.003 A 
HETATM    6  C   UNL     1      10.132  31.032  58.343  1.00  0.00     0.016 A 
ENDROOT
BRANCH   3   7
HETATM    7  N   UNL     1       8.329  27.693  56.489  1.00  0.00    -0.323 N 
HETATM    8  C   UNL     1       7.995  26.507  57.127  1.00  0.00     0.256 C 
HETATM    9  O   UNL     1       7.925  26.367  58.345  1.00  0.00    -0.267 OA
HETATM   10  H   UNL     1       8.150  27.782  55.502  1.00  0.00     0.169 HD
BRANCH   8  11
HETATM   11  C   UNL     1       7.698  25.307  56.276  1.00  0.00     0.037 A 
HETATM   12  C   UNL     1       8.230  24.080  56.717  1.00  0.00     0.054 A 
HETATM   13  C   UNL     1       8.065  22.917  55.971  1.00  0.00     0.071 A 
HETATM   14  C   UNL     1       7.351  22.979  54.776  1.00  0.00     0.073 A 
HETATM   15  C   UNL     1       6.805  24.183  54.322  1.00  0.00     0.071 A 
HETATM   16  C   UNL     1       6.982  25.350  55.071  1.00  0.00     0.054 A 
BRANCH  13  17
HETATM   17  O   UNL     1       8.553  21.681  56.292  1.00  0.00    -0.356 OA
HETATM   18  C   UNL     1       7.732  20.561  55.978  1.00  0.00     0.210 C 
ENDBRANCH  13  17
BRANCH  15  19
HETATM   19  O   UNL     1       6.135  24.082  53.134  1.00  0.00    -0.356 OA
HETATM   20  C   UNL     1       4.950  24.853  52.979  1.00  0.00     0.210 C 
ENDBRANCH  15  19
ENDBRANCH   8  11
ENDBRANCH   3   7
BRANCH   1  21
HETATM   21  C   UNL     1       8.142  31.411  59.782  1.00  0.00     0.181 A 
HETATM   22  N   UNL     1       7.067  32.178  59.715  1.00  0.00    -0.221 NA
HETATM   23  C   UNL     1       6.922  32.645  60.999  1.00  0.00     0.093 A 
HETATM   24  C   UNL     1       7.919  32.126  61.804  1.00  0.00     0.107 A 
HETATM   25  C   UNL     1       5.987  33.519  61.569  1.00  0.00     0.035 A 
HETATM   26  C   UNL     1       8.077  32.396  63.158  1.00  0.00     0.046 A 
HETATM   27  O   UNL     1       8.704  31.329  61.032  1.00  0.00    -0.289 OA
HETATM   28  C   UNL     1       7.134  33.266  63.728  1.00  0.00    -0.059 A 
HETATM   29  C   UNL     1       7.263  33.648  65.175  1.00  0.00     0.048 C 
HETATM   30  C   UNL     1       6.113  33.825  62.936  1.00  0.00     0.009 A 
ENDBRANCH   1  21
TORSDOF 5
ENDMDL
MODEL 2
REMARK VINA RESULT:     -10.6      0.459      2.251
REMARK  5 active torsions:
REMARK  status: ('A' for Active; 'I' for Inactive)
REMARK    1  A    between atoms: C_7  and  C_8 
REMARK    2  A    between atoms: C_10  and  N_11 
REMARK       I    between atoms: N_11  and  C_12 
REMARK    3  A    between atoms: C_12  and  C_13 
REMARK    4  A    between atoms: C_15  and  O_16 
REMARK    5  A    between atoms: C_19  and  O_20 
ROOT
HETATM    1  C   UNL     1       8.753  30.672  58.801  1.00  0.00     0.019 A 
HETATM    2  C   UNL     1       8.153  29.599  58.120  1.00  0.00     0.045 A 
HETATM    3  C   UNL     1       8.834  28.887  57.127  1.00  0.00     0.035 A 
HETATM    4  C   UNL     1      10.143  29.259  56.813  1.00  0.00     0.029 A 
HETATM    5  C   UNL     1      10.753  30.333  57.470  1.00  0.00     0.003 A 
HETATM    6  C   UNL     1      10.061  31.033  58.460  1.00  0.00     0.016 A 
ENDROOT
BRANCH   3   7
HETATM    7  N   UNL     1       8.282  27.765  56.463  1.00  0.00    -0.323 N 
HETATM    8  C   UNL     1       8.038  26.522  57.030  1.00  0.00     0.256 C 
HETATM    9  O   UNL     1       8.053  26.292  58.237  1.00  0.00    -0.267 OA
HETATM   10  H   UNL     1       8.036  27.916  55.498  1.00  0.00     0.169 HD
BRANCH   8  11
HETATM   11  C   UNL     1       7.735  25.375  56.112  1.00  0.00     0.037 A 
HETATM   12  C   UNL     1       7.194  25.706  54.854  1.00  0.00     0.054 A 
HETATM   13  C   UNL     1       6.821  24.716  53.950  1.00  0.00     0.071 A 
HETATM   14  C   UNL     1       7.003  23.380  54.302  1.00  0.00     0.073 A 
HETATM   15  C   UNL     1       7.547  23.026  55.539  1.00  0.00     0.071 A 
HETATM   16  C   UNL     1       7.910  24.024  56.448  1.00  0.00     0.054 A 
BRANCH  13  17
HETATM   17  O   UNL     1       6.270  24.923  52.716  1.00  0.00    -0.356 OA
HETATM   18  C   UNL     1       4.849  24.915  52.636  1.00  0.00     0.210 C 
ENDBRANCH  13  17
BRANCH  15  19
HETATM   19  O   UNL     1       7.659  21.677  55.738  1.00  0.00    -0.356 OA
HETATM   20  C   UNL     1       8.408  21.237  56.863  1.00  0.00     0.210 C 
ENDBRANCH  15  19
ENDBRANCH   8  11
ENDBRANCH   3   7
BRANCH   1  21
HETATM   21  C   UNL     1       8.046  31.373  59.872  1.00  0.00     0.181 A 
HETATM   22  N   UNL     1       6.900  32.033  59.835  1.00  0.00    -0.221 NA
HETATM   23  C   UNL     1       6.770  32.528  61.111  1.00  0.00     0.093 A 
HETATM   24  C   UNL     1       7.848  32.132  61.881  1.00  0.00     0.107 A 
HETATM   25  C   UNL     1       5.784  33.329  61.699  1.00  0.00     0.035 A 
HETATM   26  C   UNL     1       8.041  32.461  63.217  1.00  0.00     0.046 A 
HETATM   27  O   UNL     1       8.669  31.387  61.095  1.00  0.00    -0.289 OA
HETATM   28  C   UNL     1       7.047  33.258  63.806  1.00  0.00    -0.059 A 
HETATM   29  C   UNL     1       7.206  33.699  65.234  1.00  0.00     0.048 C 
HETATM   30  C   UNL     1       5.943  33.692  63.049  1.00  0.00     0.009 A 
ENDBRANCH   1  21
TORSDOF 5
ENDMDL
MODEL 3
REMARK VINA RESULT:     -10.5      2.034     10.119
REMARK  5 active torsions:
REMARK  status: ('A' for Active; 'I' for Inactive)
REMARK    1  A    between atoms: C_7  and  C_8 
REMARK    2  A    between atoms: C_10  and  N_11 
REMARK       I    between atoms: N_11  and  C_12 
REMARK    3  A    between atoms: C_12  and  C_13 
REMARK    4  A    between atoms: C_15  and  O_16 
REMARK    5  A    between atoms: C_19  and  O_20 
ROOT
HETATM    1  C   UNL     1       8.944  29.119  57.654  1.00  0.00     0.019 A 
HETATM    2  C   UNL     1       8.336  29.755  58.750  1.00  0.00     0.045 A 
HETATM    3  C   UNL     1       8.838  30.949  59.277  1.00  0.00     0.035 A 
HETATM    4  C   UNL     1       9.973  31.516  58.692  1.00  0.00     0.029 A 
HETATM    5  C   UNL     1      10.601  30.890  57.609  1.00  0.00     0.003 A 
HETATM    6  C   UNL     1      10.087  29.699  57.093  1.00  0.00     0.016 A 
ENDROOT
BRANCH   3   7
HETATM    7  N   UNL     1       8.217  31.648  60.341  1.00  0.00    -0.323 N 
HETATM    8  C   UNL     1       8.397  31.396  61.694  1.00  0.00     0.256 C 
HETATM    9  O   UNL     1       9.287  30.690  62.159  1.00  0.00    -0.267 OA
HETATM   10  H   UNL     1       7.611  32.403  60.062  1.00  0.00     0.169 HD
BRANCH   8  11
HETATM   11  C   UNL     1       7.439  32.028  62.661  1.00  0.00     0.037 A 
HETATM   12  C   UNL     1       6.079  32.017  62.293  1.00  0.00     0.054 A 
HETATM   13  C   UNL     1       5.115  32.628  63.089  1.00  0.00     0.071 A 
HETATM   14  C   UNL     1       5.513  33.247  64.272  1.00  0.00     0.073 A 
HETATM   15  C   UNL     1       6.855  33.263  64.664  1.00  0.00     0.071 A 
HETATM   16  C   UNL     1       7.820  32.657  63.856  1.00  0.00     0.054 A 
BRANCH  13  17
HETATM   17  O   UNL     1       3.777  32.694  62.820  1.00  0.00    -0.356 OA
HETATM   18  C   UNL     1       3.143  33.955  63.010  1.00  0.00     0.210 C 
ENDBRANCH  13  17
BRANCH  15  19
HETATM   19  O   UNL     1       7.086  33.911  65.846  1.00  0.00    -0.356 OA
HETATM   20  C   UNL     1       5.960  34.234  66.652  1.00  0.00     0.210 C 
ENDBRANCH  15  19
ENDBRANCH   8  11
ENDBRANCH   3   7
BRANCH   1  21
HETATM   21  C   UNL     1       8.376  27.898  57.082  1.00  0.00     0.181 A 
HETATM   22  N   UNL     1       8.274  26.689  57.609  1.00  0.00    -0.221 NA
HETATM   23  C   UNL     1       7.719  25.942  56.597  1.00  0.00     0.093 A 
HETATM   24  C   UNL     1       7.493  26.741  55.492  1.00  0.00     0.107 A 
HETATM   25  C   UNL     1       7.386  24.583  56.522  1.00  0.00     0.035 A 
HETATM   26  C   UNL     1       6.947  26.308  54.289  1.00  0.00     0.046 A 
HETATM   27  O   UNL     1       7.907  27.999  55.796  1.00  0.00    -0.289 OA
HETATM   28  C   UNL     1       6.608  24.947  54.220  1.00  0.00    -0.059 A 
HETATM   29  C   UNL     1       6.058  24.389  52.937  1.00  0.00     0.048 C 
HETATM   30  C   UNL     1       6.837  24.100  55.321  1.00  0.00     0.009 A 
ENDBRANCH   1  21
TORSDOF 5
ENDMDL
MODEL 4
REMARK VINA RESULT:     -10.4      2.010     10.025
REMARK  5 active torsions:
REMARK  status: ('A' for Active; 'I' for Inactive)
REMARK    1  A    between atoms: C_7  and  C_8 
REMARK    2  A    between atoms: C_10  and  N_11 
REMARK       I    between atoms: N_11  and  C_12 
REMARK    3  A    between atoms: C_12  and  C_13 
REMARK    4  A    between atoms: C_15  and  O_16 
REMARK    5  A    between atoms: C_19  and  O_20 
ROOT
HETATM    1  C   UNL     1       8.915  29.160  57.650  1.00  0.00     0.019 A 
HETATM    2  C   UNL     1       8.260  29.814  58.707  1.00  0.00     0.045 A 
HETATM    3  C   UNL     1       8.732  31.024  59.227  1.00  0.00     0.035 A 
HETATM    4  C   UNL     1       9.885  31.588  58.674  1.00  0.00     0.029 A 
HETATM    5  C   UNL     1      10.558  30.945  57.630  1.00  0.00     0.003 A 
HETATM    6  C   UNL     1      10.074  29.738  57.121  1.00  0.00     0.016 A 
ENDROOT
BRANCH   3   7
HETATM    7  N   UNL     1       8.066  31.740  60.251  1.00  0.00    -0.323 N 
HETATM    8  C   UNL     1       8.189  31.515  61.614  1.00  0.00     0.256 C 
HETATM    9  O   UNL     1       9.061  30.821  62.130  1.00  0.00    -0.267 OA
HETATM   10  H   UNL     1       7.470  32.488  59.932  1.00  0.00     0.169 HD
BRANCH   8  11
HETATM   11  C   UNL     1       7.190  32.161  62.529  1.00  0.00     0.037 A 
HETATM   12  C   UNL     1       7.697  32.704  63.726  1.00  0.00     0.054 A 
HETATM   13  C   UNL     1       6.849  33.273  64.672  1.00  0.00     0.071 A 
HETATM   14  C   UNL     1       5.480  33.310  64.413  1.00  0.00     0.073 A 
HETATM   15  C   UNL     1       4.954  32.786  63.229  1.00  0.00     0.071 A 
HETATM   16  C   UNL     1       5.809  32.207  62.287  1.00  0.00     0.054 A 
BRANCH  13  17
HETATM   17  O   UNL     1       7.229  33.809  65.870  1.00  0.00    -0.356 OA
HETATM   18  C   UNL     1       6.189  34.187  66.766  1.00  0.00     0.210 C 
ENDBRANCH  13  17
BRANCH  15  19
HETATM   19  O   UNL     1       3.595  32.895  63.123  1.00  0.00    -0.356 OA
HETATM   20  C   UNL     1       3.036  34.202  63.124  1.00  0.00     0.210 C 
ENDBRANCH  15  19
ENDBRANCH   8  11
ENDBRANCH   3   7
BRANCH   1  21
HETATM   21  C   UNL     1       8.379  27.923  57.084  1.00  0.00     0.181 A 
HETATM   22  N   UNL     1       8.417  26.690  57.563  1.00  0.00    -0.221 NA
HETATM   23  C   UNL     1       7.815  25.942  56.580  1.00  0.00     0.093 A 
HETATM   24  C   UNL     1       7.421  26.762  55.539  1.00  0.00     0.107 A 
HETATM   25  C   UNL     1       7.573  24.566  56.478  1.00  0.00     0.035 A 
HETATM   26  C   UNL     1       6.787  26.335  54.379  1.00  0.00     0.046 A 
HETATM   27  O   UNL     1       7.774  28.036  55.856  1.00  0.00    -0.289 OA
HETATM   28  C   UNL     1       6.539  24.957  54.283  1.00  0.00    -0.059 A 
HETATM   29  C   UNL     1       5.901  24.407  53.038  1.00  0.00     0.048 C 
HETATM   30  C   UNL     1       6.939  24.089  55.316  1.00  0.00     0.009 A 
ENDBRANCH   1  21
TORSDOF 5
ENDMDL
MODEL 5
REMARK VINA RESULT:      -9.8      2.237     10.332
REMARK  5 active torsions:
REMARK  status: ('A' for Active; 'I' for Inactive)
REMARK    1  A    between atoms: C_7  and  C_8 
REMARK    2  A    between atoms: C_10  and  N_11 
REMARK       I    between atoms: N_11  and  C_12 
REMARK    3  A    between atoms: C_12  and  C_13 
REMARK    4  A    between atoms: C_15  and  O_16 
REMARK    5  A    between atoms: C_19  and  O_20 
ROOT
HETATM    1  C   UNL     1       8.532  28.791  57.535  1.00  0.00     0.019 A 
HETATM    2  C   UNL     1       7.622  29.327  58.462  1.00  0.00     0.045 A 
HETATM    3  C   UNL     1       7.883  30.522  59.140  1.00  0.00     0.035 A 
HETATM    4  C   UNL     1       9.082  31.192  58.883  1.00  0.00     0.029 A 
HETATM    5  C   UNL     1      10.007  30.666  57.975  1.00  0.00     0.003 A 
HETATM    6  C   UNL     1       9.732  29.474  57.304  1.00  0.00     0.016 A 
ENDROOT
BRANCH   3   7
HETATM    7  N   UNL     1       6.964  31.122  60.035  1.00  0.00    -0.323 N 
HETATM    8  C   UNL     1       6.210  32.260  59.785  1.00  0.00     0.256 C 
HETATM    9  O   UNL     1       6.065  32.771  58.677  1.00  0.00    -0.267 OA
HETATM   10  H   UNL     1       6.852  30.648  60.916  1.00  0.00     0.169 HD
BRANCH   8  11
HETATM   11  C   UNL     1       5.522  32.918  60.944  1.00  0.00     0.037 A 
HETATM   12  C   UNL     1       4.899  34.154  60.683  1.00  0.00     0.054 A 
HETATM   13  C   UNL     1       4.283  34.878  61.700  1.00  0.00     0.071 A 
HETATM   14  C   UNL     1       4.281  34.354  62.991  1.00  0.00     0.073 A 
HETATM   15  C   UNL     1       4.884  33.125  63.274  1.00  0.00     0.071 A 
HETATM   16  C   UNL     1       5.509  32.408  62.251  1.00  0.00     0.054 A 
BRANCH  13  17
HETATM   17  O   UNL     1       3.669  36.091  61.563  1.00  0.00    -0.356 OA
HETATM   18  C   UNL     1       3.454  36.843  62.753  1.00  0.00     0.210 C 
ENDBRANCH  13  17
BRANCH  15  19
HETATM   19  O   UNL     1       4.800  32.749  64.587  1.00  0.00    -0.356 OA
HETATM   20  C   UNL     1       4.814  33.776  65.569  1.00  0.00     0.210 C 
ENDBRANCH  15  19
ENDBRANCH   8  11
ENDBRANCH   3   7
BRANCH   1  21
HETATM   21  C   UNL     1       8.221  27.568  56.796  1.00  0.00     0.181 A 
HETATM   22  N   UNL     1       7.608  27.417  55.634  1.00  0.00    -0.221 NA
HETATM   23  C   UNL     1       7.545  26.053  55.475  1.00  0.00     0.093 A 
HETATM   24  C   UNL     1       8.142  25.427  56.554  1.00  0.00     0.107 A 
HETATM   25  C   UNL     1       6.993  25.261  54.461  1.00  0.00     0.035 A 
HETATM   26  C   UNL     1       8.249  24.051  56.722  1.00  0.00     0.046 A 
HETATM   27  O   UNL     1       8.582  26.391  57.404  1.00  0.00    -0.289 OA
HETATM   28  C   UNL     1       7.701  23.260  55.700  1.00  0.00    -0.059 A 
HETATM   29  C   UNL     1       7.732  21.763  55.829  1.00  0.00     0.048 C 
HETATM   30  C   UNL     1       7.073  23.863  54.593  1.00  0.00     0.009 A 
ENDBRANCH   1  21
TORSDOF 5
ENDMDL
MODEL 6
REMARK VINA RESULT:      -9.4      2.353      9.996
REMARK  5 active torsions:
REMARK  status: ('A' for Active; 'I' for Inactive)
REMARK    1  A    between atoms: C_7  and  C_8 
REMARK    2  A    between atoms: C_10  and  N_11 
REMARK       I    between atoms: N_11  and  C_12 
REMARK    3  A    between atoms: C_12  and  C_13 
REMARK    4  A    between atoms: C_15  and  O_16 
REMARK    5  A    between atoms: C_19  and  O_20 
ROOT
HETATM    1  C   UNL     1       5.731  26.339  54.075  1.00  0.00     0.019 A 
HETATM    2  C   UNL     1       6.082  27.264  55.072  1.00  0.00     0.045 A 
HETATM    3  C   UNL     1       5.423  28.491  55.201  1.00  0.00     0.035 A 
HETATM    4  C   UNL     1       4.390  28.794  54.310  1.00  0.00     0.029 A 
HETATM    5  C   UNL     1       4.035  27.892  53.302  1.00  0.00     0.003 A 
HETATM    6  C   UNL     1       4.701  26.671  53.188  1.00  0.00     0.016 A 
ENDROOT
BRANCH   3   7
HETATM    7  N   UNL     1       5.710  29.421  56.230  1.00  0.00    -0.323 N 
HETATM    8  C   UNL     1       6.976  29.787  56.665  1.00  0.00     0.256 C 
HETATM    9  O   UNL     1       8.019  29.530  56.070  1.00  0.00    -0.267 OA
HETATM   10  H   UNL     1       4.905  29.855  56.652  1.00  0.00     0.169 HD
BRANCH   8  11
HETATM   11  C   UNL     1       7.085  30.549  57.954  1.00  0.00     0.037 A 
HETATM   12  C   UNL     1       8.167  30.212  58.790  1.00  0.00     0.054 A 
HETATM   13  C   UNL     1       8.328  30.815  60.034  1.00  0.00     0.071 A 
HETATM   14  C   UNL     1       7.403  31.774  60.442  1.00  0.00     0.073 A 
HETATM   15  C   UNL     1       6.326  32.132  59.625  1.00  0.00     0.071 A 
HETATM   16  C   UNL     1       6.164  31.516  58.381  1.00  0.00     0.054 A 
BRANCH  13  17
HETATM   17  O   UNL     1       9.325  30.551  60.931  1.00  0.00    -0.356 OA
HETATM   18  C   UNL     1       8.935  30.338  62.284  1.00  0.00     0.210 C 
ENDBRANCH  13  17
BRANCH  15  19
HETATM   19  O   UNL     1       5.506  33.084  60.165  1.00  0.00    -0.356 OA
HETATM   20  C   UNL     1       5.787  33.522  61.489  1.00  0.00     0.210 C 
ENDBRANCH  15  19
ENDBRANCH   8  11
ENDBRANCH   3   7
BRANCH   1  21
HETATM   21  C   UNL     1       6.396  25.039  53.987  1.00  0.00     0.181 A 
HETATM   22  N   UNL     1       6.759  24.349  52.918  1.00  0.00    -0.221 NA
HETATM   23  C   UNL     1       7.275  23.188  53.443  1.00  0.00     0.093 A 
HETATM   24  C   UNL     1       7.216  23.229  54.824  1.00  0.00     0.107 A 
HETATM   25  C   UNL     1       7.803  22.046  52.829  1.00  0.00     0.035 A 
HETATM   26  C   UNL     1       7.646  22.218  55.675  1.00  0.00     0.046 A 
HETATM   27  O   UNL     1       6.657  24.415  55.181  1.00  0.00    -0.289 OA
HETATM   28  C   UNL     1       8.181  21.077  55.056  1.00  0.00    -0.059 A 
HETATM   29  C   UNL     1       8.624  19.918  55.903  1.00  0.00     0.048 C 
HETATM   30  C   UNL     1       8.245  20.994  53.652  1.00  0.00     0.009 A 
ENDBRANCH   1  21
TORSDOF 5
ENDMDL
MODEL 7
REMARK VINA RESULT:      -9.3      2.138      9.802
REMARK  5 active torsions:
REMARK  status: ('A' for Active; 'I' for Inactive)
REMARK    1  A    between atoms: C_7  and  C_8 
REMARK    2  A    between atoms: C_10  and  N_11 
REMARK       I    between atoms: N_11  and  C_12 
REMARK    3  A    between atoms: C_12  and  C_13 
REMARK    4  A    between atoms: C_15  and  O_16 
REMARK    5  A    between atoms: C_19  and  O_20 
ROOT
HETATM    1  C   UNL     1       8.585  28.418  57.349  1.00  0.00     0.019 A 
HETATM    2  C   UNL     1       7.613  29.143  58.059  1.00  0.00     0.045 A 
HETATM    3  C   UNL     1       7.872  30.423  58.561  1.00  0.00     0.035 A 
HETATM    4  C   UNL     1       9.133  30.985  58.345  1.00  0.00     0.029 A 
HETATM    5  C   UNL     1      10.119  30.273  57.654  1.00  0.00     0.003 A 
HETATM    6  C   UNL     1       9.844  28.997  57.158  1.00  0.00     0.016 A 
ENDROOT
BRANCH   3   7
HETATM    7  N   UNL     1       6.899  31.205  59.227  1.00  0.00    -0.323 N 
HETATM    8  C   UNL     1       7.135  32.066  60.289  1.00  0.00     0.256 C 
HETATM    9  O   UNL     1       8.248  32.441  60.648  1.00  0.00    -0.267 OA
HETATM   10  H   UNL     1       5.962  31.125  58.864  1.00  0.00     0.169 HD
BRANCH   8  11
HETATM   11  C   UNL     1       5.952  32.579  61.058  1.00  0.00     0.037 A 
HETATM   12  C   UNL     1       5.992  32.408  62.455  1.00  0.00     0.054 A 
HETATM   13  C   UNL     1       4.921  32.793  63.257  1.00  0.00     0.071 A 
HETATM   14  C   UNL     1       3.802  33.366  62.656  1.00  0.00     0.073 A 
HETATM   15  C   UNL     1       3.743  33.554  61.272  1.00  0.00     0.071 A 
HETATM   16  C   UNL     1       4.817  33.157  60.471  1.00  0.00     0.054 A 
BRANCH  13  17
HETATM   17  O   UNL     1       4.846  32.656  64.615  1.00  0.00    -0.356 OA
HETATM   18  C   UNL     1       4.584  33.836  65.368  1.00  0.00     0.210 C 
ENDBRANCH  13  17
BRANCH  15  19
HETATM   19  O   UNL     1       2.579  34.125  60.834  1.00  0.00    -0.356 OA
HETATM   20  C   UNL     1       2.558  34.643  59.510  1.00  0.00     0.210 C 
ENDBRANCH  15  19
ENDBRANCH   8  11
ENDBRANCH   3   7
BRANCH   1  21
HETATM   21  C   UNL     1       8.281  27.102  56.787  1.00  0.00     0.181 A 
HETATM   22  N   UNL     1       7.538  26.783  55.740  1.00  0.00    -0.221 NA
HETATM   23  C   UNL     1       7.566  25.409  55.730  1.00  0.00     0.093 A 
HETATM   24  C   UNL     1       8.343  24.947  56.776  1.00  0.00     0.107 A 
HETATM   25  C   UNL     1       6.953  24.475  54.886  1.00  0.00     0.035 A 
HETATM   26  C   UNL     1       8.581  23.608  57.066  1.00  0.00     0.046 A 
HETATM   27  O   UNL     1       8.810  26.026  57.456  1.00  0.00    -0.289 OA
HETATM   28  C   UNL     1       7.971  22.675  56.213  1.00  0.00    -0.059 A 
HETATM   29  C   UNL     1       8.139  21.206  56.488  1.00  0.00     0.048 C 
HETATM   30  C   UNL     1       7.161  23.108  55.147  1.00  0.00     0.009 A 
ENDBRANCH   1  21
TORSDOF 5
ENDMDL
MODEL 8
REMARK VINA RESULT:      -9.0      3.572      6.593
REMARK  5 active torsions:
REMARK  status: ('A' for Active; 'I' for Inactive)
REMARK    1  A    between atoms: C_7  and  C_8 
REMARK    2  A    between atoms: C_10  and  N_11 
REMARK       I    between atoms: N_11  and  C_12 
REMARK    3  A    between atoms: C_12  and  C_13 
REMARK    4  A    between atoms: C_15  and  O_16 
REMARK    5  A    between atoms: C_19  and  O_20 
ROOT
HETATM    1  C   UNL     1       7.315  27.343  56.196  1.00  0.00     0.019 A 
HETATM    2  C   UNL     1       6.651  27.553  54.976  1.00  0.00     0.045 A 
HETATM    3  C   UNL     1       5.939  26.529  54.341  1.00  0.00     0.035 A 
HETATM    4  C   UNL     1       5.894  25.270  54.944  1.00  0.00     0.029 A 
HETATM    5  C   UNL     1       6.561  25.037  56.152  1.00  0.00     0.003 A 
HETATM    6  C   UNL     1       7.265  26.069  56.774  1.00  0.00     0.016 A 
ENDROOT
BRANCH   3   7
HETATM    7  N   UNL     1       5.210  26.721  53.143  1.00  0.00    -0.323 N 
HETATM    8  C   UNL     1       5.642  26.393  51.866  1.00  0.00     0.256 C 
HETATM    9  O   UNL     1       6.615  25.686  51.620  1.00  0.00    -0.267 OA
HETATM   10  H   UNL     1       4.290  27.115  53.260  1.00  0.00     0.169 HD
BRANCH   8  11
HETATM   11  C   UNL     1       4.871  26.938  50.699  1.00  0.00     0.037 A 
HETATM   12  C   UNL     1       4.134  28.116  50.931  1.00  0.00     0.054 A 
HETATM   13  C   UNL     1       3.338  28.672  49.935  1.00  0.00     0.071 A 
HETATM   14  C   UNL     1       3.285  28.051  48.689  1.00  0.00     0.073 A 
HETATM   15  C   UNL     1       4.015  26.886  48.431  1.00  0.00     0.071 A 
HETATM   16  C   UNL     1       4.805  26.326  49.439  1.00  0.00     0.054 A 
BRANCH  13  17
HETATM   17  O   UNL     1       2.569  29.796  50.056  1.00  0.00    -0.356 OA
HETATM   18  C   UNL     1       2.782  30.601  51.211  1.00  0.00     0.210 C 
ENDBRANCH  13  17
BRANCH  15  19
HETATM   19  O   UNL     1       3.857  26.395  47.164  1.00  0.00    -0.356 OA
HETATM   20  C   UNL     1       2.693  25.623  46.897  1.00  0.00     0.210 C 
ENDBRANCH  15  19
ENDBRANCH   8  11
ENDBRANCH   3   7
BRANCH   1  21
HETATM   21  C   UNL     1       8.011  28.437  56.873  1.00  0.00     0.181 A 
HETATM   22  N   UNL     1       9.038  29.163  56.464  1.00  0.00    -0.221 NA
HETATM   23  C   UNL     1       9.297  29.988  57.532  1.00  0.00     0.093 A 
HETATM   24  C   UNL     1       8.397  29.734  58.551  1.00  0.00     0.107 A 
HETATM   25  C   UNL     1      10.276  30.969  57.732  1.00  0.00     0.035 A 
HETATM   26  C   UNL     1       8.375  30.382  59.780  1.00  0.00     0.046 A 
HETATM   27  O   UNL     1       7.566  28.743  58.135  1.00  0.00    -0.289 OA
HETATM   28  C   UNL     1       9.354  31.370  59.975  1.00  0.00    -0.059 A 
HETATM   29  C   UNL     1       9.430  32.084  61.295  1.00  0.00     0.048 C 
HETATM   30  C   UNL     1      10.295  31.646  58.965  1.00  0.00     0.009 A 
ENDBRANCH   1  21
TORSDOF 5
ENDMDL
MODEL 9
REMARK VINA RESULT:      -9.0      2.564     10.186
REMARK  5 active torsions:
REMARK  status: ('A' for Active; 'I' for Inactive)
REMARK    1  A    between atoms: C_7  and  C_8 
REMARK    2  A    between atoms: C_10  and  N_11 
REMARK       I    between atoms: N_11  and  C_12 
REMARK    3  A    between atoms: C_12  and  C_13 
REMARK    4  A    between atoms: C_15  and  O_16 
REMARK    5  A    between atoms: C_19  and  O_20 
ROOT
HETATM    1  C   UNL     1       5.625  26.550  54.115  1.00  0.00     0.019 A 
HETATM    2  C   UNL     1       5.922  27.473  55.132  1.00  0.00     0.045 A 
HETATM    3  C   UNL     1       5.246  28.693  55.237  1.00  0.00     0.035 A 
HETATM    4  C   UNL     1       4.252  28.992  54.301  1.00  0.00     0.029 A 
HETATM    5  C   UNL     1       3.952  28.092  53.273  1.00  0.00     0.003 A 
HETATM    6  C   UNL     1       4.635  26.877  53.183  1.00  0.00     0.016 A 
ENDROOT
BRANCH   3   7
HETATM    7  N   UNL     1       5.476  29.620  56.283  1.00  0.00    -0.323 N 
HETATM    8  C   UNL     1       6.708  29.917  56.849  1.00  0.00     0.256 C 
HETATM    9  O   UNL     1       7.791  29.591  56.372  1.00  0.00    -0.267 OA
HETATM   10  H   UNL     1       4.658  30.106  56.612  1.00  0.00     0.169 HD
BRANCH   8  11
HETATM   11  C   UNL     1       6.724  30.690  58.135  1.00  0.00     0.037 A 
HETATM   12  C   UNL     1       5.557  31.417  58.443  1.00  0.00     0.054 A 
HETATM   13  C   UNL     1       5.488  32.215  59.581  1.00  0.00     0.071 A 
HETATM   14  C   UNL     1       6.593  32.279  60.426  1.00  0.00     0.073 A 
HETATM   15  C   UNL     1       7.759  31.560  60.148  1.00  0.00     0.071 A 
HETATM   16  C   UNL     1       7.826  30.768  58.998  1.00  0.00     0.054 A 
BRANCH  13  17
HETATM   17  O   UNL     1       4.418  32.975  59.964  1.00  0.00    -0.356 OA
HETATM   18  C   UNL     1       4.703  34.226  60.581  1.00  0.00     0.210 C 
ENDBRANCH  13  17
BRANCH  15  19
HETATM   19  O   UNL     1       8.755  31.728  61.070  1.00  0.00    -0.356 OA
HETATM   20  C   UNL     1       9.264  30.565  61.710  1.00  0.00     0.210 C 
ENDBRANCH  15  19
ENDBRANCH   8  11
ENDBRANCH   3   7
BRANCH   1  21
HETATM   21  C   UNL     1       6.306  25.257  54.050  1.00  0.00     0.181 A 
HETATM   22  N   UNL     1       6.726  24.577  52.996  1.00  0.00    -0.221 NA
HETATM   23  C   UNL     1       7.228  23.418  53.539  1.00  0.00     0.093 A 
HETATM   24  C   UNL     1       7.103  23.450  54.915  1.00  0.00     0.107 A 
HETATM   25  C   UNL     1       7.795  22.284  52.943  1.00  0.00     0.035 A 
HETATM   26  C   UNL     1       7.503  22.437  55.779  1.00  0.00     0.046 A 
HETATM   27  O   UNL     1       6.517  24.629  55.253  1.00  0.00    -0.289 OA
HETATM   28  C   UNL     1       8.077  21.305  55.180  1.00  0.00    -0.059 A 
HETATM   29  C   UNL     1       8.491  20.145  56.040  1.00  0.00     0.048 C 
HETATM   30  C   UNL     1       8.208  21.232  53.780  1.00  0.00     0.009 A 
ENDBRANCH   1  21
TORSDOF 5
ENDMDL
MODEL 10
REMARK VINA RESULT:      -9.0      3.686      6.538
REMARK  5 active torsions:
REMARK  status: ('A' for Active; 'I' for Inactive)
REMARK    1  A    between atoms: C_7  and  C_8 
REMARK    2  A    between atoms: C_10  and  N_11 
REMARK       I    between atoms: N_11  and  C_12 
REMARK    3  A    between atoms: C_12  and  C_13 
REMARK    4  A    between atoms: C_15  and  O_16 
REMARK    5  A    between atoms: C_19  and  O_20 
ROOT
HETATM    1  C   UNL     1       7.226  27.392  56.240  1.00  0.00     0.019 A 
HETATM    2  C   UNL     1       6.698  27.573  54.950  1.00  0.00     0.045 A 
HETATM    3  C   UNL     1       5.968  26.567  54.308  1.00  0.00     0.035 A 
HETATM    4  C   UNL     1       5.765  25.356  54.974  1.00  0.00     0.029 A 
HETATM    5  C   UNL     1       6.295  25.152  56.252  1.00  0.00     0.003 A 
HETATM    6  C   UNL     1       7.020  26.166  56.881  1.00  0.00     0.016 A 
ENDROOT
BRANCH   3   7
HETATM    7  N   UNL     1       5.370  26.737  53.036  1.00  0.00    -0.323 N 
HETATM    8  C   UNL     1       5.923  26.358  51.820  1.00  0.00     0.256 C 
HETATM    9  O   UNL     1       6.898  25.621  51.698  1.00  0.00    -0.267 OA
HETATM   10  H   UNL     1       4.454  27.154  53.045  1.00  0.00     0.169 HD
BRANCH   8  11
HETATM   11  C   UNL     1       5.291  26.881  50.564  1.00  0.00     0.037 A 
HETATM   12  C   UNL     1       4.589  25.945  49.780  1.00  0.00     0.054 A 
HETATM   13  C   UNL     1       4.015  26.312  48.566  1.00  0.00     0.071 A 
HETATM   14  C   UNL     1       4.135  27.632  48.137  1.00  0.00     0.073 A 
HETATM   15  C   UNL     1       4.818  28.582  48.902  1.00  0.00     0.071 A 
HETATM   16  C   UNL     1       5.400  28.205  50.115  1.00  0.00     0.054 A 
BRANCH  13  17
HETATM   17  O   UNL     1       3.332  25.485  47.719  1.00  0.00    -0.356 OA
HETATM   18  C   UNL     1       2.343  26.085  46.890  1.00  0.00     0.210 C 
ENDBRANCH  13  17
BRANCH  15  19
HETATM   19  O   UNL     1       4.851  29.831  48.346  1.00  0.00    -0.356 OA
HETATM   20  C   UNL     1       4.214  30.009  47.087  1.00  0.00     0.210 C 
ENDBRANCH  15  19
ENDBRANCH   8  11
ENDBRANCH   3   7
BRANCH   1  21
HETATM   21  C   UNL     1       7.943  28.472  56.917  1.00  0.00     0.181 A 
HETATM   22  N   UNL     1       8.974  29.190  56.503  1.00  0.00    -0.221 NA
HETATM   23  C   UNL     1       9.255  30.002  57.576  1.00  0.00     0.093 A 
HETATM   24  C   UNL     1       8.364  29.749  58.603  1.00  0.00     0.107 A 
HETATM   25  C   UNL     1      10.248  30.969  57.773  1.00  0.00     0.035 A 
HETATM   26  C   UNL     1       8.364  30.386  59.838  1.00  0.00     0.046 A 
HETATM   27  O   UNL     1       7.517  28.772  58.187  1.00  0.00    -0.289 OA
HETATM   28  C   UNL     1       9.357  31.360  60.030  1.00  0.00    -0.059 A 
HETATM   29  C   UNL     1       9.456  32.061  61.355  1.00  0.00     0.048 C 
HETATM   30  C   UNL     1      10.289  31.635  59.012  1.00  0.00     0.009 A 
ENDBRANCH   1  21
TORSDOF 5
ENDMDL
