MODEL 1
REMARK VINA RESULT:      -9.5      0.000      0.000
REMARK  7 active torsions:
REMARK  status: ('A' for Active; 'I' for Inactive)
REMARK    1  A    between atoms: C_2  and  O_3 
REMARK    2  A    between atoms: O_3  and  C_4 
REMARK    3  A    between atoms: C_4  and  C_5 
REMARK    4  A    between atoms: C_6  and  C_7 
REMARK    5  A    between atoms: C_18  and  S_19 
REMARK    6  A    between atoms: S_19  and  C_20 
REMARK    7  A    between atoms: C_20  and  C_21 
ROOT
HETATM    1  C   UNL     1       5.881  29.764  56.989  1.00  0.00     0.070 C 
HETATM    2  C   UNL     1       6.941  28.959  57.747  1.00  0.00     0.204 C 
HETATM    3  N   UNL     1       6.976  27.565  57.283  1.00  0.00    -0.082 N 
HETATM    4  C   UNL     1       6.373  27.127  56.139  1.00  0.00     0.726 A 
HETATM    5  N   UNL     1       5.625  27.985  55.422  1.00  0.00    -0.192 N 
HETATM    6  N   UNL     1       7.627  26.567  57.912  1.00  0.00    -0.128 NA
HETATM    7  C   UNL     1       7.421  25.557  57.056  1.00  0.00     0.226 A 
HETATM    8  N   UNL     1       6.655  25.864  55.957  1.00  0.00    -0.035 NA
HETATM    9  C   UNL     1       5.296  29.264  55.868  1.00  0.00     0.037 C 
HETATM   10  C   UNL     1       4.285  30.003  55.026  1.00  0.00     0.070 C 
HETATM   11  H   UNL     1       5.110  27.620  54.624  1.00  0.00     0.184 HD
ENDROOT
BRANCH   7  12
HETATM   12  S   UNL     1       8.117  23.976  57.277  1.00  0.00    -0.083 SA
BRANCH  12  13
HETATM   13  C   UNL     1       9.142  23.842  55.786  1.00  0.00     0.123 C 
BRANCH  13  14
HETATM   14  C   UNL     1       8.714  22.679  54.921  1.00  0.00    -0.027 A 
HETATM   15  C   UNL     1       8.224  22.835  53.614  1.00  0.00     0.041 A 
HETATM   16 CL   UNL     1       8.047  24.391  52.883  1.00  0.00    -0.084 Cl
HETATM   17  C   UNL     1       7.861  21.719  52.854  1.00  0.00     0.024 A 
HETATM   18  C   UNL     1       7.981  20.435  53.385  1.00  0.00     0.002 A 
HETATM   19  C   UNL     1       8.468  20.263  54.676  1.00  0.00     0.001 A 
HETATM   20  C   UNL     1       8.836  21.374  55.437  1.00  0.00     0.009 A 
ENDBRANCH  13  14
ENDBRANCH  12  13
ENDBRANCH   7  12
BRANCH   2  21
HETATM   21  C   UNL     1       8.352  29.540  57.628  1.00  0.00    -0.006 A 
HETATM   22  C   UNL     1       8.930  30.322  58.645  1.00  0.00     0.042 A 
HETATM   23 CL   UNL     1       8.090  30.716  60.103  1.00  0.00    -0.084 Cl
HETATM   24  C   UNL     1      10.229  30.824  58.509  1.00  0.00     0.024 A 
HETATM   25  C   UNL     1      10.976  30.551  57.364  1.00  0.00     0.002 A 
HETATM   26  C   UNL     1      10.428  29.772  56.352  1.00  0.00     0.001 A 
HETATM   27  C   UNL     1       9.132  29.270  56.481  1.00  0.00     0.011 A 
ENDBRANCH   2  21
BRANCH   1  28
HETATM   28  C   UNL     1       5.438  31.047  57.595  1.00  0.00     0.293 C 
HETATM   29  O   UNL     1       5.968  32.128  57.397  1.00  0.00    -0.259 OA
BRANCH  28  30
HETATM   30  O   UNL     1       4.340  30.848  58.361  1.00  0.00    -0.318 OA
BRANCH  30  31
HETATM   31  C   UNL     1       3.635  32.026  58.784  1.00  0.00     0.174 C 
HETATM   32  C   UNL     1       3.627  32.111  60.299  1.00  0.00     0.034 C 
ENDBRANCH  30  31
ENDBRANCH  28  30
ENDBRANCH   1  28
TORSDOF 7
ENDMDL
MODEL 2
REMARK VINA RESULT:      -8.7      3.681      8.204
REMARK  7 active torsions:
REMARK  status: ('A' for Active; 'I' for Inactive)
REMARK    1  A    between atoms: C_2  and  O_3 
REMARK    2  A    between atoms: O_3  and  C_4 
REMARK    3  A    between atoms: C_4  and  C_5 
REMARK    4  A    between atoms: C_6  and  C_7 
REMARK    5  A    between atoms: C_18  and  S_19 
REMARK    6  A    between atoms: S_19  and  C_20 
REMARK    7  A    between atoms: C_20  and  C_21 
ROOT
HETATM    1  C   UNL     1       5.459  27.470  53.015  1.00  0.00     0.070 C 
HETATM    2  C   UNL     1       6.793  27.257  53.736  1.00  0.00     0.204 C 
HETATM    3  N   UNL     1       6.970  28.234  54.818  1.00  0.00    -0.082 N 
HETATM    4  C   UNL     1       5.965  29.018  55.309  1.00  0.00     0.726 A 
HETATM    5  N   UNL     1       4.753  28.971  54.727  1.00  0.00    -0.192 N 
HETATM    6  N   UNL     1       8.129  28.452  55.469  1.00  0.00    -0.128 NA
HETATM    7  C   UNL     1       7.736  29.346  56.386  1.00  0.00     0.226 A 
HETATM    8  N   UNL     1       6.415  29.718  56.317  1.00  0.00    -0.035 NA
HETATM    9  C   UNL     1       4.505  28.283  53.541  1.00  0.00     0.037 C 
HETATM   10  C   UNL     1       3.142  28.511  52.934  1.00  0.00     0.070 C 
HETATM   11  H   UNL     1       4.043  29.627  55.046  1.00  0.00     0.184 HD
ENDROOT
BRANCH   7  12
HETATM   12  S   UNL     1       8.798  29.961  57.621  1.00  0.00    -0.083 SA
BRANCH  12  13
HETATM   13  C   UNL     1       7.723  31.185  58.419  1.00  0.00     0.123 C 
BRANCH  13  14
HETATM   14  C   UNL     1       7.936  31.219  59.915  1.00  0.00    -0.027 A 
HETATM   15  C   UNL     1       7.051  31.856  60.800  1.00  0.00     0.041 A 
HETATM   16 CL   UNL     1       5.638  32.683  60.246  1.00  0.00    -0.084 Cl
HETATM   17  C   UNL     1       7.290  31.839  62.178  1.00  0.00     0.024 A 
HETATM   18  C   UNL     1       8.412  31.187  62.691  1.00  0.00     0.002 A 
HETATM   19  C   UNL     1       9.296  30.549  61.828  1.00  0.00     0.001 A 
HETATM   20  C   UNL     1       9.059  30.560  60.451  1.00  0.00     0.009 A 
ENDBRANCH  13  14
ENDBRANCH  12  13
ENDBRANCH   7  12
BRANCH   2  21
HETATM   21  C   UNL     1       6.952  25.853  54.327  1.00  0.00    -0.006 A 
HETATM   22  C   UNL     1       7.612  24.819  53.638  1.00  0.00     0.042 A 
HETATM   23 CL   UNL     1       8.276  25.033  52.057  1.00  0.00    -0.084 Cl
HETATM   24  C   UNL     1       7.752  23.552  54.216  1.00  0.00     0.024 A 
HETATM   25  C   UNL     1       7.247  23.296  55.490  1.00  0.00     0.002 A 
HETATM   26  C   UNL     1       6.601  24.306  56.192  1.00  0.00     0.001 A 
HETATM   27  C   UNL     1       6.455  25.572  55.620  1.00  0.00     0.011 A 
ENDBRANCH   2  21
BRANCH   1  28
HETATM   28  C   UNL     1       5.304  26.852  51.672  1.00  0.00     0.293 C 
HETATM   29  O   UNL     1       4.926  25.708  51.473  1.00  0.00    -0.259 OA
BRANCH  28  30
HETATM   30  O   UNL     1       5.600  27.752  50.706  1.00  0.00    -0.318 OA
BRANCH  30  31
HETATM   31  C   UNL     1       4.570  28.015  49.740  1.00  0.00     0.174 C 
HETATM   32  C   UNL     1       4.995  27.507  48.375  1.00  0.00     0.034 C 
ENDBRANCH  30  31
ENDBRANCH  28  30
ENDBRANCH   1  28
TORSDOF 7
ENDMDL
MODEL 3
REMARK VINA RESULT:      -8.6      5.488      7.298
REMARK  7 active torsions:
REMARK  status: ('A' for Active; 'I' for Inactive)
REMARK    1  A    between atoms: C_2  and  O_3 
REMARK    2  A    between atoms: O_3  and  C_4 
REMARK    3  A    between atoms: C_4  and  C_5 
REMARK    4  A    between atoms: C_6  and  C_7 
REMARK    5  A    between atoms: C_18  and  S_19 
REMARK    6  A    between atoms: S_19  and  C_20 
REMARK    7  A    between atoms: C_20  and  C_21 
ROOT
HETATM    1  C   UNL     1       3.543  27.949  49.530  1.00  0.00     0.070 C 
HETATM    2  C   UNL     1       3.986  28.594  50.846  1.00  0.00     0.204 C 
HETATM    3  N   UNL     1       4.959  27.746  51.547  1.00  0.00    -0.082 N 
HETATM    4  C   UNL     1       5.605  26.690  50.971  1.00  0.00     0.726 A 
HETATM    5  N   UNL     1       5.285  26.332  49.714  1.00  0.00    -0.192 N 
HETATM    6  N   UNL     1       5.348  27.926  52.825  1.00  0.00    -0.128 NA
HETATM    7  C   UNL     1       6.280  26.971  52.939  1.00  0.00     0.226 A 
HETATM    8  N   UNL     1       6.464  26.191  51.821  1.00  0.00    -0.035 NA
HETATM    9  C   UNL     1       4.211  26.881  49.017  1.00  0.00     0.037 C 
HETATM   10  C   UNL     1       3.883  26.215  47.703  1.00  0.00     0.070 C 
HETATM   11  H   UNL     1       5.709  25.489  49.334  1.00  0.00     0.184 HD
ENDROOT
BRANCH   7  12
HETATM   12  S   UNL     1       7.241  26.754  54.375  1.00  0.00    -0.083 SA
BRANCH  12  13
HETATM   13  C   UNL     1       6.564  25.195  55.008  1.00  0.00     0.123 C 
BRANCH  13  14
HETATM   14  C   UNL     1       7.440  24.020  54.640  1.00  0.00    -0.027 A 
HETATM   15  C   UNL     1       8.499  23.573  55.447  1.00  0.00     0.041 A 
HETATM   16 CL   UNL     1       8.909  24.350  56.935  1.00  0.00    -0.084 Cl
HETATM   17  C   UNL     1       9.266  22.467  55.064  1.00  0.00     0.024 A 
HETATM   18  C   UNL     1       8.987  21.793  53.875  1.00  0.00     0.002 A 
HETATM   19  C   UNL     1       7.939  22.221  53.067  1.00  0.00     0.001 A 
HETATM   20  C   UNL     1       7.168  23.322  53.448  1.00  0.00     0.009 A 
ENDBRANCH  13  14
ENDBRANCH  12  13
ENDBRANCH   7  12
BRANCH   2  21
HETATM   21  C   UNL     1       4.601  29.985  50.669  1.00  0.00    -0.006 A 
HETATM   22  C   UNL     1       4.221  31.080  51.466  1.00  0.00     0.042 A 
HETATM   23 CL   UNL     1       3.009  30.960  52.692  1.00  0.00    -0.084 Cl
HETATM   24  C   UNL     1       4.816  32.334  51.286  1.00  0.00     0.024 A 
HETATM   25  C   UNL     1       5.803  32.517  50.319  1.00  0.00     0.002 A 
HETATM   26  C   UNL     1       6.201  31.445  49.529  1.00  0.00     0.001 A 
HETATM   27  C   UNL     1       5.610  30.192  49.701  1.00  0.00     0.011 A 
ENDBRANCH   2  21
BRANCH   1  28
HETATM   28  C   UNL     1       2.292  28.458  48.909  1.00  0.00     0.293 C 
HETATM   29  O   UNL     1       1.208  27.900  48.971  1.00  0.00    -0.259 OA
BRANCH  28  30
HETATM   30  O   UNL     1       2.519  29.649  48.306  1.00  0.00    -0.318 OA
BRANCH  30  31
HETATM   31  C   UNL     1       2.707  29.618  46.882  1.00  0.00     0.174 C 
HETATM   32  C   UNL     1       3.817  30.571  46.482  1.00  0.00     0.034 C 
ENDBRANCH  30  31
ENDBRANCH  28  30
ENDBRANCH   1  28
TORSDOF 7
ENDMDL
MODEL 4
REMARK VINA RESULT:      -8.5      5.501      8.144
REMARK  7 active torsions:
REMARK  status: ('A' for Active; 'I' for Inactive)
REMARK    1  A    between atoms: C_2  and  O_3 
REMARK    2  A    between atoms: O_3  and  C_4 
REMARK    3  A    between atoms: C_4  and  C_5 
REMARK    4  A    between atoms: C_6  and  C_7 
REMARK    5  A    between atoms: C_18  and  S_19 
REMARK    6  A    between atoms: S_19  and  C_20 
REMARK    7  A    between atoms: C_20  and  C_21 
ROOT
HETATM    1  C   UNL     1       4.679  30.203  50.198  1.00  0.00     0.070 C 
HETATM    2  C   UNL     1       4.815  28.707  49.901  1.00  0.00     0.204 C 
HETATM    3  N   UNL     1       4.851  27.925  51.144  1.00  0.00    -0.082 N 
HETATM    4  C   UNL     1       4.506  28.422  52.368  1.00  0.00     0.726 A 
HETATM    5  N   UNL     1       4.194  29.725  52.482  1.00  0.00    -0.192 N 
HETATM    6  N   UNL     1       5.199  26.625  51.218  1.00  0.00    -0.128 NA
HETATM    7  C   UNL     1       4.986  26.384  52.518  1.00  0.00     0.226 A 
HETATM    8  N   UNL     1       4.562  27.464  53.256  1.00  0.00    -0.035 NA
HETATM    9  C   UNL     1       4.358  30.640  51.445  1.00  0.00     0.037 C 
HETATM   10  C   UNL     1       4.149  32.087  51.819  1.00  0.00     0.070 C 
HETATM   11  H   UNL     1       4.029  30.098  53.415  1.00  0.00     0.184 HD
ENDROOT
BRANCH   7  12
HETATM   12  S   UNL     1       5.173  24.805  53.229  1.00  0.00    -0.083 SA
BRANCH  12  13
HETATM   13  C   UNL     1       6.978  24.707  53.375  1.00  0.00     0.123 C 
BRANCH  13  14
HETATM   14  C   UNL     1       7.423  23.343  53.850  1.00  0.00    -0.027 A 
HETATM   15  C   UNL     1       7.477  22.985  55.207  1.00  0.00     0.041 A 
HETATM   16 CL   UNL     1       7.058  24.093  56.465  1.00  0.00    -0.084 Cl
HETATM   17  C   UNL     1       7.880  21.700  55.586  1.00  0.00     0.024 A 
HETATM   18  C   UNL     1       8.231  20.757  54.621  1.00  0.00     0.002 A 
HETATM   19  C   UNL     1       8.178  21.095  53.273  1.00  0.00     0.001 A 
HETATM   20  C   UNL     1       7.773  22.375  52.889  1.00  0.00     0.009 A 
ENDBRANCH  13  14
ENDBRANCH  12  13
ENDBRANCH   7  12
BRANCH   2  21
HETATM   21  C   UNL     1       3.693  28.154  49.018  1.00  0.00    -0.006 A 
HETATM   22  C   UNL     1       3.953  27.401  47.858  1.00  0.00     0.042 A 
HETATM   23 CL   UNL     1       5.558  27.058  47.315  1.00  0.00    -0.084 Cl
HETATM   24  C   UNL     1       2.903  26.898  47.083  1.00  0.00     0.024 A 
HETATM   25  C   UNL     1       1.578  27.128  47.453  1.00  0.00     0.002 A 
HETATM   26  C   UNL     1       1.299  27.860  48.600  1.00  0.00     0.001 A 
HETATM   27  C   UNL     1       2.343  28.367  49.377  1.00  0.00     0.011 A 
ENDBRANCH   2  21
BRANCH   1  28
HETATM   28  C   UNL     1       5.029  31.149  49.105  1.00  0.00     0.293 C 
HETATM   29  O   UNL     1       6.142  31.615  48.920  1.00  0.00    -0.259 OA
BRANCH  28  30
HETATM   30  O   UNL     1       3.949  31.381  48.323  1.00  0.00    -0.318 OA
BRANCH  30  31
HETATM   31  C   UNL     1       4.134  31.204  46.910  1.00  0.00     0.174 C 
HETATM   32  C   UNL     1       2.887  30.599  46.294  1.00  0.00     0.034 C 
ENDBRANCH  30  31
ENDBRANCH  28  30
ENDBRANCH   1  28
TORSDOF 7
ENDMDL
MODEL 5
REMARK VINA RESULT:      -8.1      2.423      3.279
REMARK  7 active torsions:
REMARK  status: ('A' for Active; 'I' for Inactive)
REMARK    1  A    between atoms: C_2  and  O_3 
REMARK    2  A    between atoms: O_3  and  C_4 
REMARK    3  A    between atoms: C_4  and  C_5 
REMARK    4  A    between atoms: C_6  and  C_7 
REMARK    5  A    between atoms: C_18  and  S_19 
REMARK    6  A    between atoms: S_19  and  C_20 
REMARK    7  A    between atoms: C_20  and  C_21 
ROOT
HETATM    1  C   UNL     1       4.195  29.690  55.177  1.00  0.00     0.070 C 
HETATM    2  C   UNL     1       4.796  28.308  55.447  1.00  0.00     0.204 C 
HETATM    3  N   UNL     1       4.983  27.561  54.197  1.00  0.00    -0.082 N 
HETATM    4  C   UNL     1       4.918  28.124  52.954  1.00  0.00     0.726 A 
HETATM    5  N   UNL     1       4.581  29.421  52.839  1.00  0.00    -0.192 N 
HETATM    6  N   UNL     1       5.265  26.245  54.128  1.00  0.00    -0.128 NA
HETATM    7  C   UNL     1       5.416  26.090  52.806  1.00  0.00     0.226 A 
HETATM    8  N   UNL     1       5.209  27.222  52.054  1.00  0.00    -0.035 NA
HETATM    9  C   UNL     1       4.134  30.189  53.913  1.00  0.00     0.037 C 
HETATM   10  C   UNL     1       3.611  31.559  53.556  1.00  0.00     0.070 C 
HETATM   11  H   UNL     1       4.449  29.801  51.905  1.00  0.00     0.184 HD
ENDROOT
BRANCH   7  12
HETATM   12  S   UNL     1       5.896  24.582  52.080  1.00  0.00    -0.083 SA
BRANCH  12  13
HETATM   13  C   UNL     1       7.566  24.390  52.762  1.00  0.00     0.123 C 
BRANCH  13  14
HETATM   14  C   UNL     1       7.715  23.080  53.501  1.00  0.00    -0.027 A 
HETATM   15  C   UNL     1       7.786  22.994  54.901  1.00  0.00     0.041 A 
HETATM   16 CL   UNL     1       7.731  24.397  55.909  1.00  0.00    -0.084 Cl
HETATM   17  C   UNL     1       7.906  21.751  55.531  1.00  0.00     0.024 A 
HETATM   18  C   UNL     1       7.955  20.579  54.775  1.00  0.00     0.002 A 
HETATM   19  C   UNL     1       7.881  20.647  53.388  1.00  0.00     0.001 A 
HETATM   20  C   UNL     1       7.758  21.886  52.755  1.00  0.00     0.009 A 
ENDBRANCH  13  14
ENDBRANCH  12  13
ENDBRANCH   7  12
BRANCH   2  21
HETATM   21  C   UNL     1       6.139  28.359  56.180  1.00  0.00    -0.006 A 
HETATM   22  C   UNL     1       6.477  27.441  57.192  1.00  0.00     0.042 A 
HETATM   23 CL   UNL     1       5.397  26.195  57.713  1.00  0.00    -0.084 Cl
HETATM   24  C   UNL     1       7.720  27.507  57.831  1.00  0.00     0.024 A 
HETATM   25  C   UNL     1       8.650  28.481  57.469  1.00  0.00     0.002 A 
HETATM   26  C   UNL     1       8.341  29.391  56.465  1.00  0.00     0.001 A 
HETATM   27  C   UNL     1       7.101  29.331  55.826  1.00  0.00     0.011 A 
ENDBRANCH   2  21
BRANCH   1  28
HETATM   28  C   UNL     1       3.576  30.401  56.327  1.00  0.00     0.293 C 
HETATM   29  O   UNL     1       2.435  30.833  56.344  1.00  0.00    -0.259 OA
BRANCH  28  30
HETATM   30  O   UNL     1       4.445  30.459  57.363  1.00  0.00    -0.318 OA
BRANCH  30  31
HETATM   31  C   UNL     1       4.882  31.769  57.757  1.00  0.00     0.174 C 
HETATM   32  C   UNL     1       6.177  31.672  58.541  1.00  0.00     0.034 C 
ENDBRANCH  30  31
ENDBRANCH  28  30
ENDBRANCH   1  28
TORSDOF 7
ENDMDL
MODEL 6
REMARK VINA RESULT:      -7.8      4.828      9.753
REMARK  7 active torsions:
REMARK  status: ('A' for Active; 'I' for Inactive)
REMARK    1  A    between atoms: C_2  and  O_3 
REMARK    2  A    between atoms: O_3  and  C_4 
REMARK    3  A    between atoms: C_4  and  C_5 
REMARK    4  A    between atoms: C_6  and  C_7 
REMARK    5  A    between atoms: C_18  and  S_19 
REMARK    6  A    between atoms: S_19  and  C_20 
REMARK    7  A    between atoms: C_20  and  C_21 
ROOT
HETATM    1  C   UNL     1       6.768  30.017  57.803  1.00  0.00     0.070 C 
HETATM    2  C   UNL     1       6.856  31.464  58.297  1.00  0.00     0.204 C 
HETATM    3  N   UNL     1       5.526  32.086  58.344  1.00  0.00    -0.082 N 
HETATM    4  C   UNL     1       4.355  31.390  58.258  1.00  0.00     0.726 A 
HETATM    5  N   UNL     1       4.395  30.065  58.028  1.00  0.00    -0.192 N 
HETATM    6  N   UNL     1       5.306  33.405  58.507  1.00  0.00    -0.128 NA
HETATM    7  C   UNL     1       3.968  33.429  58.566  1.00  0.00     0.226 A 
HETATM    8  N   UNL     1       3.350  32.211  58.415  1.00  0.00    -0.035 NA
HETATM    9  C   UNL     1       5.568  29.383  57.713  1.00  0.00     0.037 C 
HETATM   10  C   UNL     1       5.388  27.945  57.291  1.00  0.00     0.070 C 
HETATM   11  H   UNL     1       3.515  29.578  57.875  1.00  0.00     0.184 HD
ENDROOT
BRANCH   7  12
HETATM   12  S   UNL     1       3.062  34.885  58.870  1.00  0.00    -0.083 SA
BRANCH  12  13
HETATM   13  C   UNL     1       4.321  35.910  59.679  1.00  0.00     0.123 C 
BRANCH  13  14
HETATM   14  C   UNL     1       4.227  35.819  61.184  1.00  0.00    -0.027 A 
HETATM   15  C   UNL     1       3.682  36.840  61.981  1.00  0.00     0.041 A 
HETATM   16 CL   UNL     1       3.087  38.313  61.301  1.00  0.00    -0.084 Cl
HETATM   17  C   UNL     1       3.604  36.692  63.369  1.00  0.00     0.024 A 
HETATM   18  C   UNL     1       4.066  35.527  63.982  1.00  0.00     0.002 A 
HETATM   19  C   UNL     1       4.603  34.505  63.207  1.00  0.00     0.001 A 
HETATM   20  C   UNL     1       4.680  34.647  61.820  1.00  0.00     0.009 A 
ENDBRANCH  13  14
ENDBRANCH  12  13
ENDBRANCH   7  12
BRANCH   2  21
HETATM   21  C   UNL     1       7.499  31.601  59.679  1.00  0.00    -0.006 A 
HETATM   22  C   UNL     1       8.886  31.766  59.848  1.00  0.00     0.042 A 
HETATM   23 CL   UNL     1       9.986  31.803  58.516  1.00  0.00    -0.084 Cl
HETATM   24  C   UNL     1       9.438  31.903  61.127  1.00  0.00     0.024 A 
HETATM   25  C   UNL     1       8.621  31.887  62.256  1.00  0.00     0.002 A 
HETATM   26  C   UNL     1       7.247  31.734  62.110  1.00  0.00     0.001 A 
HETATM   27  C   UNL     1       6.690  31.594  60.837  1.00  0.00     0.011 A 
ENDBRANCH   2  21
BRANCH   1  28
HETATM   28  C   UNL     1       8.023  29.386  57.316  1.00  0.00     0.293 C 
HETATM   29  O   UNL     1       8.733  28.648  57.981  1.00  0.00    -0.259 OA
BRANCH  28  30
HETATM   30  O   UNL     1       8.239  29.712  56.020  1.00  0.00    -0.318 OA
BRANCH  30  31
HETATM   31  C   UNL     1       8.664  28.647  55.156  1.00  0.00     0.174 C 
HETATM   32  C   UNL     1       7.516  28.210  54.266  1.00  0.00     0.034 C 
ENDBRANCH  30  31
ENDBRANCH  28  30
ENDBRANCH   1  28
TORSDOF 7
ENDMDL
MODEL 7
REMARK VINA RESULT:      -7.5      3.709      8.704
REMARK  7 active torsions:
REMARK  status: ('A' for Active; 'I' for Inactive)
REMARK    1  A    between atoms: C_2  and  O_3 
REMARK    2  A    between atoms: O_3  and  C_4 
REMARK    3  A    between atoms: C_4  and  C_5 
REMARK    4  A    between atoms: C_6  and  C_7 
REMARK    5  A    between atoms: C_18  and  S_19 
REMARK    6  A    between atoms: S_19  and  C_20 
REMARK    7  A    between atoms: C_20  and  C_21 
ROOT
HETATM    1  C   UNL     1       6.317  26.557  56.755  1.00  0.00     0.070 C 
HETATM    2  C   UNL     1       5.719  27.956  56.926  1.00  0.00     0.204 C 
HETATM    3  N   UNL     1       6.652  28.846  57.629  1.00  0.00    -0.082 N 
HETATM    4  C   UNL     1       7.973  28.563  57.827  1.00  0.00     0.726 A 
HETATM    5  N   UNL     1       8.452  27.366  57.441  1.00  0.00    -0.192 N 
HETATM    6  N   UNL     1       6.324  30.052  58.133  1.00  0.00    -0.128 NA
HETATM    7  C   UNL     1       7.517  30.470  58.575  1.00  0.00     0.226 A 
HETATM    8  N   UNL     1       8.553  29.581  58.406  1.00  0.00    -0.035 NA
HETATM    9  C   UNL     1       7.637  26.330  56.992  1.00  0.00     0.037 C 
HETATM   10  C   UNL     1       8.327  25.001  56.798  1.00  0.00     0.070 C 
HETATM   11  H   UNL     1       9.415  27.136  57.679  1.00  0.00     0.184 HD
ENDROOT
BRANCH   7  12
HETATM   12  S   UNL     1       7.768  32.049  59.266  1.00  0.00    -0.083 SA
BRANCH  12  13
HETATM   13  C   UNL     1       6.234  32.258  60.210  1.00  0.00     0.123 C 
BRANCH  13  14
HETATM   14  C   UNL     1       6.514  32.548  61.666  1.00  0.00    -0.027 A 
HETATM   15  C   UNL     1       5.508  32.881  62.588  1.00  0.00     0.041 A 
HETATM   16 CL   UNL     1       3.848  33.010  62.126  1.00  0.00    -0.084 Cl
HETATM   17  C   UNL     1       5.826  33.122  63.929  1.00  0.00     0.024 A 
HETATM   18  C   UNL     1       7.146  33.033  64.368  1.00  0.00     0.002 A 
HETATM   19  C   UNL     1       8.153  32.700  63.468  1.00  0.00     0.001 A 
HETATM   20  C   UNL     1       7.840  32.455  62.129  1.00  0.00     0.009 A 
ENDBRANCH  13  14
ENDBRANCH  12  13
ENDBRANCH   7  12
BRANCH   2  21
HETATM   21  C   UNL     1       5.326  28.620  55.604  1.00  0.00    -0.006 A 
HETATM   22  C   UNL     1       4.238  29.506  55.503  1.00  0.00     0.042 A 
HETATM   23 CL   UNL     1       3.234  29.900  56.853  1.00  0.00    -0.084 Cl
HETATM   24  C   UNL     1       3.917  30.106  54.280  1.00  0.00     0.024 A 
HETATM   25  C   UNL     1       4.677  29.843  53.142  1.00  0.00     0.002 A 
HETATM   26  C   UNL     1       5.763  28.979  53.222  1.00  0.00     0.001 A 
HETATM   27  C   UNL     1       6.086  28.374  54.438  1.00  0.00     0.011 A 
ENDBRANCH   2  21
BRANCH   1  28
HETATM   28  C   UNL     1       5.378  25.448  56.440  1.00  0.00     0.293 C 
HETATM   29  O   UNL     1       4.778  24.788  57.273  1.00  0.00    -0.259 OA
BRANCH  28  30
HETATM   30  O   UNL     1       5.253  25.307  55.099  1.00  0.00    -0.318 OA
BRANCH  30  31
HETATM   31  C   UNL     1       6.081  24.308  54.482  1.00  0.00     0.174 C 
HETATM   32  C   UNL     1       6.788  24.893  53.274  1.00  0.00     0.034 C 
ENDBRANCH  30  31
ENDBRANCH  28  30
ENDBRANCH   1  28
TORSDOF 7
ENDMDL
MODEL 8
REMARK VINA RESULT:      -7.3      5.341      7.428
REMARK  7 active torsions:
REMARK  status: ('A' for Active; 'I' for Inactive)
REMARK    1  A    between atoms: C_2  and  O_3 
REMARK    2  A    between atoms: O_3  and  C_4 
REMARK    3  A    between atoms: C_4  and  C_5 
REMARK    4  A    between atoms: C_6  and  C_7 
REMARK    5  A    between atoms: C_18  and  S_19 
REMARK    6  A    between atoms: S_19  and  C_20 
REMARK    7  A    between atoms: C_20  and  C_21 
ROOT
HETATM    1  C   UNL     1       3.500  28.260  49.434  1.00  0.00     0.070 C 
HETATM    2  C   UNL     1       3.411  28.666  50.908  1.00  0.00     0.204 C 
HETATM    3  N   UNL     1       4.237  27.789  51.748  1.00  0.00    -0.082 N 
HETATM    4  C   UNL     1       5.183  26.934  51.258  1.00  0.00     0.726 A 
HETATM    5  N   UNL     1       5.326  26.808  49.926  1.00  0.00    -0.192 N 
HETATM    6  N   UNL     1       4.180  27.743  53.093  1.00  0.00    -0.128 NA
HETATM    7  C   UNL     1       5.165  26.875  53.356  1.00  0.00     0.226 A 
HETATM    8  N   UNL     1       5.802  26.356  52.253  1.00  0.00    -0.035 NA
HETATM    9  C   UNL     1       4.449  27.384  49.009  1.00  0.00     0.037 C 
HETATM   10  C   UNL     1       4.649  26.967  47.572  1.00  0.00     0.070 C 
HETATM   11  H   UNL     1       5.970  26.101  49.578  1.00  0.00     0.184 HD
ENDROOT
BRANCH   7  12
HETATM   12  S   UNL     1       5.656  26.465  54.975  1.00  0.00    -0.083 SA
BRANCH  12  13
HETATM   13  C   UNL     1       7.391  26.010  54.702  1.00  0.00     0.123 C 
BRANCH  13  14
HETATM   14  C   UNL     1       7.562  24.513  54.599  1.00  0.00    -0.027 A 
HETATM   15  C   UNL     1       7.969  23.868  53.419  1.00  0.00     0.041 A 
HETATM   16 CL   UNL     1       8.290  24.740  51.962  1.00  0.00    -0.084 Cl
HETATM   17  C   UNL     1       8.128  22.478  53.388  1.00  0.00     0.024 A 
HETATM   18  C   UNL     1       7.886  21.715  54.530  1.00  0.00     0.002 A 
HETATM   19  C   UNL     1       7.487  22.339  55.708  1.00  0.00     0.001 A 
HETATM   20  C   UNL     1       7.330  23.726  55.744  1.00  0.00     0.009 A 
ENDBRANCH  13  14
ENDBRANCH  12  13
ENDBRANCH   7  12
BRANCH   2  21
HETATM   21  C   UNL     1       3.830  30.115  51.170  1.00  0.00    -0.006 A 
HETATM   22  C   UNL     1       4.951  30.696  50.550  1.00  0.00     0.042 A 
HETATM   23 CL   UNL     1       5.967  29.820  49.460  1.00  0.00    -0.084 Cl
HETATM   24  C   UNL     1       5.297  32.028  50.802  1.00  0.00     0.024 A 
HETATM   25  C   UNL     1       4.529  32.806  51.667  1.00  0.00     0.002 A 
HETATM   26  C   UNL     1       3.411  32.255  52.282  1.00  0.00     0.001 A 
HETATM   27  C   UNL     1       3.063  30.925  52.037  1.00  0.00     0.011 A 
ENDBRANCH   2  21
BRANCH   1  28
HETATM   28  C   UNL     1       2.440  28.766  48.523  1.00  0.00     0.293 C 
HETATM   29  O   UNL     1       2.586  29.678  47.725  1.00  0.00    -0.259 OA
BRANCH  28  30
HETATM   30  O   UNL     1       1.306  28.042  48.676  1.00  0.00    -0.318 OA
BRANCH  30  31
HETATM   31  C   UNL     1       1.013  27.088  47.643  1.00  0.00     0.174 C 
HETATM   32  C   UNL     1       0.090  27.706  46.610  1.00  0.00     0.034 C 
ENDBRANCH  30  31
ENDBRANCH  28  30
ENDBRANCH   1  28
TORSDOF 7
ENDMDL
MODEL 9
REMARK VINA RESULT:      -7.3      5.517      8.314
REMARK  7 active torsions:
REMARK  status: ('A' for Active; 'I' for Inactive)
REMARK    1  A    between atoms: C_2  and  O_3 
REMARK    2  A    between atoms: O_3  and  C_4 
REMARK    3  A    between atoms: C_4  and  C_5 
REMARK    4  A    between atoms: C_6  and  C_7 
REMARK    5  A    between atoms: C_18  and  S_19 
REMARK    6  A    between atoms: S_19  and  C_20 
REMARK    7  A    between atoms: C_20  and  C_21 
ROOT
HETATM    1  C   UNL     1       3.569  27.911  49.547  1.00  0.00     0.070 C 
HETATM    2  C   UNL     1       3.965  28.605  50.853  1.00  0.00     0.204 C 
HETATM    3  N   UNL     1       4.920  27.790  51.615  1.00  0.00    -0.082 N 
HETATM    4  C   UNL     1       5.592  26.719  51.097  1.00  0.00     0.726 A 
HETATM    5  N   UNL     1       5.315  26.315  49.844  1.00  0.00    -0.192 N 
HETATM    6  N   UNL     1       5.266  28.017  52.897  1.00  0.00    -0.128 NA
HETATM    7  C   UNL     1       6.200  27.074  53.074  1.00  0.00     0.226 A 
HETATM    8  N   UNL     1       6.425  26.257  51.992  1.00  0.00    -0.035 NA
HETATM    9  C   UNL     1       4.261  26.831  49.094  1.00  0.00     0.037 C 
HETATM   10  C   UNL     1       3.980  26.117  47.794  1.00  0.00     0.070 C 
HETATM   11  H   UNL     1       5.757  25.462  49.507  1.00  0.00     0.184 HD
ENDROOT
BRANCH   7  12
HETATM   12  S   UNL     1       7.115  26.915  54.548  1.00  0.00    -0.083 SA
BRANCH  12  13
HETATM   13  C   UNL     1       8.003  28.497  54.571  1.00  0.00     0.123 C 
BRANCH  13  14
HETATM   14  C   UNL     1       8.011  29.107  55.954  1.00  0.00    -0.027 A 
HETATM   15  C   UNL     1       6.897  29.756  56.511  1.00  0.00     0.041 A 
HETATM   16 CL   UNL     1       5.412  29.935  55.645  1.00  0.00    -0.084 Cl
HETATM   17  C   UNL     1       6.958  30.286  57.804  1.00  0.00     0.024 A 
HETATM   18  C   UNL     1       8.127  30.176  58.558  1.00  0.00     0.002 A 
HETATM   19  C   UNL     1       9.236  29.532  58.022  1.00  0.00     0.001 A 
HETATM   20  C   UNL     1       9.179  28.998  56.733  1.00  0.00     0.009 A 
ENDBRANCH  13  14
ENDBRANCH  12  13
ENDBRANCH   7  12
BRANCH   2  21
HETATM   21  C   UNL     1       4.577  29.994  50.647  1.00  0.00    -0.006 A 
HETATM   22  C   UNL     1       4.208  31.100  51.433  1.00  0.00     0.042 A 
HETATM   23 CL   UNL     1       3.015  30.997  52.680  1.00  0.00    -0.084 Cl
HETATM   24  C   UNL     1       4.799  32.352  51.227  1.00  0.00     0.024 A 
HETATM   25  C   UNL     1       5.772  32.521  50.243  1.00  0.00     0.002 A 
HETATM   26  C   UNL     1       6.158  31.438  49.462  1.00  0.00     0.001 A 
HETATM   27  C   UNL     1       5.570  30.187  49.661  1.00  0.00     0.011 A 
ENDBRANCH   2  21
BRANCH   1  28
HETATM   28  C   UNL     1       2.336  28.389  48.868  1.00  0.00     0.293 C 
HETATM   29  O   UNL     1       1.261  27.810  48.891  1.00  0.00    -0.259 OA
BRANCH  28  30
HETATM   30  O   UNL     1       2.566  29.577  48.260  1.00  0.00    -0.318 OA
BRANCH  30  31
HETATM   31  C   UNL     1       2.970  29.522  46.884  1.00  0.00     0.174 C 
HETATM   32  C   UNL     1       3.208  30.924  46.355  1.00  0.00     0.034 C 
ENDBRANCH  30  31
ENDBRANCH  28  30
ENDBRANCH   1  28
TORSDOF 7
ENDMDL
MODEL 10
REMARK VINA RESULT:      -7.3      4.851     10.210
REMARK  7 active torsions:
REMARK  status: ('A' for Active; 'I' for Inactive)
REMARK    1  A    between atoms: C_2  and  O_3 
REMARK    2  A    between atoms: O_3  and  C_4 
REMARK    3  A    between atoms: C_4  and  C_5 
REMARK    4  A    between atoms: C_6  and  C_7 
REMARK    5  A    between atoms: C_18  and  S_19 
REMARK    6  A    between atoms: S_19  and  C_20 
REMARK    7  A    between atoms: C_20  and  C_21 
ROOT
HETATM    1  C   UNL     1       6.520  30.319  57.808  1.00  0.00     0.070 C 
HETATM    2  C   UNL     1       5.317  31.116  58.319  1.00  0.00     0.204 C 
HETATM    3  N   UNL     1       5.680  31.923  59.492  1.00  0.00    -0.082 N 
HETATM    4  C   UNL     1       6.966  32.167  59.881  1.00  0.00     0.726 A 
HETATM    5  N   UNL     1       7.975  31.572  59.220  1.00  0.00    -0.192 N 
HETATM    6  N   UNL     1       4.795  32.539  60.299  1.00  0.00    -0.128 NA
HETATM    7  C   UNL     1       5.622  33.188  61.129  1.00  0.00     0.226 A 
HETATM    8  N   UNL     1       6.963  32.981  60.904  1.00  0.00    -0.035 NA
HETATM    9  C   UNL     1       7.776  30.589  58.252  1.00  0.00     0.037 C 
HETATM   10  C   UNL     1       9.026  29.896  57.767  1.00  0.00     0.070 C 
HETATM   11  H   UNL     1       8.920  31.691  59.579  1.00  0.00     0.184 HD
ENDROOT
BRANCH   7  12
HETATM   12  S   UNL     1       5.058  34.266  62.374  1.00  0.00    -0.083 SA
BRANCH  12  13
HETATM   13  C   UNL     1       4.665  33.087  63.696  1.00  0.00     0.123 C 
BRANCH  13  14
HETATM   14  C   UNL     1       5.147  33.580  65.040  1.00  0.00    -0.027 A 
HETATM   15  C   UNL     1       6.505  33.625  65.398  1.00  0.00     0.041 A 
HETATM   16 CL   UNL     1       7.752  33.093  64.328  1.00  0.00    -0.084 Cl
HETATM   17  C   UNL     1       6.893  34.109  66.652  1.00  0.00     0.024 A 
HETATM   18  C   UNL     1       5.935  34.555  67.563  1.00  0.00     0.002 A 
HETATM   19  C   UNL     1       4.588  34.522  67.222  1.00  0.00     0.001 A 
HETATM   20  C   UNL     1       4.196  34.042  65.970  1.00  0.00     0.009 A 
ENDBRANCH  13  14
ENDBRANCH  12  13
ENDBRANCH   7  12
BRANCH   2  21
HETATM   21  C   UNL     1       4.707  32.046  57.267  1.00  0.00    -0.006 A 
HETATM   22  C   UNL     1       3.581  31.682  56.507  1.00  0.00     0.042 A 
HETATM   23 CL   UNL     1       2.805  30.146  56.673  1.00  0.00    -0.084 Cl
HETATM   24  C   UNL     1       3.040  32.563  55.564  1.00  0.00     0.024 A 
HETATM   25  C   UNL     1       3.604  33.823  55.369  1.00  0.00     0.002 A 
HETATM   26  C   UNL     1       4.711  34.207  56.117  1.00  0.00     0.001 A 
HETATM   27  C   UNL     1       5.257  33.331  57.057  1.00  0.00     0.011 A 
ENDBRANCH   2  21
BRANCH   1  28
HETATM   28  C   UNL     1       6.241  29.169  56.907  1.00  0.00     0.293 C 
HETATM   29  O   UNL     1       5.884  28.064  57.282  1.00  0.00    -0.259 OA
BRANCH  28  30
HETATM   30  O   UNL     1       6.398  29.538  55.614  1.00  0.00    -0.318 OA
BRANCH  30  31
HETATM   31  C   UNL     1       6.055  28.557  54.623  1.00  0.00     0.174 C 
HETATM   32  C   UNL     1       7.313  27.992  53.992  1.00  0.00     0.034 C 
ENDBRANCH  30  31
ENDBRANCH  28  30
ENDBRANCH   1  28
TORSDOF 7
ENDMDL
