MODEL 1
REMARK VINA RESULT:      -8.7      0.000      0.000
REMARK  6 active torsions:
REMARK  status: ('A' for Active; 'I' for Inactive)
REMARK    1  A    between atoms: C_2  and  O_3 
REMARK    2  A    between atoms: O_3  and  C_4 
REMARK    3  A    between atoms: C_8  and  C_9 
REMARK    4  A    between atoms: C_9  and  N_10 
REMARK       I    between atoms: N_10  and  C_11 
REMARK       I    between atoms: C_11  and  N_12 
REMARK    5  A    between atoms: N_12  and  C_13 
REMARK    6  A    between atoms: C_14  and  C_15 
ROOT
HETATM    1  N   UNL     1       8.037  27.637  57.151  1.00  0.00    -0.339 N 
HETATM    2  C   UNL     1       7.478  26.385  57.193  1.00  0.00     0.316 C 
HETATM    3  N   UNL     1       8.371  25.418  56.788  1.00  0.00    -0.338 N 
HETATM    4  O   UNL     1       6.328  26.158  57.546  1.00  0.00    -0.247 OA
HETATM    5  H   UNL     1       9.038  27.682  57.257  1.00  0.00     0.164 HD
HETATM    6  H   UNL     1       9.047  25.729  56.102  1.00  0.00     0.164 HD
ENDROOT
BRANCH   1   7
HETATM    7  C   UNL     1       7.278  28.808  57.530  1.00  0.00     0.163 C 
BRANCH   7   8
HETATM    8  C   UNL     1       8.143  29.900  58.101  1.00  0.00    -0.035 A 
HETATM    9  C   UNL     1       9.429  30.136  57.606  1.00  0.00     0.028 A 
HETATM   10  C   UNL     1      10.198  31.127  58.193  1.00  0.00     0.120 A 
HETATM   11  N   UNL     1       9.788  31.880  59.235  1.00  0.00    -0.237 NA
HETATM   12  C   UNL     1       8.556  31.632  59.712  1.00  0.00     0.165 A 
HETATM   13  C   UNL     1       7.699  30.683  59.172  1.00  0.00     0.066 A 
BRANCH  12  14
HETATM   14  O   UNL     1       8.059  32.360  60.769  1.00  0.00    -0.324 OA
BRANCH  14  15
HETATM   15  C   UNL     1       7.905  31.722  62.051  1.00  0.00     0.058 C 
HETATM   16  C   UNL     1       8.831  30.509  62.223  1.00  0.00     0.045 C 
HETATM   17  C   UNL     1       6.442  31.385  62.379  1.00  0.00     0.045 C 
HETATM   18  C   UNL     1       8.366  32.800  63.052  1.00  0.00     0.045 C 
ENDBRANCH  14  15
ENDBRANCH  12  14
ENDBRANCH   7   8
ENDBRANCH   1   7
BRANCH   3  19
HETATM   19  C   UNL     1       7.984  24.036  56.734  1.00  0.00     0.095 A 
HETATM   20  C   UNL     1       7.335  23.398  55.524  1.00  0.00     0.043 A 
HETATM   21  C   UNL     1       8.762  23.066  55.895  1.00  0.00     0.037 A 
BRANCH  20  22
HETATM   22  C   UNL     1       7.049  24.161  54.251  1.00  0.00    -0.052 A 
HETATM   23  C   UNL     1       7.981  24.195  53.199  1.00  0.00     0.007 A 
HETATM   24  C   UNL     1       7.711  24.865  52.003  1.00  0.00     0.001 A 
HETATM   25  C   UNL     1       6.493  25.517  51.832  1.00  0.00     0.000 A 
HETATM   26  C   UNL     1       5.547  25.488  52.851  1.00  0.00     0.001 A 
HETATM   27  C   UNL     1       5.821  24.810  54.042  1.00  0.00     0.007 A 
ENDBRANCH  20  22
ENDBRANCH   3  19
TORSDOF 6
ENDMDL
MODEL 2
REMARK VINA RESULT:      -8.6      1.969      9.455
REMARK  6 active torsions:
REMARK  status: ('A' for Active; 'I' for Inactive)
REMARK    1  A    between atoms: C_2  and  O_3 
REMARK    2  A    between atoms: O_3  and  C_4 
REMARK    3  A    between atoms: C_8  and  C_9 
REMARK    4  A    between atoms: C_9  and  N_10 
REMARK       I    between atoms: N_10  and  C_11 
REMARK       I    between atoms: C_11  and  N_12 
REMARK    5  A    between atoms: N_12  and  C_13 
REMARK    6  A    between atoms: C_14  and  C_15 
ROOT
HETATM    1  N   UNL     1       6.611  29.602  58.147  1.00  0.00    -0.339 N 
HETATM    2  C   UNL     1       7.885  29.955  58.513  1.00  0.00     0.316 C 
HETATM    3  N   UNL     1       7.970  30.219  59.862  1.00  0.00    -0.338 N 
HETATM    4  O   UNL     1       8.827  30.027  57.735  1.00  0.00    -0.247 OA
HETATM    5  H   UNL     1       6.042  29.180  58.865  1.00  0.00     0.164 HD
HETATM    6  H   UNL     1       7.124  30.593  60.273  1.00  0.00     0.164 HD
ENDROOT
BRANCH   1   7
HETATM    7  C   UNL     1       6.287  29.284  56.774  1.00  0.00     0.163 C 
BRANCH   7   8
HETATM    8  C   UNL     1       6.211  27.802  56.524  1.00  0.00    -0.035 A 
HETATM    9  C   UNL     1       5.365  26.984  57.279  1.00  0.00     0.028 A 
HETATM   10  C   UNL     1       5.363  25.621  57.035  1.00  0.00     0.120 A 
HETATM   11  N   UNL     1       6.144  25.020  56.113  1.00  0.00    -0.237 NA
HETATM   12  C   UNL     1       6.964  25.815  55.405  1.00  0.00     0.165 A 
HETATM   13  C   UNL     1       7.016  27.195  55.555  1.00  0.00     0.066 A 
BRANCH  12  14
HETATM   14  O   UNL     1       7.789  25.283  54.441  1.00  0.00    -0.324 OA
BRANCH  14  15
HETATM   15  C   UNL     1       7.211  24.519  53.365  1.00  0.00     0.058 C 
HETATM   16  C   UNL     1       5.729  24.850  53.133  1.00  0.00     0.045 C 
HETATM   17  C   UNL     1       7.451  23.008  53.509  1.00  0.00     0.045 C 
HETATM   18  C   UNL     1       7.990  24.993  52.122  1.00  0.00     0.045 C 
ENDBRANCH  14  15
ENDBRANCH  12  14
ENDBRANCH   7   8
ENDBRANCH   1   7
BRANCH   3  19
HETATM   19  C   UNL     1       9.212  30.631  60.453  1.00  0.00     0.095 A 
HETATM   20  C   UNL     1       9.312  31.682  61.538  1.00  0.00     0.043 A 
HETATM   21  C   UNL     1       9.551  30.224  61.857  1.00  0.00     0.037 A 
BRANCH  20  22
HETATM   22  C   UNL     1       8.103  32.386  62.110  1.00  0.00    -0.052 A 
HETATM   23  C   UNL     1       7.902  32.475  63.498  1.00  0.00     0.007 A 
HETATM   24  C   UNL     1       6.808  33.156  64.037  1.00  0.00     0.001 A 
HETATM   25  C   UNL     1       5.887  33.770  63.193  1.00  0.00     0.000 A 
HETATM   26  C   UNL     1       6.068  33.709  61.815  1.00  0.00     0.001 A 
HETATM   27  C   UNL     1       7.169  33.032  61.283  1.00  0.00     0.007 A 
ENDBRANCH  20  22
ENDBRANCH   3  19
TORSDOF 6
ENDMDL
MODEL 3
REMARK VINA RESULT:      -8.3      2.250      8.996
REMARK  6 active torsions:
REMARK  status: ('A' for Active; 'I' for Inactive)
REMARK    1  A    between atoms: C_2  and  O_3 
REMARK    2  A    between atoms: O_3  and  C_4 
REMARK    3  A    between atoms: C_8  and  C_9 
REMARK    4  A    between atoms: C_9  and  N_10 
REMARK       I    between atoms: N_10  and  C_11 
REMARK       I    between atoms: C_11  and  N_12 
REMARK    5  A    between atoms: N_12  and  C_13 
REMARK    6  A    between atoms: C_14  and  C_15 
ROOT
HETATM    1  N   UNL     1       6.342  30.389  58.492  1.00  0.00    -0.339 N 
HETATM    2  C   UNL     1       7.594  30.803  58.872  1.00  0.00     0.316 C 
HETATM    3  N   UNL     1       7.911  30.359  60.137  1.00  0.00    -0.338 N 
HETATM    4  O   UNL     1       8.334  31.483  58.174  1.00  0.00    -0.247 OA
HETATM    5  H   UNL     1       6.005  29.540  58.917  1.00  0.00     0.164 HD
HETATM    6  H   UNL     1       7.120  30.257  60.759  1.00  0.00     0.164 HD
ENDROOT
BRANCH   1   7
HETATM    7  C   UNL     1       5.797  30.744  57.200  1.00  0.00     0.163 C 
BRANCH   7   8
HETATM    8  C   UNL     1       5.640  29.555  56.291  1.00  0.00    -0.035 A 
HETATM    9  C   UNL     1       4.514  29.412  55.476  1.00  0.00     0.028 A 
HETATM   10  C   UNL     1       4.400  28.279  54.688  1.00  0.00     0.120 A 
HETATM   11  N   UNL     1       5.311  27.284  54.664  1.00  0.00    -0.237 NA
HETATM   12  C   UNL     1       6.382  27.426  55.463  1.00  0.00     0.165 A 
HETATM   13  C   UNL     1       6.601  28.537  56.266  1.00  0.00     0.066 A 
BRANCH  12  14
HETATM   14  O   UNL     1       7.361  26.459  55.494  1.00  0.00    -0.324 OA
BRANCH  14  15
HETATM   15  C   UNL     1       7.093  25.207  56.153  1.00  0.00     0.058 C 
HETATM   16  C   UNL     1       6.955  24.037  55.168  1.00  0.00     0.045 C 
HETATM   17  C   UNL     1       5.906  25.287  57.127  1.00  0.00     0.045 C 
HETATM   18  C   UNL     1       8.362  24.957  56.993  1.00  0.00     0.045 C 
ENDBRANCH  14  15
ENDBRANCH  12  14
ENDBRANCH   7   8
ENDBRANCH   1   7
BRANCH   3  19
HETATM   19  C   UNL     1       9.169  30.699  60.741  1.00  0.00     0.095 A 
HETATM   20  C   UNL     1       9.316  31.735  61.835  1.00  0.00     0.043 A 
HETATM   21  C   UNL     1       9.474  30.264  62.144  1.00  0.00     0.037 A 
BRANCH  20  22
HETATM   22  C   UNL     1       8.142  32.499  62.402  1.00  0.00    -0.052 A 
HETATM   23  C   UNL     1       7.922  32.569  63.789  1.00  0.00     0.007 A 
HETATM   24  C   UNL     1       6.862  33.303  64.325  1.00  0.00     0.001 A 
HETATM   25  C   UNL     1       5.996  33.992  63.481  1.00  0.00     0.000 A 
HETATM   26  C   UNL     1       6.198  33.952  62.105  1.00  0.00     0.001 A 
HETATM   27  C   UNL     1       7.265  33.220  61.575  1.00  0.00     0.007 A 
ENDBRANCH  20  22
ENDBRANCH   3  19
TORSDOF 6
ENDMDL
MODEL 4
REMARK VINA RESULT:      -8.3      2.440      9.316
REMARK  6 active torsions:
REMARK  status: ('A' for Active; 'I' for Inactive)
REMARK    1  A    between atoms: C_2  and  O_3 
REMARK    2  A    between atoms: O_3  and  C_4 
REMARK    3  A    between atoms: C_8  and  C_9 
REMARK    4  A    between atoms: C_9  and  N_10 
REMARK       I    between atoms: N_10  and  C_11 
REMARK       I    between atoms: C_11  and  N_12 
REMARK    5  A    between atoms: N_12  and  C_13 
REMARK    6  A    between atoms: C_14  and  C_15 
ROOT
HETATM    1  N   UNL     1       6.149  27.914  57.273  1.00  0.00    -0.339 N 
HETATM    2  C   UNL     1       5.370  29.042  57.337  1.00  0.00     0.316 C 
HETATM    3  N   UNL     1       5.892  29.969  58.211  1.00  0.00    -0.338 N 
HETATM    4  O   UNL     1       4.339  29.201  56.697  1.00  0.00    -0.247 OA
HETATM    5  H   UNL     1       7.127  28.035  57.484  1.00  0.00     0.164 HD
HETATM    6  H   UNL     1       6.405  29.574  58.989  1.00  0.00     0.164 HD
ENDROOT
BRANCH   1   7
HETATM    7  C   UNL     1       5.790  26.803  56.420  1.00  0.00     0.163 C 
BRANCH   7   8
HETATM    8  C   UNL     1       6.725  25.634  56.566  1.00  0.00    -0.035 A 
HETATM    9  C   UNL     1       7.792  25.669  57.469  1.00  0.00     0.028 A 
HETATM   10  C   UNL     1       8.646  24.582  57.536  1.00  0.00     0.120 A 
HETATM   11  N   UNL     1       8.524  23.480  56.766  1.00  0.00    -0.237 NA
HETATM   12  C   UNL     1       7.504  23.464  55.892  1.00  0.00     0.165 A 
HETATM   13  C   UNL     1       6.577  24.491  55.772  1.00  0.00     0.066 A 
BRANCH  12  14
HETATM   14  O   UNL     1       7.304  22.375  55.074  1.00  0.00    -0.324 OA
BRANCH  14  15
HETATM   15  C   UNL     1       8.136  22.208  53.910  1.00  0.00     0.058 C 
HETATM   16  C   UNL     1       9.626  22.083  54.260  1.00  0.00     0.045 C 
HETATM   17  C   UNL     1       7.881  23.276  52.835  1.00  0.00     0.045 C 
HETATM   18  C   UNL     1       7.683  20.853  53.330  1.00  0.00     0.045 C 
ENDBRANCH  14  15
ENDBRANCH  12  14
ENDBRANCH   7   8
ENDBRANCH   1   7
BRANCH   3  19
HETATM   19  C   UNL     1       5.220  31.216  58.448  1.00  0.00     0.095 A 
HETATM   20  C   UNL     1       5.723  32.264  59.418  1.00  0.00     0.043 A 
HETATM   21  C   UNL     1       5.801  32.497  57.927  1.00  0.00     0.037 A 
BRANCH  20  22
HETATM   22  C   UNL     1       6.994  32.096  60.218  1.00  0.00    -0.052 A 
HETATM   23  C   UNL     1       8.255  32.150  59.599  1.00  0.00     0.007 A 
HETATM   24  C   UNL     1       9.437  32.034  60.335  1.00  0.00     0.001 A 
HETATM   25  C   UNL     1       9.382  31.864  61.716  1.00  0.00     0.000 A 
HETATM   26  C   UNL     1       8.147  31.821  62.356  1.00  0.00     0.001 A 
HETATM   27  C   UNL     1       6.969  31.945  61.614  1.00  0.00     0.007 A 
ENDBRANCH  20  22
ENDBRANCH   3  19
TORSDOF 6
ENDMDL
MODEL 5
REMARK VINA RESULT:      -8.2      1.905      2.987
REMARK  6 active torsions:
REMARK  status: ('A' for Active; 'I' for Inactive)
REMARK    1  A    between atoms: C_2  and  O_3 
REMARK    2  A    between atoms: O_3  and  C_4 
REMARK    3  A    between atoms: C_8  and  C_9 
REMARK    4  A    between atoms: C_9  and  N_10 
REMARK       I    between atoms: N_10  and  C_11 
REMARK       I    between atoms: C_11  and  N_12 
REMARK    5  A    between atoms: N_12  and  C_13 
REMARK    6  A    between atoms: C_14  and  C_15 
ROOT
HETATM    1  N   UNL     1       7.680  27.476  55.806  1.00  0.00    -0.339 N 
HETATM    2  C   UNL     1       7.405  27.227  54.485  1.00  0.00     0.316 C 
HETATM    3  N   UNL     1       7.882  25.996  54.092  1.00  0.00    -0.338 N 
HETATM    4  O   UNL     1       6.811  28.004  53.748  1.00  0.00    -0.247 OA
HETATM    5  H   UNL     1       7.778  26.669  56.401  1.00  0.00     0.164 HD
HETATM    6  H   UNL     1       8.715  25.692  54.579  1.00  0.00     0.164 HD
ENDROOT
BRANCH   1   7
HETATM    7  C   UNL     1       7.275  28.714  56.434  1.00  0.00     0.163 C 
BRANCH   7   8
HETATM    8  C   UNL     1       8.445  29.540  56.896  1.00  0.00    -0.035 A 
HETATM    9  C   UNL     1       9.738  29.288  56.427  1.00  0.00     0.028 A 
HETATM   10  C   UNL     1      10.785  30.052  56.914  1.00  0.00     0.120 A 
HETATM   11  N   UNL     1      10.640  31.027  57.836  1.00  0.00    -0.237 NA
HETATM   12  C   UNL     1       9.395  31.249  58.290  1.00  0.00     0.165 A 
HETATM   13  C   UNL     1       8.278  30.558  57.841  1.00  0.00     0.066 A 
BRANCH  12  14
HETATM   14  O   UNL     1       9.160  32.230  59.226  1.00  0.00    -0.324 OA
BRANCH  14  15
HETATM   15  C   UNL     1       8.965  31.856  60.603  1.00  0.00     0.058 C 
HETATM   16  C   UNL     1      10.167  32.214  61.490  1.00  0.00     0.045 C 
HETATM   17  C   UNL     1       8.540  30.388  60.769  1.00  0.00     0.045 C 
HETATM   18  C   UNL     1       7.781  32.733  61.056  1.00  0.00     0.045 C 
ENDBRANCH  14  15
ENDBRANCH  12  14
ENDBRANCH   7   8
ENDBRANCH   1   7
BRANCH   3  19
HETATM   19  C   UNL     1       7.723  25.544  52.738  1.00  0.00     0.095 A 
HETATM   20  C   UNL     1       7.642  24.083  52.351  1.00  0.00     0.043 A 
HETATM   21  C   UNL     1       6.416  24.964  52.285  1.00  0.00     0.037 A 
BRANCH  20  22
HETATM   22  C   UNL     1       7.706  22.963  53.363  1.00  0.00    -0.052 A 
HETATM   23  C   UNL     1       8.085  21.663  52.986  1.00  0.00     0.007 A 
HETATM   24  C   UNL     1       8.185  20.629  53.920  1.00  0.00     0.001 A 
HETATM   25  C   UNL     1       7.908  20.877  55.262  1.00  0.00     0.000 A 
HETATM   26  C   UNL     1       7.544  22.157  55.666  1.00  0.00     0.001 A 
HETATM   27  C   UNL     1       7.453  23.188  54.726  1.00  0.00     0.007 A 
ENDBRANCH  20  22
ENDBRANCH   3  19
TORSDOF 6
ENDMDL
MODEL 6
REMARK VINA RESULT:      -8.1      5.953      8.665
REMARK  6 active torsions:
REMARK  status: ('A' for Active; 'I' for Inactive)
REMARK    1  A    between atoms: C_2  and  O_3 
REMARK    2  A    between atoms: O_3  and  C_4 
REMARK    3  A    between atoms: C_8  and  C_9 
REMARK    4  A    between atoms: C_9  and  N_10 
REMARK       I    between atoms: N_10  and  C_11 
REMARK       I    between atoms: C_11  and  N_12 
REMARK    5  A    between atoms: N_12  and  C_13 
REMARK    6  A    between atoms: C_14  and  C_15 
ROOT
HETATM    1  N   UNL     1       4.252  27.024  53.554  1.00  0.00    -0.339 N 
HETATM    2  C   UNL     1       4.146  28.204  52.862  1.00  0.00     0.316 C 
HETATM    3  N   UNL     1       3.022  28.225  52.066  1.00  0.00    -0.338 N 
HETATM    4  O   UNL     1       4.951  29.123  52.942  1.00  0.00    -0.247 OA
HETATM    5  H   UNL     1       3.389  26.540  53.745  1.00  0.00     0.164 HD
HETATM    6  H   UNL     1       2.736  27.320  51.716  1.00  0.00     0.164 HD
ENDROOT
BRANCH   1   7
HETATM    7  C   UNL     1       5.360  26.779  54.449  1.00  0.00     0.163 C 
BRANCH   7   8
HETATM    8  C   UNL     1       6.325  25.756  53.913  1.00  0.00    -0.035 A 
HETATM    9  C   UNL     1       7.145  26.040  52.817  1.00  0.00     0.028 A 
HETATM   10  C   UNL     1       7.986  25.050  52.338  1.00  0.00     0.120 A 
HETATM   11  N   UNL     1       8.057  23.807  52.859  1.00  0.00    -0.237 NA
HETATM   12  C   UNL     1       7.253  23.541  53.902  1.00  0.00     0.165 A 
HETATM   13  C   UNL     1       6.399  24.476  54.472  1.00  0.00     0.066 A 
BRANCH  12  14
HETATM   14  O   UNL     1       7.269  22.299  54.496  1.00  0.00    -0.324 OA
BRANCH  14  15
HETATM   15  C   UNL     1       8.224  22.032  55.540  1.00  0.00     0.058 C 
HETATM   16  C   UNL     1       7.949  20.710  56.270  1.00  0.00     0.045 C 
HETATM   17  C   UNL     1       8.387  23.209  56.515  1.00  0.00     0.045 C 
HETATM   18  C   UNL     1       9.557  21.873  54.782  1.00  0.00     0.045 C 
ENDBRANCH  14  15
ENDBRANCH  12  14
ENDBRANCH   7   8
ENDBRANCH   1   7
BRANCH   3  19
HETATM   19  C   UNL     1       2.729  29.360  51.237  1.00  0.00     0.095 A 
HETATM   20  C   UNL     1       2.705  29.304  49.724  1.00  0.00     0.043 A 
HETATM   21  C   UNL     1       1.421  29.446  50.508  1.00  0.00     0.037 A 
BRANCH  20  22
HETATM   22  C   UNL     1       2.974  28.037  48.947  1.00  0.00    -0.052 A 
HETATM   23  C   UNL     1       1.930  27.325  48.332  1.00  0.00     0.007 A 
HETATM   24  C   UNL     1       2.172  26.173  47.580  1.00  0.00     0.001 A 
HETATM   25  C   UNL     1       3.474  25.707  47.423  1.00  0.00     0.000 A 
HETATM   26  C   UNL     1       4.529  26.399  48.010  1.00  0.00     0.001 A 
HETATM   27  C   UNL     1       4.280  27.555  48.755  1.00  0.00     0.007 A 
ENDBRANCH  20  22
ENDBRANCH   3  19
TORSDOF 6
ENDMDL
MODEL 7
REMARK VINA RESULT:      -8.1      3.137      5.688
REMARK  6 active torsions:
REMARK  status: ('A' for Active; 'I' for Inactive)
REMARK    1  A    between atoms: C_2  and  O_3 
REMARK    2  A    between atoms: O_3  and  C_4 
REMARK    3  A    between atoms: C_8  and  C_9 
REMARK    4  A    between atoms: C_9  and  N_10 
REMARK       I    between atoms: N_10  and  C_11 
REMARK       I    between atoms: C_11  and  N_12 
REMARK    5  A    between atoms: N_12  and  C_13 
REMARK    6  A    between atoms: C_14  and  C_15 
ROOT
HETATM    1  N   UNL     1       7.737  30.765  60.729  1.00  0.00    -0.339 N 
HETATM    2  C   UNL     1       7.742  31.137  59.408  1.00  0.00     0.316 C 
HETATM    3  N   UNL     1       7.013  30.262  58.633  1.00  0.00    -0.338 N 
HETATM    4  O   UNL     1       8.324  32.122  58.975  1.00  0.00    -0.247 OA
HETATM    5  H   UNL     1       6.940  30.231  61.039  1.00  0.00     0.164 HD
HETATM    6  H   UNL     1       7.007  29.307  58.967  1.00  0.00     0.164 HD
ENDROOT
BRANCH   1   7
HETATM    7  C   UNL     1       8.444  31.537  61.727  1.00  0.00     0.163 C 
BRANCH   7   8
HETATM    8  C   UNL     1       7.518  32.194  62.714  1.00  0.00    -0.035 A 
HETATM    9  C   UNL     1       8.010  32.790  63.880  1.00  0.00     0.028 A 
HETATM   10  C   UNL     1       7.111  33.347  64.774  1.00  0.00     0.120 A 
HETATM   11  N   UNL     1       5.773  33.339  64.600  1.00  0.00    -0.237 NA
HETATM   12  C   UNL     1       5.312  32.749  63.484  1.00  0.00     0.165 A 
HETATM   13  C   UNL     1       6.134  32.192  62.513  1.00  0.00     0.066 A 
BRANCH  12  14
HETATM   14  O   UNL     1       3.961  32.705  63.227  1.00  0.00    -0.324 OA
BRANCH  14  15
HETATM   15  C   UNL     1       3.336  33.815  62.556  1.00  0.00     0.058 C 
HETATM   16  C   UNL     1       4.247  35.049  62.479  1.00  0.00     0.045 C 
HETATM   17  C   UNL     1       1.949  34.154  63.126  1.00  0.00     0.045 C 
HETATM   18  C   UNL     1       3.130  33.303  61.116  1.00  0.00     0.045 C 
ENDBRANCH  14  15
ENDBRANCH  12  14
ENDBRANCH   7   8
ENDBRANCH   1   7
BRANCH   3  19
HETATM   19  C   UNL     1       6.906  30.452  57.214  1.00  0.00     0.095 A 
HETATM   20  C   UNL     1       6.861  29.310  56.221  1.00  0.00     0.043 A 
HETATM   21  C   UNL     1       5.624  30.132  56.504  1.00  0.00     0.037 A 
BRANCH  20  22
HETATM   22  C   UNL     1       6.908  27.859  56.639  1.00  0.00    -0.052 A 
HETATM   23  C   UNL     1       5.742  27.076  56.681  1.00  0.00     0.007 A 
HETATM   24  C   UNL     1       5.780  25.723  57.030  1.00  0.00     0.001 A 
HETATM   25  C   UNL     1       6.995  25.120  57.343  1.00  0.00     0.000 A 
HETATM   26  C   UNL     1       8.168  25.868  57.296  1.00  0.00     0.001 A 
HETATM   27  C   UNL     1       8.122  27.219  56.940  1.00  0.00     0.007 A 
ENDBRANCH  20  22
ENDBRANCH   3  19
TORSDOF 6
ENDMDL
MODEL 8
REMARK VINA RESULT:      -8.0      1.974      9.064
REMARK  6 active torsions:
REMARK  status: ('A' for Active; 'I' for Inactive)
REMARK    1  A    between atoms: C_2  and  O_3 
REMARK    2  A    between atoms: O_3  and  C_4 
REMARK    3  A    between atoms: C_8  and  C_9 
REMARK    4  A    between atoms: C_9  and  N_10 
REMARK       I    between atoms: N_10  and  C_11 
REMARK       I    between atoms: C_11  and  N_12 
REMARK    5  A    between atoms: N_12  and  C_13 
REMARK    6  A    between atoms: C_14  and  C_15 
ROOT
HETATM    1  N   UNL     1       7.240  27.360  57.358  1.00  0.00    -0.339 N 
HETATM    2  C   UNL     1       7.799  28.510  56.860  1.00  0.00     0.316 C 
HETATM    3  N   UNL     1       8.898  28.898  57.594  1.00  0.00    -0.338 N 
HETATM    4  O   UNL     1       7.370  29.116  55.887  1.00  0.00    -0.247 OA
HETATM    5  H   UNL     1       7.863  26.740  57.853  1.00  0.00     0.164 HD
HETATM    6  H   UNL     1       8.862  28.647  58.573  1.00  0.00     0.164 HD
ENDROOT
BRANCH   1   7
HETATM    7  C   UNL     1       6.070  26.771  56.746  1.00  0.00     0.163 C 
BRANCH   7   8
HETATM    8  C   UNL     1       6.416  25.730  55.715  1.00  0.00    -0.035 A 
HETATM    9  C   UNL     1       6.433  26.040  54.352  1.00  0.00     0.028 A 
HETATM   10  C   UNL     1       6.719  25.036  53.443  1.00  0.00     0.120 A 
HETATM   11  N   UNL     1       6.973  23.757  53.789  1.00  0.00    -0.237 NA
HETATM   12  C   UNL     1       6.939  23.468  55.101  1.00  0.00     0.165 A 
HETATM   13  C   UNL     1       6.692  24.411  56.090  1.00  0.00     0.066 A 
BRANCH  12  14
HETATM   14  O   UNL     1       7.193  22.188  55.540  1.00  0.00    -0.324 OA
BRANCH  14  15
HETATM   15  C   UNL     1       8.379  21.511  55.082  1.00  0.00     0.058 C 
HETATM   16  C   UNL     1       9.560  22.468  54.863  1.00  0.00     0.045 C 
HETATM   17  C   UNL     1       8.123  20.618  53.858  1.00  0.00     0.045 C 
HETATM   18  C   UNL     1       8.747  20.586  56.260  1.00  0.00     0.045 C 
ENDBRANCH  14  15
ENDBRANCH  12  14
ENDBRANCH   7   8
ENDBRANCH   1   7
BRANCH   3  19
HETATM   19  C   UNL     1       9.621  30.092  57.259  1.00  0.00     0.095 A 
HETATM   20  C   UNL     1       9.688  31.307  58.159  1.00  0.00     0.043 A 
HETATM   21  C   UNL     1      10.900  30.425  57.969  1.00  0.00     0.037 A 
BRANCH  20  22
HETATM   22  C   UNL     1       9.007  31.366  59.507  1.00  0.00    -0.052 A 
HETATM   23  C   UNL     1       7.719  31.912  59.648  1.00  0.00     0.007 A 
HETATM   24  C   UNL     1       7.066  31.936  60.882  1.00  0.00     0.001 A 
HETATM   25  C   UNL     1       7.689  31.408  62.009  1.00  0.00     0.000 A 
HETATM   26  C   UNL     1       8.958  30.849  61.896  1.00  0.00     0.001 A 
HETATM   27  C   UNL     1       9.603  30.822  60.656  1.00  0.00     0.007 A 
ENDBRANCH  20  22
ENDBRANCH   3  19
TORSDOF 6
ENDMDL
MODEL 9
REMARK VINA RESULT:      -7.9      5.195      8.308
REMARK  6 active torsions:
REMARK  status: ('A' for Active; 'I' for Inactive)
REMARK    1  A    between atoms: C_2  and  O_3 
REMARK    2  A    between atoms: O_3  and  C_4 
REMARK    3  A    between atoms: C_8  and  C_9 
REMARK    4  A    between atoms: C_9  and  N_10 
REMARK       I    between atoms: N_10  and  C_11 
REMARK       I    between atoms: C_11  and  N_12 
REMARK    5  A    between atoms: N_12  and  C_13 
REMARK    6  A    between atoms: C_14  and  C_15 
ROOT
HETATM    1  N   UNL     1       4.944  26.487  54.797  1.00  0.00    -0.339 N 
HETATM    2  C   UNL     1       5.842  26.311  55.820  1.00  0.00     0.316 C 
HETATM    3  N   UNL     1       6.247  24.998  55.918  1.00  0.00    -0.338 N 
HETATM    4  O   UNL     1       6.231  27.210  56.554  1.00  0.00    -0.247 OA
HETATM    5  H   UNL     1       5.007  25.834  54.031  1.00  0.00     0.164 HD
HETATM    6  H   UNL     1       5.553  24.320  55.632  1.00  0.00     0.164 HD
ENDROOT
BRANCH   1   7
HETATM    7  C   UNL     1       4.380  27.787  54.512  1.00  0.00     0.163 C 
BRANCH   7   8
HETATM    8  C   UNL     1       4.640  28.235  53.099  1.00  0.00    -0.035 A 
HETATM    9  C   UNL     1       4.839  29.585  52.794  1.00  0.00     0.028 A 
HETATM   10  C   UNL     1       5.035  29.948  51.472  1.00  0.00     0.120 A 
HETATM   11  N   UNL     1       5.033  29.075  50.443  1.00  0.00    -0.237 NA
HETATM   12  C   UNL     1       4.825  27.783  50.748  1.00  0.00     0.165 A 
HETATM   13  C   UNL     1       4.650  27.317  52.044  1.00  0.00     0.066 A 
BRANCH  12  14
HETATM   14  O   UNL     1       4.814  26.826  49.757  1.00  0.00    -0.324 OA
BRANCH  14  15
HETATM   15  C   UNL     1       3.903  26.970  48.652  1.00  0.00     0.058 C 
HETATM   16  C   UNL     1       4.592  27.482  47.379  1.00  0.00     0.045 C 
HETATM   17  C   UNL     1       2.656  27.797  49.008  1.00  0.00     0.045 C 
HETATM   18  C   UNL     1       3.435  25.527  48.375  1.00  0.00     0.045 C 
ENDBRANCH  14  15
ENDBRANCH  12  14
ENDBRANCH   7   8
ENDBRANCH   1   7
BRANCH   3  19
HETATM   19  C   UNL     1       7.170  24.588  56.939  1.00  0.00     0.095 A 
HETATM   20  C   UNL     1       8.085  23.390  56.804  1.00  0.00     0.043 A 
HETATM   21  C   UNL     1       8.644  24.793  56.751  1.00  0.00     0.037 A 
BRANCH  20  22
HETATM   22  C   UNL     1       8.121  22.522  55.567  1.00  0.00    -0.052 A 
HETATM   23  C   UNL     1       8.520  23.043  54.325  1.00  0.00     0.007 A 
HETATM   24  C   UNL     1       8.593  22.241  53.183  1.00  0.00     0.001 A 
HETATM   25  C   UNL     1       8.270  20.889  53.263  1.00  0.00     0.000 A 
HETATM   26  C   UNL     1       7.884  20.343  54.483  1.00  0.00     0.001 A 
HETATM   27  C   UNL     1       7.820  21.151  55.622  1.00  0.00     0.007 A 
ENDBRANCH  20  22
ENDBRANCH   3  19
TORSDOF 6
ENDMDL
MODEL 10
REMARK VINA RESULT:      -7.9      5.234      8.539
REMARK  6 active torsions:
REMARK  status: ('A' for Active; 'I' for Inactive)
REMARK    1  A    between atoms: C_2  and  O_3 
REMARK    2  A    between atoms: O_3  and  C_4 
REMARK    3  A    between atoms: C_8  and  C_9 
REMARK    4  A    between atoms: C_9  and  N_10 
REMARK       I    between atoms: N_10  and  C_11 
REMARK       I    between atoms: C_11  and  N_12 
REMARK    5  A    between atoms: N_12  and  C_13 
REMARK    6  A    between atoms: C_14  and  C_15 
ROOT
HETATM    1  N   UNL     1       4.849  26.399  54.435  1.00  0.00    -0.339 N 
HETATM    2  C   UNL     1       5.841  26.328  55.380  1.00  0.00     0.316 C 
HETATM    3  N   UNL     1       5.967  25.054  55.888  1.00  0.00    -0.338 N 
HETATM    4  O   UNL     1       6.525  27.281  55.730  1.00  0.00    -0.247 OA
HETATM    5  H   UNL     1       4.648  25.546  53.935  1.00  0.00     0.164 HD
HETATM    6  H   UNL     1       5.108  24.520  55.907  1.00  0.00     0.164 HD
ENDROOT
BRANCH   1   7
HETATM    7  C   UNL     1       4.536  27.644  53.770  1.00  0.00     0.163 C 
BRANCH   7   8
HETATM    8  C   UNL     1       4.510  27.510  52.271  1.00  0.00    -0.035 A 
HETATM    9  C   UNL     1       5.072  26.400  51.634  1.00  0.00     0.028 A 
HETATM   10  C   UNL     1       5.056  26.345  50.251  1.00  0.00     0.120 A 
HETATM   11  N   UNL     1       4.539  27.312  49.465  1.00  0.00    -0.237 NA
HETATM   12  C   UNL     1       4.015  28.381  50.088  1.00  0.00     0.165 A 
HETATM   13  C   UNL     1       3.956  28.514  51.469  1.00  0.00     0.066 A 
BRANCH  12  14
HETATM   14  O   UNL     1       3.461  29.410  49.361  1.00  0.00    -0.324 OA
BRANCH  14  15
HETATM   15  C   UNL     1       2.057  29.369  49.043  1.00  0.00     0.058 C 
HETATM   16  C   UNL     1       1.200  30.158  50.042  1.00  0.00     0.045 C 
HETATM   17  C   UNL     1       1.534  27.939  48.833  1.00  0.00     0.045 C 
HETATM   18  C   UNL     1       1.970  30.095  47.685  1.00  0.00     0.045 C 
ENDBRANCH  14  15
ENDBRANCH  12  14
ENDBRANCH   7   8
ENDBRANCH   1   7
BRANCH   3  19
HETATM   19  C   UNL     1       6.933  24.762  56.909  1.00  0.00     0.095 A 
HETATM   20  C   UNL     1       7.923  23.621  56.820  1.00  0.00     0.043 A 
HETATM   21  C   UNL     1       8.387  25.053  56.680  1.00  0.00     0.037 A 
BRANCH  20  22
HETATM   22  C   UNL     1       7.995  22.690  55.632  1.00  0.00    -0.052 A 
HETATM   23  C   UNL     1       8.357  23.163  54.359  1.00  0.00     0.007 A 
HETATM   24  C   UNL     1       8.463  22.304  53.262  1.00  0.00     0.001 A 
HETATM   25  C   UNL     1       8.211  20.944  53.417  1.00  0.00     0.000 A 
HETATM   26  C   UNL     1       7.864  20.446  54.669  1.00  0.00     0.001 A 
HETATM   27  C   UNL     1       7.767  21.310  55.763  1.00  0.00     0.007 A 
ENDBRANCH  20  22
ENDBRANCH   3  19
TORSDOF 6
ENDMDL
