MODEL 1
REMARK VINA RESULT:     -11.3      0.000      0.000
REMARK  7 active torsions:
REMARK  status: ('A' for Active; 'I' for Inactive)
REMARK    1  A    between atoms: C_5  and  O_6 
REMARK    2  A    between atoms: O_6  and  C_7 
REMARK    3  A    between atoms: C_7  and  C_8 
REMARK    4  A    between atoms: C_9  and  C_10 
REMARK    5  A    between atoms: C_10  and  N_11 
REMARK       I    between atoms: N_11  and  C_12 
REMARK    6  A    between atoms: C_12  and  C_13 
REMARK    7  A    between atoms: C_17  and  C_18 
ROOT
HETATM    1  N   UNL     1       7.746  29.451  58.741  1.00  0.00    -0.345 N 
HETATM    2  C   UNL     1       8.239  30.670  59.136  1.00  0.00     0.270 C 
HETATM    3  O   UNL     1       8.852  31.418  58.381  1.00  0.00    -0.266 OA
HETATM    4  H   UNL     1       7.378  28.814  59.430  1.00  0.00     0.163 HD
ENDROOT
BRANCH   1   5
HETATM    5  C   UNL     1       7.916  28.962  57.396  1.00  0.00     0.217 C 
BRANCH   5   6
HETATM    6  C   UNL     1       7.988  27.499  57.382  1.00  0.00    -0.085 C 
HETATM    7  C   UNL     1       8.101  26.302  57.361  1.00  0.00    -0.078 C 
BRANCH   7   8
HETATM    8  C   UNL     1       8.290  24.844  57.334  1.00  0.00     0.269 C 
BRANCH   8   9
HETATM    9  O   UNL     1       7.219  24.261  56.596  1.00  0.00    -0.339 OA
BRANCH   9  10
HETATM   10  C   UNL     1       7.417  24.006  55.259  1.00  0.00     0.081 A 
HETATM   11  C   UNL     1       7.799  22.680  54.929  1.00  0.00     0.007 A 
HETATM   12  C   UNL     1       8.022  22.342  53.572  1.00  0.00    -0.023 A 
HETATM   13  C   UNL     1       7.968  21.665  55.898  1.00  0.00     0.015 A 
HETATM   14  C   UNL     1       8.400  21.033  53.228  1.00  0.00     0.012 A 
HETATM   15  C   UNL     1       7.863  23.320  52.580  1.00  0.00     0.012 A 
HETATM   16  C   UNL     1       8.561  20.053  54.207  1.00  0.00     0.001 A 
HETATM   17  C   UNL     1       8.345  20.368  55.543  1.00  0.00     0.001 A 
HETATM   18  C   UNL     1       7.490  24.620  52.916  1.00  0.00     0.004 A 
HETATM   19  C   UNL     1       7.269  24.963  54.249  1.00  0.00     0.038 A 
ENDBRANCH   9  10
ENDBRANCH   8   9
ENDBRANCH   7   8
ENDBRANCH   5   6
ENDBRANCH   1   5
BRANCH   2  20
HETATM   20  C   UNL     1       7.981  31.024  60.506  1.00  0.00     0.120 A 
HETATM   21  N   UNL     1       8.665  30.435  61.532  1.00  0.00    -0.272 N 
HETATM   22  H   UNL     1       9.381  29.719  61.451  1.00  0.00     0.189 HD
HETATM   23  N   UNL     1       8.323  30.880  62.749  1.00  0.00    -0.174 NA
HETATM   24  C   UNL     1       7.401  31.827  62.520  1.00  0.00     0.089 A 
HETATM   25  C   UNL     1       7.142  31.932  61.122  1.00  0.00     0.071 A 
BRANCH  24  26
HETATM   26  C   UNL     1       6.807  32.600  63.618  1.00  0.00    -0.005 A 
HETATM   27  C   UNL     1       5.415  32.749  63.733  1.00  0.00     0.017 A 
HETATM   28  C   UNL     1       4.864  33.500  64.777  1.00  0.00     0.043 A 
HETATM   29  C   UNL     1       5.701  34.100  65.708  1.00  0.00     0.116 A 
HETATM   30  F   UNL     1       5.170  34.820  66.705  1.00  0.00    -0.206 F 
HETATM   31  C   UNL     1       7.080  33.969  65.617  1.00  0.00     0.043 A 
HETATM   32  C   UNL     1       7.631  33.221  64.572  1.00  0.00     0.017 A 
ENDBRANCH  24  26
ENDBRANCH   2  20
TORSDOF 7
ENDMDL
MODEL 2
REMARK VINA RESULT:     -11.2      1.234      1.368
REMARK  7 active torsions:
REMARK  status: ('A' for Active; 'I' for Inactive)
REMARK    1  A    between atoms: C_5  and  O_6 
REMARK    2  A    between atoms: O_6  and  C_7 
REMARK    3  A    between atoms: C_7  and  C_8 
REMARK    4  A    between atoms: C_9  and  C_10 
REMARK    5  A    between atoms: C_10  and  N_11 
REMARK       I    between atoms: N_11  and  C_12 
REMARK    6  A    between atoms: C_12  and  C_13 
REMARK    7  A    between atoms: C_17  and  C_18 
ROOT
HETATM    1  N   UNL     1       7.714  30.267  59.182  1.00  0.00    -0.345 N 
HETATM    2  C   UNL     1       8.026  31.525  59.636  1.00  0.00     0.270 C 
HETATM    3  O   UNL     1       8.891  32.225  59.120  1.00  0.00    -0.266 OA
HETATM    4  H   UNL     1       7.101  29.679  59.724  1.00  0.00     0.163 HD
ENDROOT
BRANCH   1   5
HETATM    5  C   UNL     1       8.389  29.678  58.053  1.00  0.00     0.217 C 
BRANCH   5   6
HETATM    6  C   UNL     1       7.711  28.450  57.629  1.00  0.00    -0.085 C 
HETATM    7  C   UNL     1       7.195  27.435  57.244  1.00  0.00    -0.078 C 
BRANCH   7   8
HETATM    8  C   UNL     1       6.606  26.183  56.746  1.00  0.00     0.269 C 
BRANCH   8   9
HETATM    9  O   UNL     1       7.659  25.323  56.319  1.00  0.00    -0.339 OA
BRANCH   9  10
HETATM   10  C   UNL     1       7.697  24.954  54.995  1.00  0.00     0.081 A 
HETATM   11  C   UNL     1       7.763  23.558  54.741  1.00  0.00     0.007 A 
HETATM   12  C   UNL     1       7.806  23.101  53.401  1.00  0.00    -0.023 A 
HETATM   13  C   UNL     1       7.786  22.590  55.770  1.00  0.00     0.015 A 
HETATM   14  C   UNL     1       7.872  21.723  53.133  1.00  0.00     0.012 A 
HETATM   15  C   UNL     1       7.784  24.030  52.352  1.00  0.00     0.012 A 
HETATM   16  C   UNL     1       7.895  20.791  54.170  1.00  0.00     0.001 A 
HETATM   17  C   UNL     1       7.852  21.224  55.490  1.00  0.00     0.001 A 
HETATM   18  C   UNL     1       7.721  25.397  52.613  1.00  0.00     0.004 A 
HETATM   19  C   UNL     1       7.679  25.858  53.928  1.00  0.00     0.038 A 
ENDBRANCH   9  10
ENDBRANCH   8   9
ENDBRANCH   7   8
ENDBRANCH   5   6
ENDBRANCH   1   5
BRANCH   2  20
HETATM   20  C   UNL     1       7.260  31.979  60.765  1.00  0.00     0.120 A 
HETATM   21  N   UNL     1       5.896  31.897  60.777  1.00  0.00    -0.272 N 
HETATM   22  H   UNL     1       5.303  31.538  60.034  1.00  0.00     0.189 HD
HETATM   23  N   UNL     1       5.326  32.347  61.904  1.00  0.00    -0.174 NA
HETATM   24  C   UNL     1       6.355  32.708  62.686  1.00  0.00     0.089 A 
HETATM   25  C   UNL     1       7.588  32.513  61.996  1.00  0.00     0.071 A 
BRANCH  24  26
HETATM   26  C   UNL     1       6.142  33.214  64.047  1.00  0.00    -0.005 A 
HETATM   27  C   UNL     1       4.848  33.418  64.554  1.00  0.00     0.017 A 
HETATM   28  C   UNL     1       4.661  33.913  65.849  1.00  0.00     0.043 A 
HETATM   29  C   UNL     1       5.766  34.204  66.639  1.00  0.00     0.116 A 
HETATM   30  F   UNL     1       5.583  34.681  67.878  1.00  0.00    -0.206 F 
HETATM   31  C   UNL     1       7.055  34.013  66.162  1.00  0.00     0.043 A 
HETATM   32  C   UNL     1       7.242  33.521  64.868  1.00  0.00     0.017 A 
ENDBRANCH  24  26
ENDBRANCH   2  20
TORSDOF 7
ENDMDL
MODEL 3
REMARK VINA RESULT:     -10.7      1.811      2.590
REMARK  7 active torsions:
REMARK  status: ('A' for Active; 'I' for Inactive)
REMARK    1  A    between atoms: C_5  and  O_6 
REMARK    2  A    between atoms: O_6  and  C_7 
REMARK    3  A    between atoms: C_7  and  C_8 
REMARK    4  A    between atoms: C_9  and  C_10 
REMARK    5  A    between atoms: C_10  and  N_11 
REMARK       I    between atoms: N_11  and  C_12 
REMARK    6  A    between atoms: C_12  and  C_13 
REMARK    7  A    between atoms: C_17  and  C_18 
ROOT
HETATM    1  N   UNL     1       9.044  30.183  57.740  1.00  0.00    -0.345 N 
HETATM    2  C   UNL     1       9.513  31.284  58.412  1.00  0.00     0.270 C 
HETATM    3  O   UNL     1      10.611  31.784  58.189  1.00  0.00    -0.266 OA
HETATM    4  H   UNL     1       8.204  29.725  58.056  1.00  0.00     0.163 HD
ENDROOT
BRANCH   1   5
HETATM    5  C   UNL     1       9.818  29.533  56.712  1.00  0.00     0.217 C 
BRANCH   5   6
HETATM    6  C   UNL     1       8.948  29.049  55.637  1.00  0.00    -0.085 C 
HETATM    7  C   UNL     1       8.192  28.654  54.790  1.00  0.00    -0.078 C 
BRANCH   7   8
HETATM    8  C   UNL     1       7.228  28.182  53.786  1.00  0.00     0.269 C 
BRANCH   8   9
HETATM    9  O   UNL     1       6.622  26.984  54.265  1.00  0.00    -0.339 OA
BRANCH   9  10
HETATM   10  C   UNL     1       7.134  25.782  53.836  1.00  0.00     0.081 A 
HETATM   11  C   UNL     1       7.592  24.903  54.853  1.00  0.00     0.007 A 
HETATM   12  C   UNL     1       8.133  23.646  54.488  1.00  0.00    -0.023 A 
HETATM   13  C   UNL     1       7.531  25.221  56.228  1.00  0.00     0.015 A 
HETATM   14  C   UNL     1       8.591  22.765  55.482  1.00  0.00     0.012 A 
HETATM   15  C   UNL     1       8.209  23.293  53.134  1.00  0.00     0.012 A 
HETATM   16  C   UNL     1       8.519  23.107  56.831  1.00  0.00     0.001 A 
HETATM   17  C   UNL     1       7.989  24.336  57.206  1.00  0.00     0.001 A 
HETATM   18  C   UNL     1       7.759  24.164  52.144  1.00  0.00     0.004 A 
HETATM   19  C   UNL     1       7.225  25.404  52.493  1.00  0.00     0.038 A 
ENDBRANCH   9  10
ENDBRANCH   8   9
ENDBRANCH   7   8
ENDBRANCH   5   6
ENDBRANCH   1   5
BRANCH   2  20
HETATM   20  C   UNL     1       8.622  31.827  59.402  1.00  0.00     0.120 A 
HETATM   21  N   UNL     1       7.274  31.887  59.187  1.00  0.00    -0.272 N 
HETATM   22  H   UNL     1       6.779  31.585  58.353  1.00  0.00     0.189 HD
HETATM   23  N   UNL     1       6.576  32.404  60.208  1.00  0.00    -0.174 NA
HETATM   24  C   UNL     1       7.493  32.664  61.152  1.00  0.00     0.089 A 
HETATM   25  C   UNL     1       8.795  32.335  60.675  1.00  0.00     0.071 A 
BRANCH  24  26
HETATM   26  C   UNL     1       7.111  33.203  62.463  1.00  0.00    -0.005 A 
HETATM   27  C   UNL     1       7.756  32.783  63.638  1.00  0.00     0.017 A 
HETATM   28  C   UNL     1       7.372  33.295  64.882  1.00  0.00     0.043 A 
HETATM   29  C   UNL     1       6.345  34.227  64.954  1.00  0.00     0.116 A 
HETATM   30  F   UNL     1       5.979  34.714  66.147  1.00  0.00    -0.206 F 
HETATM   31  C   UNL     1       5.691  34.658  63.808  1.00  0.00     0.043 A 
HETATM   32  C   UNL     1       6.072  34.144  62.566  1.00  0.00     0.017 A 
ENDBRANCH  24  26
ENDBRANCH   2  20
TORSDOF 7
ENDMDL
MODEL 4
REMARK VINA RESULT:     -10.5      1.278      2.311
REMARK  7 active torsions:
REMARK  status: ('A' for Active; 'I' for Inactive)
REMARK    1  A    between atoms: C_5  and  O_6 
REMARK    2  A    between atoms: O_6  and  C_7 
REMARK    3  A    between atoms: C_7  and  C_8 
REMARK    4  A    between atoms: C_9  and  C_10 
REMARK    5  A    between atoms: C_10  and  N_11 
REMARK       I    between atoms: N_11  and  C_12 
REMARK    6  A    between atoms: C_12  and  C_13 
REMARK    7  A    between atoms: C_17  and  C_18 
ROOT
HETATM    1  N   UNL     1       8.193  30.125  58.434  1.00  0.00    -0.345 N 
HETATM    2  C   UNL     1       8.617  31.329  58.941  1.00  0.00     0.270 C 
HETATM    3  O   UNL     1       9.614  31.912  58.529  1.00  0.00    -0.266 OA
HETATM    4  H   UNL     1       7.457  29.619  58.899  1.00  0.00     0.163 HD
ENDROOT
BRANCH   1   5
HETATM    5  C   UNL     1       8.899  29.459  57.368  1.00  0.00     0.217 C 
BRANCH   5   6
HETATM    6  C   UNL     1       8.480  28.059  57.267  1.00  0.00    -0.085 C 
HETATM    7  C   UNL     1       8.089  26.923  57.209  1.00  0.00    -0.078 C 
BRANCH   7   8
HETATM    8  C   UNL     1       7.566  25.551  57.155  1.00  0.00     0.269 C 
BRANCH   8   9
HETATM    9  O   UNL     1       8.362  24.796  56.245  1.00  0.00    -0.339 OA
BRANCH   9  10
HETATM   10  C   UNL     1       8.325  23.424  56.335  1.00  0.00     0.081 A 
HETATM   11  C   UNL     1       8.187  22.724  55.108  1.00  0.00     0.007 A 
HETATM   12  C   UNL     1       8.140  21.308  55.122  1.00  0.00    -0.023 A 
HETATM   13  C   UNL     1       8.095  23.375  53.858  1.00  0.00     0.015 A 
HETATM   14  C   UNL     1       8.004  20.600  53.916  1.00  0.00     0.012 A 
HETATM   15  C   UNL     1       8.230  20.625  56.342  1.00  0.00     0.012 A 
HETATM   16  C   UNL     1       7.914  21.271  52.697  1.00  0.00     0.001 A 
HETATM   17  C   UNL     1       7.960  22.659  52.666  1.00  0.00     0.001 A 
HETATM   18  C   UNL     1       8.363  21.322  57.541  1.00  0.00     0.004 A 
HETATM   19  C   UNL     1       8.409  22.716  57.539  1.00  0.00     0.038 A 
ENDBRANCH   9  10
ENDBRANCH   8   9
ENDBRANCH   7   8
ENDBRANCH   5   6
ENDBRANCH   1   5
BRANCH   2  20
HETATM   20  C   UNL     1       7.803  31.874  59.994  1.00  0.00     0.120 A 
HETATM   21  N   UNL     1       6.442  31.915  59.890  1.00  0.00    -0.272 N 
HETATM   22  H   UNL     1       5.883  31.596  59.104  1.00  0.00     0.189 HD
HETATM   23  N   UNL     1       5.822  32.437  60.958  1.00  0.00    -0.174 NA
HETATM   24  C   UNL     1       6.811  32.720  61.821  1.00  0.00     0.089 A 
HETATM   25  C   UNL     1       8.074  32.400  61.242  1.00  0.00     0.071 A 
BRANCH  24  26
HETATM   26  C   UNL     1       6.531  33.271  63.153  1.00  0.00    -0.005 A 
HETATM   27  C   UNL     1       7.460  33.154  64.199  1.00  0.00     0.017 A 
HETATM   28  C   UNL     1       7.174  33.672  65.466  1.00  0.00     0.043 A 
HETATM   29  C   UNL     1       5.961  34.308  65.690  1.00  0.00     0.116 A 
HETATM   30  F   UNL     1       5.689  34.801  66.906  1.00  0.00    -0.206 F 
HETATM   31  C   UNL     1       5.024  34.437  64.674  1.00  0.00     0.043 A 
HETATM   32  C   UNL     1       5.309  33.917  63.408  1.00  0.00     0.017 A 
ENDBRANCH  24  26
ENDBRANCH   2  20
TORSDOF 7
ENDMDL
MODEL 5
REMARK VINA RESULT:     -10.2      1.359      2.607
REMARK  7 active torsions:
REMARK  status: ('A' for Active; 'I' for Inactive)
REMARK    1  A    between atoms: C_5  and  O_6 
REMARK    2  A    between atoms: O_6  and  C_7 
REMARK    3  A    between atoms: C_7  and  C_8 
REMARK    4  A    between atoms: C_9  and  C_10 
REMARK    5  A    between atoms: C_10  and  N_11 
REMARK       I    between atoms: N_11  and  C_12 
REMARK    6  A    between atoms: C_12  and  C_13 
REMARK    7  A    between atoms: C_17  and  C_18 
ROOT
HETATM    1  N   UNL     1       7.735  30.127  58.274  1.00  0.00    -0.345 N 
HETATM    2  C   UNL     1       8.448  30.823  59.218  1.00  0.00     0.270 C 
HETATM    3  O   UNL     1       9.670  30.922  59.192  1.00  0.00    -0.266 OA
HETATM    4  H   UNL     1       6.753  29.954  58.417  1.00  0.00     0.163 HD
ENDROOT
BRANCH   1   5
HETATM    5  C   UNL     1       8.382  29.460  57.172  1.00  0.00     0.217 C 
BRANCH   5   6
HETATM    6  C   UNL     1       8.226  28.008  57.282  1.00  0.00    -0.085 C 
HETATM    7  C   UNL     1       8.090  26.822  57.427  1.00  0.00    -0.078 C 
BRANCH   7   8
HETATM    8  C   UNL     1       7.910  25.381  57.652  1.00  0.00     0.269 C 
BRANCH   8   9
HETATM    9  O   UNL     1       6.794  24.936  56.885  1.00  0.00    -0.339 OA
BRANCH   9  10
HETATM   10  C   UNL     1       7.041  24.295  55.694  1.00  0.00     0.081 A 
HETATM   11  C   UNL     1       6.400  24.840  54.550  1.00  0.00     0.007 A 
HETATM   12  C   UNL     1       6.606  24.233  53.287  1.00  0.00    -0.023 A 
HETATM   13  C   UNL     1       5.559  25.974  54.608  1.00  0.00     0.015 A 
HETATM   14  C   UNL     1       5.979  24.760  52.146  1.00  0.00     0.012 A 
HETATM   15  C   UNL     1       7.435  23.108  53.188  1.00  0.00     0.012 A 
HETATM   16  C   UNL     1       5.152  25.880  52.235  1.00  0.00     0.001 A 
HETATM   17  C   UNL     1       4.942  26.488  53.466  1.00  0.00     0.001 A 
HETATM   18  C   UNL     1       8.057  22.579  54.317  1.00  0.00     0.004 A 
HETATM   19  C   UNL     1       7.861  23.169  55.565  1.00  0.00     0.038 A 
ENDBRANCH   9  10
ENDBRANCH   8   9
ENDBRANCH   7   8
ENDBRANCH   5   6
ENDBRANCH   1   5
BRANCH   2  20
HETATM   20  C   UNL     1       7.661  31.442  60.251  1.00  0.00     0.120 A 
HETATM   21  N   UNL     1       6.329  31.690  60.075  1.00  0.00    -0.272 N 
HETATM   22  H   UNL     1       5.778  31.487  59.246  1.00  0.00     0.189 HD
HETATM   23  N   UNL     1       5.730  32.257  61.132  1.00  0.00    -0.174 NA
HETATM   24  C   UNL     1       6.695  32.357  62.058  1.00  0.00     0.089 A 
HETATM   25  C   UNL     1       7.930  31.875  61.534  1.00  0.00     0.071 A 
BRANCH  24  26
HETATM   26  C   UNL     1       6.420  32.892  63.398  1.00  0.00    -0.005 A 
HETATM   27  C   UNL     1       5.107  33.155  63.821  1.00  0.00     0.017 A 
HETATM   28  C   UNL     1       4.861  33.677  65.095  1.00  0.00     0.043 A 
HETATM   29  C   UNL     1       5.926  33.937  65.948  1.00  0.00     0.116 A 
HETATM   30  F   UNL     1       5.687  34.440  67.167  1.00  0.00    -0.206 F 
HETATM   31  C   UNL     1       7.233  33.688  65.554  1.00  0.00     0.043 A 
HETATM   32  C   UNL     1       7.479  33.168  64.280  1.00  0.00     0.017 A 
ENDBRANCH  24  26
ENDBRANCH   2  20
TORSDOF 7
ENDMDL
MODEL 6
REMARK VINA RESULT:     -10.0      6.550      9.786
REMARK  7 active torsions:
REMARK  status: ('A' for Active; 'I' for Inactive)
REMARK    1  A    between atoms: C_5  and  O_6 
REMARK    2  A    between atoms: O_6  and  C_7 
REMARK    3  A    between atoms: C_7  and  C_8 
REMARK    4  A    between atoms: C_9  and  C_10 
REMARK    5  A    between atoms: C_10  and  N_11 
REMARK       I    between atoms: N_11  and  C_12 
REMARK    6  A    between atoms: C_12  and  C_13 
REMARK    7  A    between atoms: C_17  and  C_18 
ROOT
HETATM    1  N   UNL     1       6.752  28.870  55.212  1.00  0.00    -0.345 N 
HETATM    2  C   UNL     1       5.420  28.616  54.999  1.00  0.00     0.270 C 
HETATM    3  O   UNL     1       4.634  28.371  55.909  1.00  0.00    -0.266 OA
HETATM    4  H   UNL     1       7.382  28.923  54.427  1.00  0.00     0.163 HD
ENDROOT
BRANCH   1   5
HETATM    5  C   UNL     1       7.325  28.868  56.535  1.00  0.00     0.217 C 
BRANCH   5   6
HETATM    6  C   UNL     1       7.760  27.520  56.908  1.00  0.00    -0.085 C 
HETATM    7  C   UNL     1       8.096  26.395  57.167  1.00  0.00    -0.078 C 
BRANCH   7   8
HETATM    8  C   UNL     1       8.493  25.005  57.437  1.00  0.00     0.269 C 
BRANCH   8   9
HETATM    9  O   UNL     1       7.509  24.136  56.883  1.00  0.00    -0.339 OA
BRANCH   9  10
HETATM   10  C   UNL     1       7.556  23.881  55.533  1.00  0.00     0.081 A 
HETATM   11  C   UNL     1       7.948  22.568  55.162  1.00  0.00     0.007 A 
HETATM   12  C   UNL     1       8.020  22.230  53.788  1.00  0.00    -0.023 A 
HETATM   13  C   UNL     1       8.271  21.567  56.105  1.00  0.00     0.015 A 
HETATM   14  C   UNL     1       8.406  20.935  53.404  1.00  0.00     0.012 A 
HETATM   15  C   UNL     1       7.705  23.195  52.821  1.00  0.00     0.012 A 
HETATM   16  C   UNL     1       8.721  19.968  54.358  1.00  0.00     0.001 A 
HETATM   17  C   UNL     1       8.653  20.283  55.709  1.00  0.00     0.001 A 
HETATM   18  C   UNL     1       7.324  24.481  53.196  1.00  0.00     0.004 A 
HETATM   19  C   UNL     1       7.250  24.824  54.546  1.00  0.00     0.038 A 
ENDBRANCH   9  10
ENDBRANCH   8   9
ENDBRANCH   7   8
ENDBRANCH   5   6
ENDBRANCH   1   5
BRANCH   2  20
HETATM   20  C   UNL     1       4.996  28.664  53.626  1.00  0.00     0.120 A 
HETATM   21  N   UNL     1       4.981  29.839  52.928  1.00  0.00    -0.272 N 
HETATM   22  H   UNL     1       5.242  30.756  53.278  1.00  0.00     0.189 HD
HETATM   23  N   UNL     1       4.576  29.719  51.655  1.00  0.00    -0.174 NA
HETATM   24  C   UNL     1       4.347  28.407  51.493  1.00  0.00     0.089 A 
HETATM   25  C   UNL     1       4.579  27.712  52.716  1.00  0.00     0.071 A 
BRANCH  24  26
HETATM   26  C   UNL     1       3.929  27.857  50.197  1.00  0.00    -0.005 A 
HETATM   27  C   UNL     1       4.602  26.771  49.615  1.00  0.00     0.017 A 
HETATM   28  C   UNL     1       4.200  26.266  48.374  1.00  0.00     0.043 A 
HETATM   29  C   UNL     1       3.125  26.845  47.713  1.00  0.00     0.116 A 
HETATM   30  F   UNL     1       2.744  26.361  46.523  1.00  0.00    -0.206 F 
HETATM   31  C   UNL     1       2.443  27.920  48.265  1.00  0.00     0.043 A 
HETATM   32  C   UNL     1       2.846  28.426  49.504  1.00  0.00     0.017 A 
ENDBRANCH  24  26
ENDBRANCH   2  20
TORSDOF 7
ENDMDL
MODEL 7
REMARK VINA RESULT:      -9.8      4.717     11.941
REMARK  7 active torsions:
REMARK  status: ('A' for Active; 'I' for Inactive)
REMARK    1  A    between atoms: C_5  and  O_6 
REMARK    2  A    between atoms: O_6  and  C_7 
REMARK    3  A    between atoms: C_7  and  C_8 
REMARK    4  A    between atoms: C_9  and  C_10 
REMARK    5  A    between atoms: C_10  and  N_11 
REMARK       I    between atoms: N_11  and  C_12 
REMARK    6  A    between atoms: C_12  and  C_13 
REMARK    7  A    between atoms: C_17  and  C_18 
ROOT
HETATM    1  N   UNL     1       4.715  27.666  55.589  1.00  0.00    -0.345 N 
HETATM    2  C   UNL     1       5.319  27.600  54.358  1.00  0.00     0.270 C 
HETATM    3  O   UNL     1       5.183  28.467  53.501  1.00  0.00    -0.266 OA
HETATM    4  H   UNL     1       4.739  26.866  56.200  1.00  0.00     0.163 HD
ENDROOT
BRANCH   1   5
HETATM    5  C   UNL     1       3.872  28.774  55.964  1.00  0.00     0.217 C 
BRANCH   5   6
HETATM    6  C   UNL     1       4.646  29.794  56.677  1.00  0.00    -0.085 C 
HETATM    7  C   UNL     1       5.321  30.623  57.225  1.00  0.00    -0.078 C 
BRANCH   7   8
HETATM    8  C   UNL     1       6.179  31.636  57.856  1.00  0.00     0.269 C 
BRANCH   8   9
HETATM    9  O   UNL     1       6.020  31.551  59.270  1.00  0.00    -0.339 OA
BRANCH   9  10
HETATM   10  C   UNL     1       7.151  31.564  60.051  1.00  0.00     0.081 A 
HETATM   11  C   UNL     1       7.000  32.107  61.354  1.00  0.00     0.007 A 
HETATM   12  C   UNL     1       8.122  32.156  62.217  1.00  0.00    -0.023 A 
HETATM   13  C   UNL     1       5.771  32.606  61.841  1.00  0.00     0.015 A 
HETATM   14  C   UNL     1       7.989  32.691  63.510  1.00  0.00     0.012 A 
HETATM   15  C   UNL     1       9.359  31.670  61.772  1.00  0.00     0.012 A 
HETATM   16  C   UNL     1       6.763  33.177  63.962  1.00  0.00     0.001 A 
HETATM   17  C   UNL     1       5.653  33.135  63.128  1.00  0.00     0.001 A 
HETATM   18  C   UNL     1       9.496  31.140  60.491  1.00  0.00     0.004 A 
HETATM   19  C   UNL     1       8.399  31.089  59.633  1.00  0.00     0.038 A 
ENDBRANCH   9  10
ENDBRANCH   8   9
ENDBRANCH   7   8
ENDBRANCH   5   6
ENDBRANCH   1   5
BRANCH   2  20
HETATM   20  C   UNL     1       6.137  26.438  54.134  1.00  0.00     0.120 A 
HETATM   21  N   UNL     1       7.255  26.498  53.352  1.00  0.00    -0.272 N 
HETATM   22  H   UNL     1       7.609  27.314  52.861  1.00  0.00     0.189 HD
HETATM   23  N   UNL     1       7.920  25.338  53.252  1.00  0.00    -0.174 NA
HETATM   24  C   UNL     1       7.236  24.484  54.028  1.00  0.00     0.089 A 
HETATM   25  C   UNL     1       6.095  25.133  54.584  1.00  0.00     0.071 A 
BRANCH  24  26
HETATM   26  C   UNL     1       7.683  23.100  54.224  1.00  0.00    -0.005 A 
HETATM   27  C   UNL     1       8.060  22.629  55.492  1.00  0.00     0.017 A 
HETATM   28  C   UNL     1       8.497  21.310  55.660  1.00  0.00     0.043 A 
HETATM   29  C   UNL     1       8.557  20.461  54.564  1.00  0.00     0.116 A 
HETATM   30  F   UNL     1       8.978  19.200  54.728  1.00  0.00    -0.206 F 
HETATM   31  C   UNL     1       8.191  20.902  53.299  1.00  0.00     0.043 A 
HETATM   32  C   UNL     1       7.757  22.219  53.130  1.00  0.00     0.017 A 
ENDBRANCH  24  26
ENDBRANCH   2  20
TORSDOF 7
ENDMDL
MODEL 8
REMARK VINA RESULT:      -9.8      4.166     11.921
REMARK  7 active torsions:
REMARK  status: ('A' for Active; 'I' for Inactive)
REMARK    1  A    between atoms: C_5  and  O_6 
REMARK    2  A    between atoms: O_6  and  C_7 
REMARK    3  A    between atoms: C_7  and  C_8 
REMARK    4  A    between atoms: C_9  and  C_10 
REMARK    5  A    between atoms: C_10  and  N_11 
REMARK       I    between atoms: N_11  and  C_12 
REMARK    6  A    between atoms: C_12  and  C_13 
REMARK    7  A    between atoms: C_17  and  C_18 
ROOT
HETATM    1  N   UNL     1       8.867  29.467  57.697  1.00  0.00    -0.345 N 
HETATM    2  C   UNL     1       7.579  29.280  57.261  1.00  0.00     0.270 C 
HETATM    3  O   UNL     1       6.724  30.159  57.309  1.00  0.00    -0.266 OA
HETATM    4  H   UNL     1       9.489  28.678  57.770  1.00  0.00     0.163 HD
ENDROOT
BRANCH   1   5
HETATM    5  C   UNL     1       9.309  30.725  58.246  1.00  0.00     0.217 C 
BRANCH   5   6
HETATM    6  C   UNL     1       9.151  30.738  59.702  1.00  0.00    -0.085 C 
HETATM    7  C   UNL     1       8.967  30.750  60.890  1.00  0.00    -0.078 C 
BRANCH   7   8
HETATM    8  C   UNL     1       8.692  30.757  62.334  1.00  0.00     0.269 C 
BRANCH   8   9
HETATM    9  O   UNL     1       7.319  31.084  62.534  1.00  0.00    -0.339 OA
BRANCH   9  10
HETATM   10  C   UNL     1       7.017  32.316  63.065  1.00  0.00     0.081 A 
HETATM   11  C   UNL     1       6.159  33.136  62.284  1.00  0.00     0.007 A 
HETATM   12  C   UNL     1       5.804  34.420  62.766  1.00  0.00    -0.023 A 
HETATM   13  C   UNL     1       5.633  32.729  61.038  1.00  0.00     0.015 A 
HETATM   14  C   UNL     1       4.956  35.243  62.006  1.00  0.00     0.012 A 
HETATM   15  C   UNL     1       6.304  34.859  63.999  1.00  0.00     0.012 A 
HETATM   16  C   UNL     1       4.453  34.815  60.777  1.00  0.00     0.001 A 
HETATM   17  C   UNL     1       4.791  33.557  60.292  1.00  0.00     0.001 A 
HETATM   18  C   UNL     1       7.146  34.047  64.755  1.00  0.00     0.004 A 
HETATM   19  C   UNL     1       7.503  32.782  64.291  1.00  0.00     0.038 A 
ENDBRANCH   9  10
ENDBRANCH   8   9
ENDBRANCH   7   8
ENDBRANCH   5   6
ENDBRANCH   1   5
BRANCH   2  20
HETATM   20  C   UNL     1       7.292  27.975  56.730  1.00  0.00     0.120 A 
HETATM   21  N   UNL     1       6.091  27.365  56.957  1.00  0.00    -0.272 N 
HETATM   22  H   UNL     1       5.316  27.734  57.500  1.00  0.00     0.189 HD
HETATM   23  N   UNL     1       5.968  26.159  56.385  1.00  0.00    -0.174 NA
HETATM   24  C   UNL     1       7.120  25.977  55.722  1.00  0.00     0.089 A 
HETATM   25  C   UNL     1       7.989  27.088  55.933  1.00  0.00     0.071 A 
BRANCH  24  26
HETATM   26  C   UNL     1       7.358  24.774  54.913  1.00  0.00    -0.005 A 
HETATM   27  C   UNL     1       7.379  23.497  55.497  1.00  0.00     0.017 A 
HETATM   28  C   UNL     1       7.619  22.362  54.715  1.00  0.00     0.043 A 
HETATM   29  C   UNL     1       7.838  22.501  53.351  1.00  0.00     0.116 A 
HETATM   30  F   UNL     1       8.071  21.412  52.606  1.00  0.00    -0.206 F 
HETATM   31  C   UNL     1       7.824  23.752  52.750  1.00  0.00     0.043 A 
HETATM   32  C   UNL     1       7.586  24.886  53.531  1.00  0.00     0.017 A 
ENDBRANCH  24  26
ENDBRANCH   2  20
TORSDOF 7
ENDMDL
MODEL 9
REMARK VINA RESULT:      -9.6      4.422     12.460
REMARK  7 active torsions:
REMARK  status: ('A' for Active; 'I' for Inactive)
REMARK    1  A    between atoms: C_5  and  O_6 
REMARK    2  A    between atoms: O_6  and  C_7 
REMARK    3  A    between atoms: C_7  and  C_8 
REMARK    4  A    between atoms: C_9  and  C_10 
REMARK    5  A    between atoms: C_10  and  N_11 
REMARK       I    between atoms: N_11  and  C_12 
REMARK    6  A    between atoms: C_12  and  C_13 
REMARK    7  A    between atoms: C_17  and  C_18 
ROOT
HETATM    1  N   UNL     1       5.784  29.244  56.311  1.00  0.00    -0.345 N 
HETATM    2  C   UNL     1       7.000  28.690  56.000  1.00  0.00     0.270 C 
HETATM    3  O   UNL     1       8.010  29.360  55.812  1.00  0.00    -0.266 OA
HETATM    4  H   UNL     1       4.958  28.667  56.315  1.00  0.00     0.163 HD
ENDROOT
BRANCH   1   5
HETATM    5  C   UNL     1       5.609  30.670  56.441  1.00  0.00     0.217 C 
BRANCH   5   6
HETATM    6  C   UNL     1       6.086  31.132  57.747  1.00  0.00    -0.085 C 
HETATM    7  C   UNL     1       6.525  31.526  58.794  1.00  0.00    -0.078 C 
BRANCH   7   8
HETATM    8  C   UNL     1       7.101  32.029  60.050  1.00  0.00     0.269 C 
BRANCH   8   9
HETATM    9  O   UNL     1       6.045  32.233  60.986  1.00  0.00    -0.339 OA
BRANCH   9  10
HETATM   10  C   UNL     1       6.375  32.653  62.253  1.00  0.00     0.081 A 
HETATM   11  C   UNL     1       5.324  33.240  63.005  1.00  0.00     0.007 A 
HETATM   12  C   UNL     1       5.587  33.699  64.319  1.00  0.00    -0.023 A 
HETATM   13  C   UNL     1       4.011  33.391  62.505  1.00  0.00     0.015 A 
HETATM   14  C   UNL     1       4.558  34.282  65.077  1.00  0.00     0.012 A 
HETATM   15  C   UNL     1       6.877  33.567  64.853  1.00  0.00     0.012 A 
HETATM   16  C   UNL     1       3.272  34.418  64.556  1.00  0.00     0.001 A 
HETATM   17  C   UNL     1       2.997  33.972  63.269  1.00  0.00     0.001 A 
HETATM   18  C   UNL     1       7.901  32.991  64.104  1.00  0.00     0.004 A 
HETATM   19  C   UNL     1       7.653  32.537  62.810  1.00  0.00     0.038 A 
ENDBRANCH   9  10
ENDBRANCH   8   9
ENDBRANCH   7   8
ENDBRANCH   5   6
ENDBRANCH   1   5
BRANCH   2  20
HETATM   20  C   UNL     1       7.019  27.254  55.916  1.00  0.00     0.120 A 
HETATM   21  N   UNL     1       6.424  26.480  56.871  1.00  0.00    -0.272 N 
HETATM   22  H   UNL     1       5.940  26.806  57.702  1.00  0.00     0.189 HD
HETATM   23  N   UNL     1       6.513  25.161  56.645  1.00  0.00    -0.174 NA
HETATM   24  C   UNL     1       7.162  25.058  55.475  1.00  0.00     0.089 A 
HETATM   25  C   UNL     1       7.517  26.353  54.995  1.00  0.00     0.071 A 
BRANCH  24  26
HETATM   26  C   UNL     1       7.416  23.753  54.852  1.00  0.00    -0.005 A 
HETATM   27  C   UNL     1       7.554  22.591  55.627  1.00  0.00     0.017 A 
HETATM   28  C   UNL     1       7.809  21.357  55.019  1.00  0.00     0.043 A 
HETATM   29  C   UNL     1       7.925  21.282  53.638  1.00  0.00     0.116 A 
HETATM   30  F   UNL     1       8.172  20.099  53.059  1.00  0.00    -0.206 F 
HETATM   31  C   UNL     1       7.794  22.416  52.848  1.00  0.00     0.043 A 
HETATM   32  C   UNL     1       7.542  23.650  53.455  1.00  0.00     0.017 A 
ENDBRANCH  24  26
ENDBRANCH   2  20
TORSDOF 7
ENDMDL
MODEL 10
REMARK VINA RESULT:      -9.5      4.721     11.760
REMARK  7 active torsions:
REMARK  status: ('A' for Active; 'I' for Inactive)
REMARK    1  A    between atoms: C_5  and  O_6 
REMARK    2  A    between atoms: O_6  and  C_7 
REMARK    3  A    between atoms: C_7  and  C_8 
REMARK    4  A    between atoms: C_9  and  C_10 
REMARK    5  A    between atoms: C_10  and  N_11 
REMARK       I    between atoms: N_11  and  C_12 
REMARK    6  A    between atoms: C_12  and  C_13 
REMARK    7  A    between atoms: C_17  and  C_18 
ROOT
HETATM    1  N   UNL     1       4.825  28.986  55.810  1.00  0.00    -0.345 N 
HETATM    2  C   UNL     1       4.667  28.024  54.844  1.00  0.00     0.270 C 
HETATM    3  O   UNL     1       3.866  28.129  53.922  1.00  0.00    -0.266 OA
HETATM    4  H   UNL     1       5.388  28.791  56.622  1.00  0.00     0.163 HD
ENDROOT
BRANCH   1   5
HETATM    5  C   UNL     1       4.050  30.202  55.805  1.00  0.00     0.217 C 
BRANCH   5   6
HETATM    6  C   UNL     1       3.866  30.704  57.169  1.00  0.00    -0.085 C 
HETATM    7  C   UNL     1       3.766  31.101  58.299  1.00  0.00    -0.078 C 
BRANCH   7   8
HETATM    8  C   UNL     1       3.694  31.578  59.688  1.00  0.00     0.269 C 
BRANCH   8   9
HETATM    9  O   UNL     1       4.697  32.573  59.879  1.00  0.00    -0.339 OA
BRANCH   9  10
HETATM   10  C   UNL     1       5.402  32.563  61.060  1.00  0.00     0.081 A 
HETATM   11  C   UNL     1       6.800  32.343  60.946  1.00  0.00     0.007 A 
HETATM   12  C   UNL     1       7.593  32.319  62.120  1.00  0.00    -0.023 A 
HETATM   13  C   UNL     1       7.449  32.148  59.707  1.00  0.00     0.015 A 
HETATM   14  C   UNL     1       8.978  32.103  62.025  1.00  0.00     0.012 A 
HETATM   15  C   UNL     1       6.987  32.511  63.369  1.00  0.00     0.012 A 
HETATM   16  C   UNL     1       9.591  31.912  60.787  1.00  0.00     0.001 A 
HETATM   17  C   UNL     1       8.827  31.934  59.627  1.00  0.00     0.001 A 
HETATM   18  C   UNL     1       5.614  32.723  63.468  1.00  0.00     0.004 A 
HETATM   19  C   UNL     1       4.824  32.748  62.320  1.00  0.00     0.038 A 
ENDBRANCH   9  10
ENDBRANCH   8   9
ENDBRANCH   7   8
ENDBRANCH   5   6
ENDBRANCH   1   5
BRANCH   2  20
HETATM   20  C   UNL     1       5.518  26.871  54.979  1.00  0.00     0.120 A 
HETATM   21  N   UNL     1       6.382  26.747  56.030  1.00  0.00    -0.272 N 
HETATM   22  H   UNL     1       6.522  27.414  56.783  1.00  0.00     0.189 HD
HETATM   23  N   UNL     1       7.096  25.612  56.025  1.00  0.00    -0.174 NA
HETATM   24  C   UNL     1       6.662  24.941  54.947  1.00  0.00     0.089 A 
HETATM   25  C   UNL     1       5.684  25.710  54.250  1.00  0.00     0.071 A 
BRANCH  24  26
HETATM   26  C   UNL     1       7.174  23.605  54.618  1.00  0.00    -0.005 A 
HETATM   27  C   UNL     1       7.457  22.666  55.624  1.00  0.00     0.017 A 
HETATM   28  C   UNL     1       7.958  21.401  55.296  1.00  0.00     0.043 A 
HETATM   29  C   UNL     1       8.175  21.073  53.964  1.00  0.00     0.116 A 
HETATM   30  F   UNL     1       8.657  19.862  53.654  1.00  0.00    -0.206 F 
HETATM   31  C   UNL     1       7.905  21.982  52.951  1.00  0.00     0.043 A 
HETATM   32  C   UNL     1       7.407  23.246  53.279  1.00  0.00     0.017 A 
ENDBRANCH  24  26
ENDBRANCH   2  20
TORSDOF 7
ENDMDL
