MODEL 1
REMARK VINA RESULT:      -9.4      0.000      0.000
REMARK  3 active torsions:
REMARK  status: ('A' for Active; 'I' for Inactive)
REMARK    1  A    between atoms: C_2  and  C_3 
REMARK    2  A    between atoms: C_10  and  O_11 
REMARK    3  A    between atoms: C_10  and  C_12 
ROOT
HETATM    1  C   UNL     1       7.155  28.107  56.804  1.00  0.00    -0.058 A 
HETATM    2  C   UNL     1       7.614  27.079  55.964  1.00  0.00     0.020 A 
HETATM    3  C   UNL     1       6.716  26.484  55.089  1.00  0.00     0.018 A 
HETATM    4  C   UNL     1       5.390  26.916  55.039  1.00  0.00     0.045 A 
HETATM    5  N   UNL     1       4.680  26.199  54.090  1.00  0.00    -0.323 N 
HETATM    6  C   UNL     1       5.484  25.247  53.460  1.00  0.00     0.266 A 
HETATM    7  O   UNL     1       5.097  24.507  52.568  1.00  0.00    -0.269 OA
HETATM    8  C   UNL     1       6.928  25.372  54.079  1.00  0.00     0.198 A 
HETATM    9  C   UNL     1       4.909  27.925  55.846  1.00  0.00     0.031 A 
HETATM   10  C   UNL     1       5.806  28.519  56.739  1.00  0.00     0.009 A 
HETATM   11  H   UNL     1       3.705  26.322  53.862  1.00  0.00     0.169 HD
ENDROOT
BRANCH   8  12
HETATM   12  O   UNL     1       7.886  25.775  53.110  1.00  0.00    -0.371 OA
HETATM   13  H   UNL     1       7.848  25.118  52.398  1.00  0.00     0.212 HD
ENDBRANCH   8  12
BRANCH   8  14
HETATM   14  C   UNL     1       7.330  24.157  54.880  1.00  0.00     0.018 A 
HETATM   15  C   UNL     1       7.696  22.857  54.371  1.00  0.00     0.002 A 
HETATM   16  C   UNL     1       8.034  22.052  55.460  1.00  0.00     0.043 A 
HETATM   17  C   UNL     1       7.782  22.291  53.080  1.00  0.00     0.014 A 
HETATM   18  C   UNL     1       8.454  20.722  55.324  1.00  0.00     0.030 A 
HETATM   19  N   UNL     1       7.864  22.810  56.591  1.00  0.00    -0.365 N 
HETATM   20  C   UNL     1       8.531  20.193  54.034  1.00  0.00     0.002 A 
HETATM   21  C   UNL     1       8.198  20.964  52.925  1.00  0.00     0.001 A 
HETATM   22  H   UNL     1       8.028  22.478  57.531  1.00  0.00     0.165 HD
HETATM   23  C   UNL     1       7.452  24.070  56.261  1.00  0.00     0.100 A 
ENDBRANCH   8  14
BRANCH   1  24
HETATM   24  C   UNL     1       8.094  28.738  57.804  1.00  0.00     0.034 C 
HETATM   25  C   UNL     1       9.436  29.080  57.173  1.00  0.00     0.010 C 
ENDBRANCH   1  24
TORSDOF 3
ENDMDL
MODEL 2
REMARK VINA RESULT:      -9.1      2.072      5.971
REMARK  3 active torsions:
REMARK  status: ('A' for Active; 'I' for Inactive)
REMARK    1  A    between atoms: C_2  and  C_3 
REMARK    2  A    between atoms: C_10  and  O_11 
REMARK    3  A    between atoms: C_10  and  C_12 
ROOT
HETATM    1  C   UNL     1       7.753  23.158  55.096  1.00  0.00    -0.058 A 
HETATM    2  C   UNL     1       6.990  24.337  55.070  1.00  0.00     0.020 A 
HETATM    3  C   UNL     1       6.763  24.955  53.848  1.00  0.00     0.018 A 
HETATM    4  C   UNL     1       7.272  24.401  52.673  1.00  0.00     0.045 A 
HETATM    5  N   UNL     1       6.914  25.168  51.577  1.00  0.00    -0.323 N 
HETATM    6  C   UNL     1       6.155  26.278  51.956  1.00  0.00     0.266 A 
HETATM    7  O   UNL     1       5.697  27.093  51.169  1.00  0.00    -0.269 OA
HETATM    8  C   UNL     1       5.984  26.215  53.521  1.00  0.00     0.198 A 
HETATM    9  C   UNL     1       8.021  23.243  52.664  1.00  0.00     0.031 A 
HETATM   10  C   UNL     1       8.265  22.624  53.893  1.00  0.00     0.009 A 
HETATM   11  H   UNL     1       7.157  24.980  50.616  1.00  0.00     0.169 HD
ENDROOT
BRANCH   8  12
HETATM   12  O   UNL     1       4.624  26.054  53.898  1.00  0.00    -0.371 OA
HETATM   13  H   UNL     1       4.416  25.114  53.780  1.00  0.00     0.212 HD
ENDBRANCH   8  12
BRANCH   8  14
HETATM   14  C   UNL     1       6.697  27.339  54.234  1.00  0.00     0.018 A 
HETATM   15  C   UNL     1       6.242  28.064  55.396  1.00  0.00     0.002 A 
HETATM   16  C   UNL     1       7.234  28.984  55.740  1.00  0.00     0.043 A 
HETATM   17  C   UNL     1       5.080  28.016  56.197  1.00  0.00     0.014 A 
HETATM   18  C   UNL     1       7.125  29.848  56.838  1.00  0.00     0.030 A 
HETATM   19  N   UNL     1       8.245  28.850  54.822  1.00  0.00    -0.365 N 
HETATM   20  C   UNL     1       5.965  29.774  57.611  1.00  0.00     0.002 A 
HETATM   21  C   UNL     1       4.953  28.873  57.296  1.00  0.00     0.001 A 
HETATM   22  H   UNL     1       9.093  29.400  54.822  1.00  0.00     0.165 HD
HETATM   23  C   UNL     1       7.942  27.868  53.921  1.00  0.00     0.100 A 
ENDBRANCH   8  14
BRANCH   1  24
HETATM   24  C   UNL     1       8.062  22.492  56.415  1.00  0.00     0.034 C 
HETATM   25  C   UNL     1       8.099  20.976  56.282  1.00  0.00     0.010 C 
ENDBRANCH   1  24
TORSDOF 3
ENDMDL
MODEL 3
REMARK VINA RESULT:      -8.8      2.321      6.166
REMARK  3 active torsions:
REMARK  status: ('A' for Active; 'I' for Inactive)
REMARK    1  A    between atoms: C_2  and  C_3 
REMARK    2  A    between atoms: C_10  and  O_11 
REMARK    3  A    between atoms: C_10  and  C_12 
ROOT
HETATM    1  C   UNL     1       6.848  23.965  54.039  1.00  0.00    -0.058 A 
HETATM    2  C   UNL     1       6.860  25.040  54.942  1.00  0.00     0.020 A 
HETATM    3  C   UNL     1       5.981  26.094  54.734  1.00  0.00     0.018 A 
HETATM    4  C   UNL     1       5.094  26.068  53.657  1.00  0.00     0.045 A 
HETATM    5  N   UNL     1       4.303  27.206  53.651  1.00  0.00    -0.323 N 
HETATM    6  C   UNL     1       4.620  28.055  54.713  1.00  0.00     0.266 A 
HETATM    7  O   UNL     1       4.045  29.110  54.940  1.00  0.00    -0.269 OA
HETATM    8  C   UNL     1       5.773  27.365  55.536  1.00  0.00     0.198 A 
HETATM    9  C   UNL     1       5.052  25.026  52.756  1.00  0.00     0.031 A 
HETATM   10  C   UNL     1       5.945  23.969  52.952  1.00  0.00     0.009 A 
HETATM   11  H   UNL     1       3.584  27.425  52.978  1.00  0.00     0.169 HD
ENDROOT
BRANCH   8  12
HETATM   12  O   UNL     1       5.361  27.041  56.856  1.00  0.00    -0.371 OA
HETATM   13  H   UNL     1       5.533  27.828  57.398  1.00  0.00     0.212 HD
ENDBRANCH   8  12
BRANCH   8  14
HETATM   14  C   UNL     1       7.079  28.119  55.462  1.00  0.00     0.018 A 
HETATM   15  C   UNL     1       7.761  28.793  56.540  1.00  0.00     0.002 A 
HETATM   16  C   UNL     1       8.950  29.317  56.031  1.00  0.00     0.043 A 
HETATM   17  C   UNL     1       7.483  28.996  57.909  1.00  0.00     0.014 A 
HETATM   18  C   UNL     1       9.870  30.026  56.816  1.00  0.00     0.030 A 
HETATM   19  N   UNL     1       8.992  29.003  54.695  1.00  0.00    -0.365 N 
HETATM   20  C   UNL     1       9.567  30.208  58.167  1.00  0.00     0.002 A 
HETATM   21  C   UNL     1       8.389  29.703  58.709  1.00  0.00     0.001 A 
HETATM   22  H   UNL     1       9.740  29.266  54.070  1.00  0.00     0.165 HD
HETATM   23  C   UNL     1       7.885  28.282  54.343  1.00  0.00     0.100 A 
ENDBRANCH   8  14
BRANCH   1  24
HETATM   24  C   UNL     1       7.828  22.830  54.207  1.00  0.00     0.034 C 
HETATM   25  C   UNL     1       7.963  22.012  52.931  1.00  0.00     0.010 C 
ENDBRANCH   1  24
TORSDOF 3
ENDMDL
MODEL 4
REMARK VINA RESULT:      -8.8      2.175      3.474
REMARK  3 active torsions:
REMARK  status: ('A' for Active; 'I' for Inactive)
REMARK    1  A    between atoms: C_2  and  C_3 
REMARK    2  A    between atoms: C_10  and  O_11 
REMARK    3  A    between atoms: C_10  and  C_12 
ROOT
HETATM    1  C   UNL     1       9.394  29.418  56.908  1.00  0.00    -0.058 A 
HETATM    2  C   UNL     1       8.564  28.777  55.975  1.00  0.00     0.020 A 
HETATM    3  C   UNL     1       7.190  28.814  56.170  1.00  0.00     0.018 A 
HETATM    4  C   UNL     1       6.653  29.493  57.264  1.00  0.00     0.045 A 
HETATM    5  N   UNL     1       5.270  29.417  57.253  1.00  0.00    -0.323 N 
HETATM    6  C   UNL     1       4.807  28.680  56.161  1.00  0.00     0.266 A 
HETATM    7  O   UNL     1       3.624  28.491  55.915  1.00  0.00    -0.269 OA
HETATM    8  C   UNL     1       6.069  28.223  55.336  1.00  0.00     0.198 A 
HETATM    9  C   UNL     1       7.439  30.137  58.196  1.00  0.00     0.031 A 
HETATM   10  C   UNL     1       8.824  30.091  58.012  1.00  0.00     0.009 A 
HETATM   11  H   UNL     1       4.648  29.826  57.934  1.00  0.00     0.169 HD
ENDROOT
BRANCH   8  12
HETATM   12  O   UNL     1       6.084  28.791  54.034  1.00  0.00    -0.371 OA
HETATM   13  H   UNL     1       5.156  28.911  53.776  1.00  0.00     0.212 HD
ENDBRANCH   8  12
BRANCH   8  14
HETATM   14  C   UNL     1       6.278  26.728  55.363  1.00  0.00     0.018 A 
HETATM   15  C   UNL     1       6.875  25.911  54.334  1.00  0.00     0.002 A 
HETATM   16  C   UNL     1       6.903  24.595  54.798  1.00  0.00     0.043 A 
HETATM   17  C   UNL     1       7.406  26.170  53.052  1.00  0.00     0.014 A 
HETATM   18  C   UNL     1       7.436  23.534  54.053  1.00  0.00     0.030 A 
HETATM   19  N   UNL     1       6.331  24.593  56.046  1.00  0.00    -0.365 N 
HETATM   20  C   UNL     1       7.955  23.823  52.789  1.00  0.00     0.002 A 
HETATM   21  C   UNL     1       7.940  25.122  52.292  1.00  0.00     0.001 A 
HETATM   22  H   UNL     1       6.210  23.769  56.618  1.00  0.00     0.165 HD
HETATM   23  C   UNL     1       5.959  25.860  56.399  1.00  0.00     0.100 A 
ENDBRANCH   8  14
BRANCH   1  24
HETATM   24  C   UNL     1      10.894  29.350  56.753  1.00  0.00     0.034 C 
HETATM   25  C   UNL     1      11.600  30.307  57.702  1.00  0.00     0.010 C 
ENDBRANCH   1  24
TORSDOF 3
ENDMDL
MODEL 5
REMARK VINA RESULT:      -8.7      3.434      5.570
REMARK  3 active torsions:
REMARK  status: ('A' for Active; 'I' for Inactive)
REMARK    1  A    between atoms: C_2  and  C_3 
REMARK    2  A    between atoms: C_10  and  O_11 
REMARK    3  A    between atoms: C_10  and  C_12 
ROOT
HETATM    1  C   UNL     1       4.765  27.084  48.962  1.00  0.00    -0.058 A 
HETATM    2  C   UNL     1       4.792  26.459  50.219  1.00  0.00     0.020 A 
HETATM    3  C   UNL     1       5.170  27.207  51.326  1.00  0.00     0.018 A 
HETATM    4  C   UNL     1       5.496  28.557  51.185  1.00  0.00     0.045 A 
HETATM    5  N   UNL     1       5.824  29.109  52.413  1.00  0.00    -0.323 N 
HETATM    6  C   UNL     1       5.744  28.163  53.437  1.00  0.00     0.266 A 
HETATM    7  O   UNL     1       5.960  28.410  54.615  1.00  0.00    -0.269 OA
HETATM    8  C   UNL     1       5.284  26.804  52.784  1.00  0.00     0.198 A 
HETATM    9  C   UNL     1       5.475  29.202  49.967  1.00  0.00     0.031 A 
HETATM   10  C   UNL     1       5.109  28.450  48.847  1.00  0.00     0.009 A 
HETATM   11  H   UNL     1       6.096  30.066  52.579  1.00  0.00     0.169 HD
ENDROOT
BRANCH   8  12
HETATM   12  O   UNL     1       4.017  26.386  53.270  1.00  0.00    -0.371 OA
HETATM   13  H   UNL     1       3.611  27.164  53.684  1.00  0.00     0.212 HD
ENDBRANCH   8  12
BRANCH   8  14
HETATM   14  C   UNL     1       6.351  25.738  52.836  1.00  0.00     0.018 A 
HETATM   15  C   UNL     1       6.743  24.949  53.979  1.00  0.00     0.002 A 
HETATM   16  C   UNL     1       7.735  24.059  53.563  1.00  0.00     0.043 A 
HETATM   17  C   UNL     1       6.338  24.901  55.330  1.00  0.00     0.014 A 
HETATM   18  C   UNL     1       8.334  23.128  54.422  1.00  0.00     0.030 A 
HETATM   19  N   UNL     1       7.962  24.300  52.231  1.00  0.00    -0.365 N 
HETATM   20  C   UNL     1       7.910  23.105  55.753  1.00  0.00     0.002 A 
HETATM   21  C   UNL     1       6.927  23.979  56.204  1.00  0.00     0.001 A 
HETATM   22  H   UNL     1       8.640  23.804  51.668  1.00  0.00     0.165 HD
HETATM   23  C   UNL     1       7.139  25.294  51.781  1.00  0.00     0.100 A 
ENDBRANCH   8  14
BRANCH   1  24
HETATM   24  C   UNL     1       4.411  26.284  47.732  1.00  0.00     0.034 C 
HETATM   25  C   UNL     1       3.189  25.408  47.966  1.00  0.00     0.010 C 
ENDBRANCH   1  24
TORSDOF 3
ENDMDL
MODEL 6
REMARK VINA RESULT:      -8.7      2.162      3.501
REMARK  3 active torsions:
REMARK  status: ('A' for Active; 'I' for Inactive)
REMARK    1  A    between atoms: C_2  and  C_3 
REMARK    2  A    between atoms: C_10  and  O_11 
REMARK    3  A    between atoms: C_10  and  C_12 
ROOT
HETATM    1  C   UNL     1       5.276  28.213  54.885  1.00  0.00    -0.058 A 
HETATM    2  C   UNL     1       5.507  26.849  55.127  1.00  0.00     0.020 A 
HETATM    3  C   UNL     1       6.604  26.486  55.895  1.00  0.00     0.018 A 
HETATM    4  C   UNL     1       7.445  27.464  56.428  1.00  0.00     0.045 A 
HETATM    5  N   UNL     1       8.459  26.882  57.171  1.00  0.00    -0.323 N 
HETATM    6  C   UNL     1       8.359  25.490  57.171  1.00  0.00     0.266 A 
HETATM    7  O   UNL     1       9.121  24.749  57.775  1.00  0.00    -0.269 OA
HETATM    8  C   UNL     1       7.090  25.112  56.316  1.00  0.00     0.198 A 
HETATM    9  C   UNL     1       7.243  28.811  56.215  1.00  0.00     0.031 A 
HETATM   10  C   UNL     1       6.148  29.182  55.429  1.00  0.00     0.009 A 
HETATM   11  H   UNL     1       9.194  27.373  57.658  1.00  0.00     0.169 HD
ENDROOT
BRANCH   8  12
HETATM   12  O   UNL     1       6.096  24.468  57.101  1.00  0.00    -0.371 OA
HETATM   13  H   UNL     1       6.292  23.518  57.064  1.00  0.00     0.212 HD
ENDBRANCH   8  12
BRANCH   8  14
HETATM   14  C   UNL     1       7.438  24.387  55.038  1.00  0.00     0.018 A 
HETATM   15  C   UNL     1       7.654  22.970  54.869  1.00  0.00     0.002 A 
HETATM   16  C   UNL     1       7.908  22.737  53.517  1.00  0.00     0.043 A 
HETATM   17  C   UNL     1       7.647  21.860  55.741  1.00  0.00     0.014 A 
HETATM   18  C   UNL     1       8.150  21.458  52.996  1.00  0.00     0.030 A 
HETATM   19  N   UNL     1       7.872  23.953  52.882  1.00  0.00    -0.365 N 
HETATM   20  C   UNL     1       8.134  20.380  53.884  1.00  0.00     0.002 A 
HETATM   21  C   UNL     1       7.888  20.576  55.239  1.00  0.00     0.001 A 
HETATM   22  H   UNL     1       8.031  24.086  51.893  1.00  0.00     0.165 HD
HETATM   23  C   UNL     1       7.586  24.946  53.776  1.00  0.00     0.100 A 
ENDBRANCH   8  14
BRANCH   1  24
HETATM   24  C   UNL     1       4.122  28.637  54.009  1.00  0.00     0.034 C 
HETATM   25  C   UNL     1       4.107  27.872  52.693  1.00  0.00     0.010 C 
ENDBRANCH   1  24
TORSDOF 3
ENDMDL
MODEL 7
REMARK VINA RESULT:      -8.7      2.044      5.638
REMARK  3 active torsions:
REMARK  status: ('A' for Active; 'I' for Inactive)
REMARK    1  A    between atoms: C_2  and  C_3 
REMARK    2  A    between atoms: C_10  and  O_11 
REMARK    3  A    between atoms: C_10  and  C_12 
ROOT
HETATM    1  C   UNL     1       7.568  23.477  53.912  1.00  0.00    -0.058 A 
HETATM    2  C   UNL     1       6.887  24.429  54.688  1.00  0.00     0.020 A 
HETATM    3  C   UNL     1       6.584  25.658  54.118  1.00  0.00     0.018 A 
HETATM    4  C   UNL     1       6.937  25.927  52.795  1.00  0.00     0.045 A 
HETATM    5  N   UNL     1       6.525  27.198  52.430  1.00  0.00    -0.323 N 
HETATM    6  C   UNL     1       5.884  27.851  53.485  1.00  0.00     0.266 A 
HETATM    7  O   UNL     1       5.407  28.973  53.406  1.00  0.00    -0.269 OA
HETATM    8  C   UNL     1       5.864  26.856  54.707  1.00  0.00     0.198 A 
HETATM    9  C   UNL     1       7.601  25.013  52.005  1.00  0.00     0.031 A 
HETATM   10  C   UNL     1       7.922  23.778  52.578  1.00  0.00     0.009 A 
HETATM   11  H   UNL     1       6.660  27.629  51.528  1.00  0.00     0.169 HD
ENDROOT
BRANCH   8  12
HETATM   12  O   UNL     1       4.540  26.493  55.072  1.00  0.00    -0.371 OA
HETATM   13  H   UNL     1       4.312  25.714  54.539  1.00  0.00     0.212 HD
ENDBRANCH   8  12
BRANCH   8  14
HETATM   14  C   UNL     1       6.717  27.326  55.861  1.00  0.00     0.018 A 
HETATM   15  C   UNL     1       7.925  28.113  55.789  1.00  0.00     0.002 A 
HETATM   16  C   UNL     1       8.356  28.351  57.095  1.00  0.00     0.043 A 
HETATM   17  C   UNL     1       8.688  28.655  54.733  1.00  0.00     0.014 A 
HETATM   18  C   UNL     1       9.500  29.102  57.396  1.00  0.00     0.030 A 
HETATM   19  N   UNL     1       7.470  27.724  57.935  1.00  0.00    -0.365 N 
HETATM   20  C   UNL     1      10.232  29.628  56.329  1.00  0.00     0.002 A 
HETATM   21  C   UNL     1       9.836  29.407  55.014  1.00  0.00     0.001 A 
HETATM   22  H   UNL     1       7.541  27.722  58.943  1.00  0.00     0.165 HD
HETATM   23  C   UNL     1       6.483  27.114  57.213  1.00  0.00     0.100 A 
ENDBRANCH   8  14
BRANCH   1  24
HETATM   24  C   UNL     1       7.959  22.152  54.520  1.00  0.00     0.034 C 
HETATM   25  C   UNL     1       9.336  22.216  55.165  1.00  0.00     0.010 C 
ENDBRANCH   1  24
TORSDOF 3
ENDMDL
MODEL 8
REMARK VINA RESULT:      -8.6      2.046      3.057
REMARK  3 active torsions:
REMARK  status: ('A' for Active; 'I' for Inactive)
REMARK    1  A    between atoms: C_2  and  C_3 
REMARK    2  A    between atoms: C_10  and  O_11 
REMARK    3  A    between atoms: C_10  and  C_12 
ROOT
HETATM    1  C   UNL     1       9.001  29.143  56.633  1.00  0.00    -0.058 A 
HETATM    2  C   UNL     1       8.604  28.687  55.365  1.00  0.00     0.020 A 
HETATM    3  C   UNL     1       7.265  28.391  55.153  1.00  0.00     0.018 A 
HETATM    4  C   UNL     1       6.335  28.563  56.179  1.00  0.00     0.045 A 
HETATM    5  N   UNL     1       5.063  28.226  55.745  1.00  0.00    -0.323 N 
HETATM    6  C   UNL     1       5.072  27.804  54.414  1.00  0.00     0.266 A 
HETATM    7  O   UNL     1       4.070  27.477  53.793  1.00  0.00    -0.269 OA
HETATM    8  C   UNL     1       6.561  27.893  53.905  1.00  0.00     0.198 A 
HETATM    9  C   UNL     1       6.690  29.013  57.433  1.00  0.00     0.031 A 
HETATM   10  C   UNL     1       8.040  29.299  57.656  1.00  0.00     0.009 A 
HETATM   11  H   UNL     1       4.219  28.264  56.296  1.00  0.00     0.169 HD
ENDROOT
BRANCH   8  12
HETATM   12  O   UNL     1       6.706  28.841  52.857  1.00  0.00    -0.371 OA
HETATM   13  H   UNL     1       7.236  28.409  52.168  1.00  0.00     0.212 HD
ENDBRANCH   8  12
BRANCH   8  14
HETATM   14  C   UNL     1       7.159  26.539  53.604  1.00  0.00     0.018 A 
HETATM   15  C   UNL     1       7.354  25.446  54.526  1.00  0.00     0.002 A 
HETATM   16  C   UNL     1       7.897  24.378  53.811  1.00  0.00     0.043 A 
HETATM   17  C   UNL     1       7.109  25.262  55.904  1.00  0.00     0.014 A 
HETATM   18  C   UNL     1       8.200  23.142  54.399  1.00  0.00     0.030 A 
HETATM   19  N   UNL     1       8.051  24.795  52.513  1.00  0.00    -0.365 N 
HETATM   20  C   UNL     1       7.943  22.990  55.763  1.00  0.00     0.002 A 
HETATM   21  C   UNL     1       7.407  24.035  56.509  1.00  0.00     0.001 A 
HETATM   22  H   UNL     1       8.433  24.226  51.771  1.00  0.00     0.165 HD
HETATM   23  C   UNL     1       7.608  26.081  52.373  1.00  0.00     0.100 A 
ENDBRANCH   8  14
BRANCH   1  24
HETATM   24  C   UNL     1      10.458  29.421  56.910  1.00  0.00     0.034 C 
HETATM   25  C   UNL     1      10.652  30.776  57.576  1.00  0.00     0.010 C 
ENDBRANCH   1  24
TORSDOF 3
ENDMDL
MODEL 9
REMARK VINA RESULT:      -8.6      2.308      6.099
REMARK  3 active torsions:
REMARK  status: ('A' for Active; 'I' for Inactive)
REMARK    1  A    between atoms: C_2  and  C_3 
REMARK    2  A    between atoms: C_10  and  O_11 
REMARK    3  A    between atoms: C_10  and  C_12 
ROOT
HETATM    1  C   UNL     1       7.751  23.733  54.233  1.00  0.00    -0.058 A 
HETATM    2  C   UNL     1       7.566  25.124  54.275  1.00  0.00     0.020 A 
HETATM    3  C   UNL     1       7.651  25.770  55.501  1.00  0.00     0.018 A 
HETATM    4  C   UNL     1       7.933  25.046  56.660  1.00  0.00     0.045 A 
HETATM    5  N   UNL     1       7.988  25.889  57.758  1.00  0.00    -0.323 N 
HETATM    6  C   UNL     1       7.740  27.215  57.399  1.00  0.00     0.266 A 
HETATM    7  O   UNL     1       7.757  28.151  58.185  1.00  0.00    -0.269 OA
HETATM    8  C   UNL     1       7.504  27.241  55.841  1.00  0.00     0.198 A 
HETATM    9  C   UNL     1       8.124  23.681  56.653  1.00  0.00     0.031 A 
HETATM   10  C   UNL     1       8.025  23.023  55.423  1.00  0.00     0.009 A 
HETATM   11  H   UNL     1       8.175  25.611  58.710  1.00  0.00     0.169 HD
ENDROOT
BRANCH   8  12
HETATM   12  O   UNL     1       8.500  27.996  55.168  1.00  0.00    -0.371 OA
HETATM   13  H   UNL     1       9.134  28.280  55.845  1.00  0.00     0.212 HD
ENDBRANCH   8  12
BRANCH   8  14
HETATM   14  C   UNL     1       6.088  27.612  55.469  1.00  0.00     0.018 A 
HETATM   15  C   UNL     1       5.601  28.006  54.169  1.00  0.00     0.002 A 
HETATM   16  C   UNL     1       4.225  28.214  54.275  1.00  0.00     0.043 A 
HETATM   17  C   UNL     1       6.202  28.196  52.906  1.00  0.00     0.014 A 
HETATM   18  C   UNL     1       3.425  28.595  53.188  1.00  0.00     0.030 A 
HETATM   19  N   UNL     1       3.879  27.980  55.582  1.00  0.00    -0.365 N 
HETATM   20  C   UNL     1       4.050  28.772  51.952  1.00  0.00     0.002 A 
HETATM   21  C   UNL     1       5.420  28.579  51.810  1.00  0.00     0.001 A 
HETATM   22  H   UNL     1       2.941  28.065  55.949  1.00  0.00     0.165 HD
HETATM   23  C   UNL     1       4.979  27.613  56.305  1.00  0.00     0.100 A 
ENDBRANCH   8  14
BRANCH   1  24
HETATM   24  C   UNL     1       7.611  22.994  52.924  1.00  0.00     0.034 C 
HETATM   25  C   UNL     1       7.986  21.526  53.066  1.00  0.00     0.010 C 
ENDBRANCH   1  24
TORSDOF 3
ENDMDL
MODEL 10
REMARK VINA RESULT:      -8.4      3.372      6.295
REMARK  3 active torsions:
REMARK  status: ('A' for Active; 'I' for Inactive)
REMARK    1  A    between atoms: C_2  and  C_3 
REMARK    2  A    between atoms: C_10  and  O_11 
REMARK    3  A    between atoms: C_10  and  C_12 
ROOT
HETATM    1  C   UNL     1       7.609  24.163  54.293  1.00  0.00    -0.058 A 
HETATM    2  C   UNL     1       7.418  25.314  53.511  1.00  0.00     0.020 A 
HETATM    3  C   UNL     1       6.474  26.247  53.919  1.00  0.00     0.018 A 
HETATM    4  C   UNL     1       5.748  26.046  55.093  1.00  0.00     0.045 A 
HETATM    5  N   UNL     1       4.880  27.102  55.316  1.00  0.00    -0.323 N 
HETATM    6  C   UNL     1       4.972  28.061  54.305  1.00  0.00     0.266 A 
HETATM    7  O   UNL     1       4.327  29.100  54.287  1.00  0.00    -0.269 OA
HETATM    8  C   UNL     1       6.066  27.563  53.286  1.00  0.00     0.198 A 
HETATM    9  C   UNL     1       5.914  24.930  55.886  1.00  0.00     0.031 A 
HETATM   10  C   UNL     1       6.853  23.980  55.472  1.00  0.00     0.009 A 
HETATM   11  H   UNL     1       4.247  27.196  56.096  1.00  0.00     0.169 HD
ENDROOT
BRANCH   8  12
HETATM   12  O   UNL     1       7.181  28.442  53.235  1.00  0.00    -0.371 OA
HETATM   13  H   UNL     1       7.970  27.892  53.361  1.00  0.00     0.212 HD
ENDBRANCH   8  12
BRANCH   8  14
HETATM   14  C   UNL     1       5.492  27.211  51.934  1.00  0.00     0.018 A 
HETATM   15  C   UNL     1       5.328  28.088  50.800  1.00  0.00     0.002 A 
HETATM   16  C   UNL     1       4.799  27.333  49.752  1.00  0.00     0.043 A 
HETATM   17  C   UNL     1       5.591  29.454  50.563  1.00  0.00     0.014 A 
HETATM   18  C   UNL     1       4.527  27.871  48.486  1.00  0.00     0.030 A 
HETATM   19  N   UNL     1       4.624  26.055  50.221  1.00  0.00    -0.365 N 
HETATM   20  C   UNL     1       4.800  29.225  48.282  1.00  0.00     0.002 A 
HETATM   21  C   UNL     1       5.323  30.009  49.305  1.00  0.00     0.001 A 
HETATM   22  H   UNL     1       4.245  25.294  49.675  1.00  0.00     0.165 HD
HETATM   23  C   UNL     1       5.039  25.966  51.519  1.00  0.00     0.100 A 
ENDBRANCH   8  14
BRANCH   1  24
HETATM   24  C   UNL     1       8.589  23.105  53.848  1.00  0.00     0.034 C 
HETATM   25  C   UNL     1       7.903  21.765  53.624  1.00  0.00     0.010 C 
ENDBRANCH   1  24
TORSDOF 3
ENDMDL
