MODEL 1
REMARK VINA RESULT:      -9.3      0.000      0.000
REMARK  6 active torsions:
REMARK  status: ('A' for Active; 'I' for Inactive)
REMARK    1  A    between atoms: O_2  and  C_3 
REMARK    2  A    between atoms: N_7  and  C_9 
REMARK    3  A    between atoms: C_9  and  C_10 
REMARK    4  A    between atoms: C_11  and  O_12 
REMARK    5  A    between atoms: C_22  and  N_23 
REMARK       I    between atoms: N_23  and  C_24 
REMARK    6  A    between atoms: C_24  and  C_25 
ROOT
HETATM    1  C   UNL     1       4.381  34.065  64.038  1.00  0.00     0.161 C 
HETATM    2  C   UNL     1       5.000  35.214  64.918  1.00  0.00     0.019 C 
HETATM    3  C   UNL     1       6.436  34.876  65.389  1.00  0.00     0.045 C 
HETATM    4  C   UNL     1       6.467  33.790  66.459  1.00  0.00     0.236 C 
HETATM    5  N   UNL     1       5.577  34.162  67.616  1.00  0.00    -0.067 N 
HETATM    6  H   UNL     1       5.540  33.324  68.220  1.00  0.00     0.280 HD
HETATM    7  C   UNL     1       4.161  34.437  67.182  1.00  0.00     0.236 C 
HETATM    8  C   UNL     1       4.143  35.562  66.154  1.00  0.00     0.045 C 
HETATM    9  C   UNL     1       5.077  36.323  63.888  1.00  0.00    -0.038 A 
HETATM   10  C   UNL     1       4.989  35.815  62.579  1.00  0.00    -0.026 A 
HETATM   11  C   UNL     1       4.845  34.309  62.564  1.00  0.00     0.148 C 
HETATM   12  C   UNL     1       5.243  37.686  64.103  1.00  0.00     0.009 A 
HETATM   13  C   UNL     1       5.311  38.537  62.999  1.00  0.00     0.001 A 
HETATM   14  C   UNL     1       5.216  38.028  61.697  1.00  0.00     0.001 A 
HETATM   15  C   UNL     1       5.056  36.659  61.479  1.00  0.00     0.010 A 
ENDROOT
BRANCH   1  16
HETATM   16  O   UNL     1       2.952  33.937  64.223  1.00  0.00    -0.387 OA
HETATM   17  C   UNL     1       2.109  34.006  63.079  1.00  0.00     0.202 C 
ENDBRANCH   1  16
BRANCH  11  18
HETATM   18  N   UNL     1       6.096  33.732  62.080  1.00  0.00    -0.346 N 
HETATM   19  C   UNL     1       6.450  32.406  62.062  1.00  0.00     0.252 C 
HETATM   20  O   UNL     1       5.887  31.553  62.741  1.00  0.00    -0.268 OA
HETATM   21  H   UNL     1       6.654  34.361  61.522  1.00  0.00     0.163 HD
BRANCH  19  22
HETATM   22  C   UNL     1       7.602  32.073  61.214  1.00  0.00     0.039 A 
HETATM   23  C   UNL     1       7.440  31.775  59.870  1.00  0.00     0.066 A 
HETATM   24  S   UNL     1       8.909  31.426  59.069  1.00  0.00    -0.113 SA
HETATM   25  C   UNL     1       9.806  31.686  60.497  1.00  0.00     0.050 A 
HETATM   26  C   UNL     1       8.998  32.023  61.562  1.00  0.00     0.024 A 
ENDBRANCH  19  22
ENDBRANCH  11  18
BRANCH   5  27
HETATM   27  C   UNL     1       6.140  35.208  68.555  1.00  0.00     0.276 C 
BRANCH  27  28
HETATM   28  C   UNL     1       6.895  34.641  69.726  1.00  0.00     0.002 A 
HETATM   29  C   UNL     1       7.828  35.411  70.432  1.00  0.00     0.073 A 
HETATM   30  C   UNL     1       8.548  34.878  71.500  1.00  0.00     0.039 A 
HETATM   31  C   UNL     1       8.336  33.551  71.877  1.00  0.00     0.026 A 
HETATM   32  C   UNL     1       7.415  32.771  71.184  1.00  0.00     0.034 A 
HETATM   33 CL   UNL     1       7.149  31.138  71.649  1.00  0.00    -0.084 Cl
HETATM   34  C   UNL     1       6.698  33.306  70.112  1.00  0.00     0.035 A 
BRANCH  29  35
HETATM   35  O   UNL     1       8.000  36.717  70.060  1.00  0.00    -0.360 OA
HETATM   36  H   UNL     1       8.124  36.739  69.089  1.00  0.00     0.217 HD
ENDBRANCH  29  35
ENDBRANCH  27  28
ENDBRANCH   5  27
TORSDOF 6
ENDMDL
MODEL 2
REMARK VINA RESULT:      -8.0     13.937     16.206
REMARK  6 active torsions:
REMARK  status: ('A' for Active; 'I' for Inactive)
REMARK    1  A    between atoms: O_2  and  C_3 
REMARK    2  A    between atoms: N_7  and  C_9 
REMARK    3  A    between atoms: C_9  and  C_10 
REMARK    4  A    between atoms: C_11  and  O_12 
REMARK    5  A    between atoms: C_22  and  N_23 
REMARK       I    between atoms: N_23  and  C_24 
REMARK    6  A    between atoms: C_24  and  C_25 
ROOT
HETATM    1  C   UNL     1       4.501  30.157  50.754  1.00  0.00     0.161 C 
HETATM    2  C   UNL     1       4.129  28.629  50.693  1.00  0.00     0.019 C 
HETATM    3  C   UNL     1       3.128  28.229  51.806  1.00  0.00     0.045 C 
HETATM    4  C   UNL     1       3.764  28.205  53.191  1.00  0.00     0.236 C 
HETATM    5  N   UNL     1       4.985  27.322  53.197  1.00  0.00    -0.067 N 
HETATM    6  H   UNL     1       5.433  27.472  54.118  1.00  0.00     0.280 HD
HETATM    7  C   UNL     1       5.995  27.735  52.159  1.00  0.00     0.236 C 
HETATM    8  C   UNL     1       5.358  27.700  50.775  1.00  0.00     0.045 C 
HETATM    9  C   UNL     1       3.411  28.586  49.358  1.00  0.00    -0.038 A 
HETATM   10  C   UNL     1       3.011  29.872  48.949  1.00  0.00    -0.026 A 
HETATM   11  C   UNL     1       3.407  30.934  49.951  1.00  0.00     0.148 C 
HETATM   12  C   UNL     1       3.109  27.475  48.580  1.00  0.00     0.009 A 
HETATM   13  C   UNL     1       2.414  27.662  47.384  1.00  0.00     0.001 A 
HETATM   14  C   UNL     1       2.024  28.945  46.976  1.00  0.00     0.001 A 
HETATM   15  C   UNL     1       2.321  30.060  47.759  1.00  0.00     0.010 A 
ENDROOT
BRANCH   1  16
HETATM   16  O   UNL     1       5.865  30.409  50.344  1.00  0.00    -0.387 OA
HETATM   17  C   UNL     1       6.144  31.590  49.599  1.00  0.00     0.202 C 
ENDBRANCH   1  16
BRANCH  11  18
HETATM   18  N   UNL     1       2.198  31.407  50.619  1.00  0.00    -0.346 N 
HETATM   19  C   UNL     1       1.464  32.529  50.319  1.00  0.00     0.252 C 
HETATM   20  O   UNL     1       1.903  33.456  49.646  1.00  0.00    -0.268 OA
HETATM   21  H   UNL     1       1.762  30.726  51.221  1.00  0.00     0.163 HD
BRANCH  19  22
HETATM   22  C   UNL     1       0.122  32.580  50.912  1.00  0.00     0.039 A 
HETATM   23  C   UNL     1      -0.148  33.387  52.007  1.00  0.00     0.066 A 
HETATM   24  S   UNL     1      -1.772  33.301  52.531  1.00  0.00    -0.113 SA
HETATM   25  C   UNL     1      -2.166  32.197  51.292  1.00  0.00     0.050 A 
HETATM   26  C   UNL     1      -1.076  31.896  50.502  1.00  0.00     0.024 A 
ENDBRANCH  19  22
ENDBRANCH  11  18
BRANCH   5  27
HETATM   27  C   UNL     1       4.706  25.834  53.218  1.00  0.00     0.276 C 
BRANCH  27  28
HETATM   28  C   UNL     1       5.684  25.035  54.036  1.00  0.00     0.002 A 
HETATM   29  C   UNL     1       5.784  25.208  55.423  1.00  0.00     0.073 A 
HETATM   30  C   UNL     1       6.710  24.489  56.177  1.00  0.00     0.039 A 
HETATM   31  C   UNL     1       7.554  23.577  55.541  1.00  0.00     0.026 A 
HETATM   32  C   UNL     1       7.469  23.396  54.163  1.00  0.00     0.034 A 
HETATM   33 CL   UNL     1       8.505  22.271  53.379  1.00  0.00    -0.084 Cl
HETATM   34  C   UNL     1       6.544  24.121  53.409  1.00  0.00     0.035 A 
BRANCH  29  35
HETATM   35  O   UNL     1       4.929  26.089  56.027  1.00  0.00    -0.360 OA
HETATM   36  H   UNL     1       4.042  25.966  55.631  1.00  0.00     0.217 HD
ENDBRANCH  29  35
ENDBRANCH  27  28
ENDBRANCH   5  27
TORSDOF 6
ENDMDL
MODEL 3
REMARK VINA RESULT:      -7.9      6.698     11.004
REMARK  6 active torsions:
REMARK  status: ('A' for Active; 'I' for Inactive)
REMARK    1  A    between atoms: O_2  and  C_3 
REMARK    2  A    between atoms: N_7  and  C_9 
REMARK    3  A    between atoms: C_9  and  C_10 
REMARK    4  A    between atoms: C_11  and  O_12 
REMARK    5  A    between atoms: C_22  and  N_23 
REMARK       I    between atoms: N_23  and  C_24 
REMARK    6  A    between atoms: C_24  and  C_25 
ROOT
HETATM    1  C   UNL     1       7.744  29.019  55.633  1.00  0.00     0.161 C 
HETATM    2  C   UNL     1       6.653  28.900  56.761  1.00  0.00     0.019 C 
HETATM    3  C   UNL     1       5.436  29.819  56.492  1.00  0.00     0.045 C 
HETATM    4  C   UNL     1       5.753  31.296  56.702  1.00  0.00     0.236 C 
HETATM    5  N   UNL     1       6.328  31.523  58.075  1.00  0.00    -0.067 N 
HETATM    6  H   UNL     1       6.647  32.507  58.085  1.00  0.00     0.280 HD
HETATM    7  C   UNL     1       7.549  30.679  58.331  1.00  0.00     0.236 C 
HETATM    8  C   UNL     1       7.201  29.203  58.171  1.00  0.00     0.045 C 
HETATM    9  C   UNL     1       6.224  27.459  56.562  1.00  0.00    -0.038 A 
HETATM   10  C   UNL     1       6.610  26.980  55.297  1.00  0.00    -0.026 A 
HETATM   11  C   UNL     1       7.340  28.030  54.490  1.00  0.00     0.148 C 
HETATM   12  C   UNL     1       5.515  26.645  57.437  1.00  0.00     0.009 A 
HETATM   13  C   UNL     1       5.203  25.344  57.039  1.00  0.00     0.001 A 
HETATM   14  C   UNL     1       5.595  24.867  55.781  1.00  0.00     0.001 A 
HETATM   15  C   UNL     1       6.301  25.685  54.900  1.00  0.00     0.010 A 
ENDROOT
BRANCH   1  16
HETATM   16  O   UNL     1       9.087  28.856  56.145  1.00  0.00    -0.387 OA
HETATM   17  C   UNL     1      10.103  29.739  55.684  1.00  0.00     0.202 C 
ENDBRANCH   1  16
BRANCH  11  18
HETATM   18  N   UNL     1       6.463  28.471  53.409  1.00  0.00    -0.346 N 
HETATM   19  C   UNL     1       6.068  27.749  52.310  1.00  0.00     0.252 C 
HETATM   20  O   UNL     1       6.651  26.740  51.926  1.00  0.00    -0.268 OA
HETATM   21  H   UNL     1       5.946  29.313  53.611  1.00  0.00     0.163 HD
BRANCH  19  22
HETATM   22  C   UNL     1       4.924  28.301  51.573  1.00  0.00     0.039 A 
HETATM   23  C   UNL     1       4.721  28.002  50.234  1.00  0.00     0.066 A 
HETATM   24  S   UNL     1       3.329  28.741  49.575  1.00  0.00    -0.113 SA
HETATM   25  C   UNL     1       2.946  29.467  51.071  1.00  0.00     0.050 A 
HETATM   26  C   UNL     1       3.868  29.156  52.048  1.00  0.00     0.024 A 
ENDBRANCH  19  22
ENDBRANCH  11  18
BRANCH   5  27
HETATM   27  C   UNL     1       5.324  31.502  59.208  1.00  0.00     0.276 C 
BRANCH  27  28
HETATM   28  C   UNL     1       5.633  32.463  60.323  1.00  0.00     0.002 A 
HETATM   29  C   UNL     1       4.977  33.697  60.423  1.00  0.00     0.073 A 
HETATM   30  C   UNL     1       5.282  34.600  61.439  1.00  0.00     0.039 A 
HETATM   31  C   UNL     1       6.260  34.271  62.379  1.00  0.00     0.026 A 
HETATM   32  C   UNL     1       6.924  33.050  62.293  1.00  0.00     0.034 A 
HETATM   33 CL   UNL     1       8.126  32.641  63.452  1.00  0.00    -0.084 Cl
HETATM   34  C   UNL     1       6.619  32.149  61.271  1.00  0.00     0.035 A 
BRANCH  29  35
HETATM   35  O   UNL     1       4.004  33.986  59.504  1.00  0.00    -0.360 OA
HETATM   36  H   UNL     1       3.756  34.926  59.614  1.00  0.00     0.217 HD
ENDBRANCH  29  35
ENDBRANCH  27  28
ENDBRANCH   5  27
TORSDOF 6
ENDMDL
MODEL 4
REMARK VINA RESULT:      -7.9      7.853     12.337
REMARK  6 active torsions:
REMARK  status: ('A' for Active; 'I' for Inactive)
REMARK    1  A    between atoms: O_2  and  C_3 
REMARK    2  A    between atoms: N_7  and  C_9 
REMARK    3  A    between atoms: C_9  and  C_10 
REMARK    4  A    between atoms: C_11  and  O_12 
REMARK    5  A    between atoms: C_22  and  N_23 
REMARK       I    between atoms: N_23  and  C_24 
REMARK    6  A    between atoms: C_24  and  C_25 
ROOT
HETATM    1  C   UNL     1       7.024  28.674  54.767  1.00  0.00     0.161 C 
HETATM    2  C   UNL     1       5.961  28.367  55.887  1.00  0.00     0.019 C 
HETATM    3  C   UNL     1       4.516  28.654  55.411  1.00  0.00     0.045 C 
HETATM    4  C   UNL     1       4.220  30.145  55.285  1.00  0.00     0.236 C 
HETATM    5  N   UNL     1       4.533  30.857  56.575  1.00  0.00    -0.067 N 
HETATM    6  H   UNL     1       4.446  31.866  56.365  1.00  0.00     0.280 HD
HETATM    7  C   UNL     1       5.954  30.635  57.021  1.00  0.00     0.236 C 
HETATM    8  C   UNL     1       6.216  29.144  57.196  1.00  0.00     0.045 C 
HETATM    9  C   UNL     1       6.139  26.867  56.015  1.00  0.00    -0.038 A 
HETATM   10  C   UNL     1       6.797  26.331  54.892  1.00  0.00    -0.026 A 
HETATM   11  C   UNL     1       7.140  27.395  53.873  1.00  0.00     0.148 C 
HETATM   12  C   UNL     1       5.719  26.037  57.046  1.00  0.00     0.009 A 
HETATM   13  C   UNL     1       5.969  24.667  56.950  1.00  0.00     0.001 A 
HETATM   14  C   UNL     1       6.630  24.137  55.834  1.00  0.00     0.001 A 
HETATM   15  C   UNL     1       7.048  24.968  54.795  1.00  0.00     0.010 A 
ENDROOT
BRANCH   1  16
HETATM   16  O   UNL     1       8.272  29.163  55.310  1.00  0.00    -0.387 OA
HETATM   17  C   UNL     1       9.471  28.927  54.581  1.00  0.00     0.202 C 
ENDBRANCH   1  16
BRANCH  11  18
HETATM   18  N   UNL     1       6.266  27.222  52.717  1.00  0.00    -0.346 N 
HETATM   19  C   UNL     1       5.923  28.169  51.782  1.00  0.00     0.252 C 
HETATM   20  O   UNL     1       6.057  29.373  51.970  1.00  0.00    -0.268 OA
HETATM   21  H   UNL     1       6.070  26.260  52.484  1.00  0.00     0.163 HD
BRANCH  19  22
HETATM   22  C   UNL     1       5.321  27.646  50.550  1.00  0.00     0.039 A 
HETATM   23  C   UNL     1       5.166  28.450  49.430  1.00  0.00     0.066 A 
HETATM   24  S   UNL     1       4.452  27.641  48.105  1.00  0.00    -0.113 SA
HETATM   25  C   UNL     1       4.349  26.184  48.986  1.00  0.00     0.050 A 
HETATM   26  C   UNL     1       4.843  26.318  50.267  1.00  0.00     0.024 A 
ENDBRANCH  19  22
ENDBRANCH  11  18
BRANCH   5  27
HETATM   27  C   UNL     1       3.512  30.672  57.678  1.00  0.00     0.276 C 
BRANCH  27  28
HETATM   28  C   UNL     1       3.489  31.787  58.688  1.00  0.00     0.002 A 
HETATM   29  C   UNL     1       3.138  31.551  60.024  1.00  0.00     0.073 A 
HETATM   30  C   UNL     1       3.089  32.588  60.954  1.00  0.00     0.039 A 
HETATM   31  C   UNL     1       3.397  33.888  60.550  1.00  0.00     0.026 A 
HETATM   32  C   UNL     1       3.745  34.140  59.226  1.00  0.00     0.034 A 
HETATM   33 CL   UNL     1       4.129  35.740  58.728  1.00  0.00    -0.084 Cl
HETATM   34  C   UNL     1       3.789  33.101  58.295  1.00  0.00     0.035 A 
BRANCH  29  35
HETATM   35  O   UNL     1       2.865  30.264  60.401  1.00  0.00    -0.360 OA
HETATM   36  H   UNL     1       1.983  30.028  60.049  1.00  0.00     0.217 HD
ENDBRANCH  29  35
ENDBRANCH  27  28
ENDBRANCH   5  27
TORSDOF 6
ENDMDL
MODEL 5
REMARK VINA RESULT:      -7.7      6.951     11.258
REMARK  6 active torsions:
REMARK  status: ('A' for Active; 'I' for Inactive)
REMARK    1  A    between atoms: O_2  and  C_3 
REMARK    2  A    between atoms: N_7  and  C_9 
REMARK    3  A    between atoms: C_9  and  C_10 
REMARK    4  A    between atoms: C_11  and  O_12 
REMARK    5  A    between atoms: C_22  and  N_23 
REMARK       I    between atoms: N_23  and  C_24 
REMARK    6  A    between atoms: C_24  and  C_25 
ROOT
HETATM    1  C   UNL     1       7.762  29.010  55.610  1.00  0.00     0.161 C 
HETATM    2  C   UNL     1       6.619  28.895  56.686  1.00  0.00     0.019 C 
HETATM    3  C   UNL     1       5.396  29.777  56.332  1.00  0.00     0.045 C 
HETATM    4  C   UNL     1       5.669  31.266  56.516  1.00  0.00     0.236 C 
HETATM    5  N   UNL     1       6.169  31.543  57.909  1.00  0.00    -0.067 N 
HETATM    6  H   UNL     1       6.464  32.535  57.908  1.00  0.00     0.280 HD
HETATM    7  C   UNL     1       7.394  30.735  58.248  1.00  0.00     0.236 C 
HETATM    8  C   UNL     1       7.088  29.248  58.113  1.00  0.00     0.045 C 
HETATM    9  C   UNL     1       6.233  27.440  56.506  1.00  0.00    -0.038 A 
HETATM   10  C   UNL     1       6.693  26.936  55.275  1.00  0.00    -0.026 A 
HETATM   11  C   UNL     1       7.439  27.982  54.476  1.00  0.00     0.148 C 
HETATM   12  C   UNL     1       5.500  26.632  57.366  1.00  0.00     0.009 A 
HETATM   13  C   UNL     1       5.238  25.314  56.990  1.00  0.00     0.001 A 
HETATM   14  C   UNL     1       5.703  24.813  55.766  1.00  0.00     0.001 A 
HETATM   15  C   UNL     1       6.434  25.624  54.899  1.00  0.00     0.010 A 
ENDROOT
BRANCH   1  16
HETATM   16  O   UNL     1       9.081  28.893  56.192  1.00  0.00    -0.387 OA
HETATM   17  C   UNL     1      10.105  29.772  55.741  1.00  0.00     0.202 C 
ENDBRANCH   1  16
BRANCH  11  18
HETATM   18  N   UNL     1       6.607  28.373  53.342  1.00  0.00    -0.346 N 
HETATM   19  C   UNL     1       6.238  27.595  52.272  1.00  0.00     0.252 C 
HETATM   20  O   UNL     1       6.817  26.557  51.967  1.00  0.00    -0.268 OA
HETATM   21  H   UNL     1       6.097  29.233  53.477  1.00  0.00     0.163 HD
BRANCH  19  22
HETATM   22  C   UNL     1       5.130  28.120  51.465  1.00  0.00     0.039 A 
HETATM   23  C   UNL     1       5.131  28.005  50.082  1.00  0.00     0.066 A 
HETATM   24  S   UNL     1       3.745  28.676  49.342  1.00  0.00    -0.113 SA
HETATM   25  C   UNL     1       3.092  29.120  50.854  1.00  0.00     0.050 A 
HETATM   26  C   UNL     1       3.921  28.770  51.899  1.00  0.00     0.024 A 
ENDBRANCH  19  22
ENDBRANCH  11  18
BRANCH   5  27
HETATM   27  C   UNL     1       5.110  31.528  58.991  1.00  0.00     0.276 C 
BRANCH  27  28
HETATM   28  C   UNL     1       5.198  32.679  59.955  1.00  0.00     0.002 A 
HETATM   29  C   UNL     1       5.977  32.598  61.117  1.00  0.00     0.073 A 
HETATM   30  C   UNL     1       6.036  33.654  62.025  1.00  0.00     0.039 A 
HETATM   31  C   UNL     1       5.308  34.818  61.773  1.00  0.00     0.026 A 
HETATM   32  C   UNL     1       4.527  34.914  60.625  1.00  0.00     0.034 A 
HETATM   33 CL   UNL     1       3.633  36.347  60.311  1.00  0.00    -0.084 Cl
HETATM   34  C   UNL     1       4.465  33.853  59.719  1.00  0.00     0.035 A 
BRANCH  29  35
HETATM   35  O   UNL     1       6.701  31.457  61.329  1.00  0.00    -0.360 OA
HETATM   36  H   UNL     1       6.647  31.238  62.281  1.00  0.00     0.217 HD
ENDBRANCH  29  35
ENDBRANCH  27  28
ENDBRANCH   5  27
TORSDOF 6
ENDMDL
MODEL 6
REMARK VINA RESULT:      -7.6     13.577     15.784
REMARK  6 active torsions:
REMARK  status: ('A' for Active; 'I' for Inactive)
REMARK    1  A    between atoms: O_2  and  C_3 
REMARK    2  A    between atoms: N_7  and  C_9 
REMARK    3  A    between atoms: C_9  and  C_10 
REMARK    4  A    between atoms: C_11  and  O_12 
REMARK    5  A    between atoms: C_22  and  N_23 
REMARK       I    between atoms: N_23  and  C_24 
REMARK    6  A    between atoms: C_24  and  C_25 
ROOT
HETATM    1  C   UNL     1       5.471  29.222  49.307  1.00  0.00     0.161 C 
HETATM    2  C   UNL     1       4.486  28.699  50.418  1.00  0.00     0.019 C 
HETATM    3  C   UNL     1       4.958  29.088  51.842  1.00  0.00     0.045 C 
HETATM    4  C   UNL     1       6.180  28.298  52.296  1.00  0.00     0.236 C 
HETATM    5  N   UNL     1       5.925  26.817  52.180  1.00  0.00    -0.067 N 
HETATM    6  H   UNL     1       6.835  26.362  52.364  1.00  0.00     0.280 HD
HETATM    7  C   UNL     1       5.523  26.414  50.785  1.00  0.00     0.236 C 
HETATM    8  C   UNL     1       4.268  27.172  50.368  1.00  0.00     0.045 C 
HETATM    9  C   UNL     1       3.252  29.511  50.079  1.00  0.00    -0.038 A 
HETATM   10  C   UNL     1       3.571  30.617  49.271  1.00  0.00    -0.026 A 
HETATM   11  C   UNL     1       5.051  30.690  48.967  1.00  0.00     0.148 C 
HETATM   12  C   UNL     1       1.942  29.293  50.487  1.00  0.00     0.009 A 
HETATM   13  C   UNL     1       0.952  30.186  50.072  1.00  0.00     0.001 A 
HETATM   14  C   UNL     1       1.272  31.283  49.261  1.00  0.00     0.001 A 
HETATM   15  C   UNL     1       2.588  31.506  48.856  1.00  0.00     0.010 A 
ENDROOT
BRANCH   1  16
HETATM   16  O   UNL     1       5.551  28.324  48.175  1.00  0.00    -0.387 OA
HETATM   17  C   UNL     1       5.096  28.785  46.907  1.00  0.00     0.202 C 
ENDBRANCH   1  16
BRANCH  11  18
HETATM   18  N   UNL     1       5.618  31.810  49.713  1.00  0.00    -0.346 N 
HETATM   19  C   UNL     1       5.947  33.052  49.228  1.00  0.00     0.252 C 
HETATM   20  O   UNL     1       6.099  33.286  48.034  1.00  0.00    -0.268 OA
HETATM   21  H   UNL     1       5.565  31.711  50.715  1.00  0.00     0.163 HD
BRANCH  19  22
HETATM   22  C   UNL     1       6.168  34.086  50.247  1.00  0.00     0.039 A 
HETATM   23  C   UNL     1       5.825  33.871  51.574  1.00  0.00     0.066 A 
HETATM   24  S   UNL     1       6.174  35.199  52.590  1.00  0.00    -0.113 SA
HETATM   25  C   UNL     1       6.815  36.093  51.286  1.00  0.00     0.050 A 
HETATM   26  C   UNL     1       6.755  35.392  50.100  1.00  0.00     0.024 A 
ENDBRANCH  19  22
ENDBRANCH  11  18
BRANCH   5  27
HETATM   27  C   UNL     1       5.048  26.226  53.262  1.00  0.00     0.276 C 
BRANCH  27  28
HETATM   28  C   UNL     1       5.764  25.280  54.187  1.00  0.00     0.002 A 
HETATM   29  C   UNL     1       5.728  25.455  55.577  1.00  0.00     0.073 A 
HETATM   30  C   UNL     1       6.414  24.595  56.433  1.00  0.00     0.039 A 
HETATM   31  C   UNL     1       7.152  23.538  55.899  1.00  0.00     0.026 A 
HETATM   32  C   UNL     1       7.200  23.352  54.520  1.00  0.00     0.034 A 
HETATM   33 CL   UNL     1       8.104  22.048  53.859  1.00  0.00    -0.084 Cl
HETATM   34  C   UNL     1       6.516  24.217  53.664  1.00  0.00     0.035 A 
BRANCH  29  35
HETATM   35  O   UNL     1       4.978  26.484  56.078  1.00  0.00    -0.360 OA
HETATM   36  H   UNL     1       5.557  27.269  56.156  1.00  0.00     0.217 HD
ENDBRANCH  29  35
ENDBRANCH  27  28
ENDBRANCH   5  27
TORSDOF 6
ENDMDL
MODEL 7
REMARK VINA RESULT:      -7.4      5.274      7.772
REMARK  6 active torsions:
REMARK  status: ('A' for Active; 'I' for Inactive)
REMARK    1  A    between atoms: O_2  and  C_3 
REMARK    2  A    between atoms: N_7  and  C_9 
REMARK    3  A    between atoms: C_9  and  C_10 
REMARK    4  A    between atoms: C_11  and  O_12 
REMARK    5  A    between atoms: C_22  and  N_23 
REMARK       I    between atoms: N_23  and  C_24 
REMARK    6  A    between atoms: C_24  and  C_25 
ROOT
HETATM    1  C   UNL     1       3.220  33.150  56.385  1.00  0.00     0.161 C 
HETATM    2  C   UNL     1       4.058  34.246  57.142  1.00  0.00     0.019 C 
HETATM    3  C   UNL     1       5.067  33.622  58.137  1.00  0.00     0.045 C 
HETATM    4  C   UNL     1       4.392  33.028  59.368  1.00  0.00     0.236 C 
HETATM    5  N   UNL     1       3.514  34.053  60.036  1.00  0.00    -0.067 N 
HETATM    6  H   UNL     1       2.989  33.539  60.764  1.00  0.00     0.280 HD
HETATM    7  C   UNL     1       2.487  34.627  59.096  1.00  0.00     0.236 C 
HETATM    8  C   UNL     1       3.181  35.266  57.898  1.00  0.00     0.045 C 
HETATM    9  C   UNL     1       4.829  34.839  55.978  1.00  0.00    -0.038 A 
HETATM   10  C   UNL     1       4.825  33.975  54.868  1.00  0.00    -0.026 A 
HETATM   11  C   UNL     1       4.058  32.700  55.142  1.00  0.00     0.148 C 
HETATM   12  C   UNL     1       5.509  36.049  55.926  1.00  0.00     0.009 A 
HETATM   13  C   UNL     1       6.178  36.392  54.750  1.00  0.00     0.001 A 
HETATM   14  C   UNL     1       6.167  35.533  53.643  1.00  0.00     0.001 A 
HETATM   15  C   UNL     1       5.489  34.315  53.696  1.00  0.00     0.010 A 
ENDROOT
BRANCH   1  16
HETATM   16  O   UNL     1       1.872  33.588  56.095  1.00  0.00    -0.387 OA
HETATM   17  C   UNL     1       1.209  33.043  54.960  1.00  0.00     0.202 C 
ENDBRANCH   1  16
BRANCH  11  18
HETATM   18  N   UNL     1       5.015  31.604  55.257  1.00  0.00    -0.346 N 
HETATM   19  C   UNL     1       4.747  30.291  55.557  1.00  0.00     0.252 C 
HETATM   20  O   UNL     1       3.699  29.924  56.078  1.00  0.00    -0.268 OA
HETATM   21  H   UNL     1       5.927  31.806  54.875  1.00  0.00     0.163 HD
BRANCH  19  22
HETATM   22  C   UNL     1       5.831  29.344  55.268  1.00  0.00     0.039 A 
HETATM   23  C   UNL     1       5.791  28.528  54.147  1.00  0.00     0.066 A 
HETATM   24  S   UNL     1       7.156  27.511  53.998  1.00  0.00    -0.113 SA
HETATM   25  C   UNL     1       7.851  28.150  55.419  1.00  0.00     0.050 A 
HETATM   26  C   UNL     1       7.051  29.114  55.997  1.00  0.00     0.024 A 
ENDBRANCH  19  22
ENDBRANCH  11  18
BRANCH   5  27
HETATM   27  C   UNL     1       4.246  35.099  60.851  1.00  0.00     0.276 C 
BRANCH  27  28
HETATM   28  C   UNL     1       4.505  34.698  62.278  1.00  0.00     0.002 A 
HETATM   29  C   UNL     1       3.491  34.749  63.243  1.00  0.00     0.073 A 
HETATM   30  C   UNL     1       3.736  34.404  64.571  1.00  0.00     0.039 A 
HETATM   31  C   UNL     1       5.017  33.998  64.950  1.00  0.00     0.026 A 
HETATM   32  C   UNL     1       6.036  33.944  64.003  1.00  0.00     0.034 A 
HETATM   33 CL   UNL     1       7.613  33.440  64.467  1.00  0.00    -0.084 Cl
HETATM   34  C   UNL     1       5.789  34.294  62.675  1.00  0.00     0.035 A 
BRANCH  29  35
HETATM   35  O   UNL     1       2.237  35.126  62.842  1.00  0.00    -0.360 OA
HETATM   36  H   UNL     1       2.299  36.030  62.472  1.00  0.00     0.217 HD
ENDBRANCH  29  35
ENDBRANCH  27  28
ENDBRANCH   5  27
TORSDOF 6
ENDMDL
MODEL 8
REMARK VINA RESULT:      -7.1     13.150     17.920
REMARK  6 active torsions:
REMARK  status: ('A' for Active; 'I' for Inactive)
REMARK    1  A    between atoms: O_2  and  C_3 
REMARK    2  A    between atoms: N_7  and  C_9 
REMARK    3  A    between atoms: C_9  and  C_10 
REMARK    4  A    between atoms: C_11  and  O_12 
REMARK    5  A    between atoms: C_22  and  N_23 
REMARK       I    between atoms: N_23  and  C_24 
REMARK    6  A    between atoms: C_24  and  C_25 
ROOT
HETATM    1  C   UNL     1       3.402  30.374  49.855  1.00  0.00     0.161 C 
HETATM    2  C   UNL     1       4.668  30.349  48.921  1.00  0.00     0.019 C 
HETATM    3  C   UNL     1       5.974  30.633  49.704  1.00  0.00     0.045 C 
HETATM    4  C   UNL     1       6.097  32.089  50.137  1.00  0.00     0.236 C 
HETATM    5  N   UNL     1       5.948  33.008  48.953  1.00  0.00    -0.067 N 
HETATM    6  H   UNL     1       5.899  33.964  49.345  1.00  0.00     0.280 HD
HETATM    7  C   UNL     1       4.655  32.784  48.215  1.00  0.00     0.236 C 
HETATM    8  C   UNL     1       4.572  31.338  47.740  1.00  0.00     0.045 C 
HETATM    9  C   UNL     1       4.660  28.890  48.506  1.00  0.00    -0.038 A 
HETATM   10  C   UNL     1       3.872  28.114  49.375  1.00  0.00    -0.026 A 
HETATM   11  C   UNL     1       3.255  28.946  50.478  1.00  0.00     0.148 C 
HETATM   12  C   UNL     1       5.333  28.295  47.447  1.00  0.00     0.009 A 
HETATM   13  C   UNL     1       5.203  26.918  47.257  1.00  0.00     0.001 A 
HETATM   14  C   UNL     1       4.411  26.149  48.121  1.00  0.00     0.001 A 
HETATM   15  C   UNL     1       3.740  26.744  49.189  1.00  0.00     0.010 A 
ENDROOT
BRANCH   1  16
HETATM   16  O   UNL     1       2.226  30.876  49.178  1.00  0.00    -0.387 OA
HETATM   17  C   UNL     1       0.944  30.520  49.683  1.00  0.00     0.202 C 
ENDBRANCH   1  16
BRANCH  11  18
HETATM   18  N   UNL     1       3.925  28.617  51.732  1.00  0.00    -0.346 N 
HETATM   19  C   UNL     1       3.669  29.138  52.976  1.00  0.00     0.252 C 
HETATM   20  O   UNL     1       3.050  30.183  53.150  1.00  0.00    -0.268 OA
HETATM   21  H   UNL     1       4.485  27.778  51.696  1.00  0.00     0.163 HD
BRANCH  19  22
HETATM   22  C   UNL     1       4.241  28.390  54.102  1.00  0.00     0.039 A 
HETATM   23  C   UNL     1       5.026  27.266  53.892  1.00  0.00     0.066 A 
HETATM   24  S   UNL     1       5.595  26.553  55.337  1.00  0.00    -0.113 SA
HETATM   25  C   UNL     1       4.823  27.742  56.286  1.00  0.00     0.050 A 
HETATM   26  C   UNL     1       4.139  28.657  55.513  1.00  0.00     0.024 A 
ENDBRANCH  19  22
ENDBRANCH  11  18
BRANCH   5  27
HETATM   27  C   UNL     1       7.159  33.097  48.048  1.00  0.00     0.276 C 
BRANCH  27  28
HETATM   28  C   UNL     1       7.123  34.250  47.082  1.00  0.00     0.002 A 
HETATM   29  C   UNL     1       6.950  35.567  47.529  1.00  0.00     0.073 A 
HETATM   30  C   UNL     1       6.888  36.633  46.633  1.00  0.00     0.039 A 
HETATM   31  C   UNL     1       7.002  36.387  45.264  1.00  0.00     0.026 A 
HETATM   32  C   UNL     1       7.171  35.084  44.804  1.00  0.00     0.034 A 
HETATM   33 CL   UNL     1       7.315  34.780  43.118  1.00  0.00    -0.084 Cl
HETATM   34  C   UNL     1       7.228  34.018  45.702  1.00  0.00     0.035 A 
BRANCH  29  35
HETATM   35  O   UNL     1       6.867  35.786  48.877  1.00  0.00    -0.360 OA
HETATM   36  H   UNL     1       7.654  36.300  49.148  1.00  0.00     0.217 HD
ENDBRANCH  29  35
ENDBRANCH  27  28
ENDBRANCH   5  27
TORSDOF 6
ENDMDL
MODEL 9
REMARK VINA RESULT:      -7.1      6.627      9.591
REMARK  6 active torsions:
REMARK  status: ('A' for Active; 'I' for Inactive)
REMARK    1  A    between atoms: O_2  and  C_3 
REMARK    2  A    between atoms: N_7  and  C_9 
REMARK    3  A    between atoms: C_9  and  C_10 
REMARK    4  A    between atoms: C_11  and  O_12 
REMARK    5  A    between atoms: C_22  and  N_23 
REMARK       I    between atoms: N_23  and  C_24 
REMARK    6  A    between atoms: C_24  and  C_25 
ROOT
HETATM    1  C   UNL     1       2.856  31.632  55.594  1.00  0.00     0.161 C 
HETATM    2  C   UNL     1       4.048  32.563  56.026  1.00  0.00     0.019 C 
HETATM    3  C   UNL     1       5.209  31.763  56.668  1.00  0.00     0.045 C 
HETATM    4  C   UNL     1       4.870  31.245  58.061  1.00  0.00     0.236 C 
HETATM    5  N   UNL     1       4.416  32.374  58.949  1.00  0.00    -0.067 N 
HETATM    6  H   UNL     1       4.071  31.927  59.815  1.00  0.00     0.280 HD
HETATM    7  C   UNL     1       3.249  33.127  58.365  1.00  0.00     0.236 C 
HETATM    8  C   UNL     1       3.623  33.685  56.997  1.00  0.00     0.045 C 
HETATM    9  C   UNL     1       4.499  33.062  54.667  1.00  0.00    -0.038 A 
HETATM   10  C   UNL     1       4.013  32.242  53.632  1.00  0.00    -0.026 A 
HETATM   11  C   UNL     1       3.182  31.093  54.162  1.00  0.00     0.148 C 
HETATM   12  C   UNL     1       5.308  34.154  54.377  1.00  0.00     0.009 A 
HETATM   13  C   UNL     1       5.620  34.423  53.043  1.00  0.00     0.001 A 
HETATM   14  C   UNL     1       5.129  33.608  52.015  1.00  0.00     0.001 A 
HETATM   15  C   UNL     1       4.321  32.508  52.305  1.00  0.00     0.010 A 
ENDROOT
BRANCH   1  16
HETATM   16  O   UNL     1       1.570  32.281  55.732  1.00  0.00    -0.387 OA
HETATM   17  C   UNL     1       1.006  32.924  54.595  1.00  0.00     0.202 C 
ENDBRANCH   1  16
BRANCH  11  18
HETATM   18  N   UNL     1       3.943  29.859  53.993  1.00  0.00    -0.346 N 
HETATM   19  C   UNL     1       3.878  28.977  52.943  1.00  0.00     0.252 C 
HETATM   20  O   UNL     1       2.942  28.946  52.151  1.00  0.00    -0.268 OA
HETATM   21  H   UNL     1       4.732  29.770  54.616  1.00  0.00     0.163 HD
BRANCH  19  22
HETATM   22  C   UNL     1       4.986  28.016  52.859  1.00  0.00     0.039 A 
HETATM   23  C   UNL     1       4.921  26.919  52.014  1.00  0.00     0.066 A 
HETATM   24  S   UNL     1       6.318  25.936  52.067  1.00  0.00    -0.113 SA
HETATM   25  C   UNL     1       7.060  26.966  53.207  1.00  0.00     0.050 A 
HETATM   26  C   UNL     1       6.251  28.031  53.545  1.00  0.00     0.024 A 
ENDBRANCH  19  22
ENDBRANCH  11  18
BRANCH   5  27
HETATM   27  C   UNL     1       5.520  33.270  59.469  1.00  0.00     0.276 C 
BRANCH  27  28
HETATM   28  C   UNL     1       6.295  32.687  60.620  1.00  0.00     0.002 A 
HETATM   29  C   UNL     1       5.658  32.314  61.811  1.00  0.00     0.073 A 
HETATM   30  C   UNL     1       6.379  31.800  62.887  1.00  0.00     0.039 A 
HETATM   31  C   UNL     1       7.762  31.651  62.779  1.00  0.00     0.026 A 
HETATM   32  C   UNL     1       8.411  32.020  61.603  1.00  0.00     0.034 A 
HETATM   33 CL   UNL     1      10.114  31.834  61.466  1.00  0.00    -0.084 Cl
HETATM   34  C   UNL     1       7.687  32.539  60.528  1.00  0.00     0.035 A 
BRANCH  29  35
HETATM   35  O   UNL     1       4.298  32.446  61.884  1.00  0.00    -0.360 OA
HETATM   36  H   UNL     1       3.896  31.695  61.400  1.00  0.00     0.217 HD
ENDBRANCH  29  35
ENDBRANCH  27  28
ENDBRANCH   5  27
TORSDOF 6
ENDMDL
MODEL 10
REMARK VINA RESULT:      -7.0     12.910     17.150
REMARK  6 active torsions:
REMARK  status: ('A' for Active; 'I' for Inactive)
REMARK    1  A    between atoms: O_2  and  C_3 
REMARK    2  A    between atoms: N_7  and  C_9 
REMARK    3  A    between atoms: C_9  and  C_10 
REMARK    4  A    between atoms: C_11  and  O_12 
REMARK    5  A    between atoms: C_22  and  N_23 
REMARK       I    between atoms: N_23  and  C_24 
REMARK    6  A    between atoms: C_24  and  C_25 
ROOT
HETATM    1  C   UNL     1       3.754  30.127  53.032  1.00  0.00     0.161 C 
HETATM    2  C   UNL     1       4.048  30.419  51.514  1.00  0.00     0.019 C 
HETATM    3  C   UNL     1       2.749  30.485  50.672  1.00  0.00     0.045 C 
HETATM    4  C   UNL     1       2.105  29.118  50.472  1.00  0.00     0.236 C 
HETATM    5  N   UNL     1       3.098  28.146  49.888  1.00  0.00    -0.067 N 
HETATM    6  H   UNL     1       2.634  27.222  49.918  1.00  0.00     0.280 HD
HETATM    7  C   UNL     1       4.343  28.027  50.727  1.00  0.00     0.236 C 
HETATM    8  C   UNL     1       5.004  29.393  50.871  1.00  0.00     0.045 C 
HETATM    9  C   UNL     1       4.625  31.817  51.622  1.00  0.00    -0.038 A 
HETATM   10  C   UNL     1       4.297  32.414  52.853  1.00  0.00    -0.026 A 
HETATM   11  C   UNL     1       3.461  31.500  53.722  1.00  0.00     0.148 C 
HETATM   12  C   UNL     1       5.366  32.516  50.677  1.00  0.00     0.009 A 
HETATM   13  C   UNL     1       5.784  33.814  50.977  1.00  0.00     0.001 A 
HETATM   14  C   UNL     1       5.461  34.403  52.207  1.00  0.00     0.001 A 
HETATM   15  C   UNL     1       4.712  33.704  53.154  1.00  0.00     0.010 A 
ENDROOT
BRANCH   1  16
HETATM   16  O   UNL     1       4.792  29.333  53.652  1.00  0.00    -0.387 OA
HETATM   17  C   UNL     1       4.411  28.252  54.496  1.00  0.00     0.202 C 
ENDBRANCH   1  16
BRANCH  11  18
HETATM   18  N   UNL     1       2.101  32.027  53.767  1.00  0.00    -0.346 N 
HETATM   19  C   UNL     1       1.519  32.747  54.782  1.00  0.00     0.252 C 
HETATM   20  O   UNL     1       1.967  32.777  55.923  1.00  0.00    -0.268 OA
HETATM   21  H   UNL     1       1.626  32.029  52.877  1.00  0.00     0.163 HD
BRANCH  19  22
HETATM   22  C   UNL     1       0.275  33.442  54.427  1.00  0.00     0.039 A 
HETATM   23  C   UNL     1      -0.907  33.190  55.107  1.00  0.00     0.066 A 
HETATM   24  S   UNL     1      -2.229  34.111  54.539  1.00  0.00    -0.113 SA
HETATM   25  C   UNL     1      -1.251  34.891  53.380  1.00  0.00     0.050 A 
HETATM   26  C   UNL     1       0.055  34.449  53.422  1.00  0.00     0.024 A 
ENDBRANCH  19  22
ENDBRANCH  11  18
BRANCH   5  27
HETATM   27  C   UNL     1       3.373  28.316  48.409  1.00  0.00     0.276 C 
BRANCH  27  28
HETATM   28  C   UNL     1       2.136  28.464  47.565  1.00  0.00     0.002 A 
HETATM   29  C   UNL     1       1.256  27.392  47.370  1.00  0.00     0.073 A 
HETATM   30  C   UNL     1       0.125  27.520  46.566  1.00  0.00     0.039 A 
HETATM   31  C   UNL     1      -0.140  28.741  45.942  1.00  0.00     0.026 A 
HETATM   32  C   UNL     1       0.727  29.815  46.123  1.00  0.00     0.034 A 
HETATM   33 CL   UNL     1       0.401  31.320  45.359  1.00  0.00    -0.084 Cl
HETATM   34  C   UNL     1       1.862  29.683  46.925  1.00  0.00     0.035 A 
BRANCH  29  35
HETATM   35  O   UNL     1       1.523  26.213  48.013  1.00  0.00    -0.360 OA
HETATM   36  H   UNL     1       2.370  26.317  48.493  1.00  0.00     0.217 HD
ENDBRANCH  29  35
ENDBRANCH  27  28
ENDBRANCH   5  27
TORSDOF 6
ENDMDL
