MODEL 1
REMARK VINA RESULT:      -9.4      0.000      0.000
REMARK  7 active torsions:
REMARK  status: ('A' for Active; 'I' for Inactive)
REMARK    1  A    between atoms: C_2  and  C_3 
REMARK    2  A    between atoms: C_3  and  C_4 
REMARK    3  A    between atoms: C_3  and  C_12 
REMARK    4  A    between atoms: C_7  and  O_8 
REMARK    5  A    between atoms: C_12  and  C_13 
REMARK       I    between atoms: C_13  and  N_14 
REMARK    6  A    between atoms: N_14  and  C_15 
REMARK    7  A    between atoms: C_22  and  C_23 
REMARK       I    between atoms: C_23  and  N_24 
ROOT
HETATM    1  C   UNL     1       6.422  27.358  55.610  1.00  0.00     0.222 C 
HETATM    2  N   UNL     1       7.302  27.392  56.673  1.00  0.00    -0.327 N 
HETATM    3  O   UNL     1       6.171  28.291  54.851  1.00  0.00    -0.273 OA
HETATM    4  H   UNL     1       7.393  26.550  57.221  1.00  0.00     0.169 HD
ENDROOT
BRANCH   2   5
HETATM    5  C   UNL     1       8.036  28.500  57.152  1.00  0.00     0.035 A 
HETATM    6  C   UNL     1       7.563  29.394  58.122  1.00  0.00     0.046 A 
HETATM    7  C   UNL     1       8.376  30.474  58.533  1.00  0.00     0.030 A 
HETATM    8  C   UNL     1       9.636  30.617  57.966  1.00  0.00     0.063 A 
HETATM    9  C   UNL     1       8.259  31.563  59.449  1.00  0.00     0.156 A 
HETATM   10  N   UNL     1      10.177  31.724  58.557  1.00  0.00    -0.277 N 
HETATM   11  C   UNL     1      10.142  29.746  56.999  1.00  0.00     0.034 A 
HETATM   12  H   UNL     1      11.092  32.126  58.387  1.00  0.00     0.189 HD
HETATM   13  N   UNL     1       9.378  32.324  59.454  1.00  0.00    -0.168 NA
HETATM   14  C   UNL     1       9.313  28.690  56.603  1.00  0.00     0.032 A 
BRANCH   9  15
HETATM   15  C   UNL     1       7.113  31.894  60.308  1.00  0.00     0.270 C 
HETATM   16  N   UNL     1       7.069  31.181  61.476  1.00  0.00    -0.365 N 
HETATM   17  H   UNL     1       7.800  30.506  61.660  1.00  0.00     0.159 HD
HETATM   18  H   UNL     1       6.322  31.346  62.132  1.00  0.00     0.159 HD
HETATM   19  O   UNL     1       6.257  32.729  60.045  1.00  0.00    -0.266 OA
ENDBRANCH   9  15
ENDBRANCH   2   5
BRANCH   1  20
HETATM   20  C   UNL     1       5.790  25.993  55.345  1.00  0.00     0.112 C 
BRANCH  20  21
HETATM   21  C   UNL     1       6.186  25.291  54.032  1.00  0.00     0.027 C 
BRANCH  21  22
HETATM   22  C   UNL     1       5.009  25.200  53.032  1.00  0.00     0.005 C 
HETATM   23  C   UNL     1       5.183  25.942  51.713  1.00  0.00     0.006 C 
ENDBRANCH  21  22
BRANCH  21  24
HETATM   24  C   UNL     1       6.884  23.953  54.213  1.00  0.00    -0.053 A 
HETATM   25  C   UNL     1       7.123  23.393  55.473  1.00  0.00     0.010 A 
HETATM   26  C   UNL     1       7.806  22.180  55.593  1.00  0.00     0.037 A 
HETATM   27  C   UNL     1       8.275  21.510  54.464  1.00  0.00     0.068 A 
HETATM   28  C   UNL     1       8.018  22.041  53.203  1.00  0.00     0.037 A 
HETATM   29  C   UNL     1       7.325  23.250  53.079  1.00  0.00     0.010 A 
BRANCH  27  30
HETATM   30  O   UNL     1       8.947  20.346  54.717  1.00  0.00    -0.356 OA
HETATM   31  C   UNL     1       9.435  20.179  56.043  1.00  0.00     0.210 C 
ENDBRANCH  27  30
ENDBRANCH  21  24
ENDBRANCH  20  21
ENDBRANCH   1  20
TORSDOF 7
ENDMDL
MODEL 2
REMARK VINA RESULT:      -9.4      1.900      3.599
REMARK  7 active torsions:
REMARK  status: ('A' for Active; 'I' for Inactive)
REMARK    1  A    between atoms: C_2  and  C_3 
REMARK    2  A    between atoms: C_3  and  C_4 
REMARK    3  A    between atoms: C_3  and  C_12 
REMARK    4  A    between atoms: C_7  and  O_8 
REMARK    5  A    between atoms: C_12  and  C_13 
REMARK       I    between atoms: C_13  and  N_14 
REMARK    6  A    between atoms: N_14  and  C_15 
REMARK    7  A    between atoms: C_22  and  C_23 
REMARK       I    between atoms: C_23  and  N_24 
ROOT
HETATM    1  C   UNL     1       7.473  25.878  57.476  1.00  0.00     0.222 C 
HETATM    2  N   UNL     1       7.395  27.137  56.914  1.00  0.00    -0.327 N 
HETATM    3  O   UNL     1       8.159  25.561  58.445  1.00  0.00    -0.273 OA
HETATM    4  H   UNL     1       6.800  27.243  56.106  1.00  0.00     0.169 HD
ENDROOT
BRANCH   2   5
HETATM    5  C   UNL     1       8.123  28.292  57.278  1.00  0.00     0.035 A 
HETATM    6  C   UNL     1       7.698  29.215  58.242  1.00  0.00     0.046 A 
HETATM    7  C   UNL     1       8.501  30.342  58.532  1.00  0.00     0.030 A 
HETATM    8  C   UNL     1       9.702  30.500  57.853  1.00  0.00     0.063 A 
HETATM    9  C   UNL     1       8.419  31.470  59.403  1.00  0.00     0.156 A 
HETATM   10  N   UNL     1      10.248  31.654  58.344  1.00  0.00    -0.277 N 
HETATM   11  C   UNL     1      10.158  29.602  56.887  1.00  0.00     0.034 A 
HETATM   12  H   UNL     1      11.128  32.078  58.077  1.00  0.00     0.189 HD
HETATM   13  N   UNL     1       9.503  32.268  59.277  1.00  0.00    -0.168 NA
HETATM   14  C   UNL     1       9.341  28.498  56.613  1.00  0.00     0.032 A 
BRANCH   9  15
HETATM   15  C   UNL     1       7.337  31.802  60.341  1.00  0.00     0.270 C 
HETATM   16  N   UNL     1       7.332  31.039  61.478  1.00  0.00    -0.365 N 
HETATM   17  H   UNL     1       8.046  30.330  61.590  1.00  0.00     0.159 HD
HETATM   18  H   UNL     1       6.630  31.201  62.183  1.00  0.00     0.159 HD
HETATM   19  O   UNL     1       6.500  32.679  60.165  1.00  0.00    -0.266 OA
ENDBRANCH   9  15
ENDBRANCH   2   5
BRANCH   1  20
HETATM   20  C   UNL     1       6.544  24.839  56.851  1.00  0.00     0.112 C 
BRANCH  20  21
HETATM   21  C   UNL     1       7.081  24.083  55.621  1.00  0.00     0.027 C 
BRANCH  21  22
HETATM   22  C   UNL     1       8.612  23.870  55.679  1.00  0.00     0.005 C 
HETATM   23  C   UNL     1       9.112  22.468  55.360  1.00  0.00     0.006 C 
ENDBRANCH  21  22
BRANCH  21  24
HETATM   24  C   UNL     1       6.637  24.653  54.283  1.00  0.00    -0.053 A 
HETATM   25  C   UNL     1       5.301  24.967  54.005  1.00  0.00     0.010 A 
HETATM   26  C   UNL     1       4.933  25.449  52.746  1.00  0.00     0.037 A 
HETATM   27  C   UNL     1       5.882  25.614  51.738  1.00  0.00     0.068 A 
HETATM   28  C   UNL     1       7.219  25.334  52.012  1.00  0.00     0.037 A 
HETATM   29  C   UNL     1       7.592  24.861  53.274  1.00  0.00     0.010 A 
BRANCH  27  30
HETATM   30  O   UNL     1       5.391  26.071  50.546  1.00  0.00    -0.356 OA
HETATM   31  C   UNL     1       5.288  27.483  50.410  1.00  0.00     0.210 C 
ENDBRANCH  27  30
ENDBRANCH  21  24
ENDBRANCH  20  21
ENDBRANCH   1  20
TORSDOF 7
ENDMDL
MODEL 3
REMARK VINA RESULT:      -9.2      2.214      4.105
REMARK  7 active torsions:
REMARK  status: ('A' for Active; 'I' for Inactive)
REMARK    1  A    between atoms: C_2  and  C_3 
REMARK    2  A    between atoms: C_3  and  C_4 
REMARK    3  A    between atoms: C_3  and  C_12 
REMARK    4  A    between atoms: C_7  and  O_8 
REMARK    5  A    between atoms: C_12  and  C_13 
REMARK       I    between atoms: C_13  and  N_14 
REMARK    6  A    between atoms: N_14  and  C_15 
REMARK    7  A    between atoms: C_22  and  C_23 
REMARK       I    between atoms: C_23  and  N_24 
ROOT
HETATM    1  C   UNL     1       8.150  25.698  57.253  1.00  0.00     0.222 C 
HETATM    2  N   UNL     1       7.877  26.853  56.547  1.00  0.00    -0.327 N 
HETATM    3  O   UNL     1       7.938  25.516  58.449  1.00  0.00    -0.273 OA
HETATM    4  H   UNL     1       8.123  26.863  55.569  1.00  0.00     0.169 HD
ENDROOT
BRANCH   2   5
HETATM    5  C   UNL     1       7.372  28.073  57.049  1.00  0.00     0.035 A 
HETATM    6  C   UNL     1       8.163  29.062  57.650  1.00  0.00     0.046 A 
HETATM    7  C   UNL     1       7.560  30.249  58.122  1.00  0.00     0.030 A 
HETATM    8  C   UNL     1       6.188  30.409  57.970  1.00  0.00     0.063 A 
HETATM    9  C   UNL     1       8.000  31.440  58.775  1.00  0.00     0.156 A 
HETATM   10  N   UNL     1       5.904  31.635  58.504  1.00  0.00    -0.277 N 
HETATM   11  C   UNL     1       5.369  29.448  57.376  1.00  0.00     0.034 A 
HETATM   12  H   UNL     1       4.997  32.083  58.563  1.00  0.00     0.189 HD
HETATM   13  N   UNL     1       6.968  32.285  59.002  1.00  0.00    -0.168 NA
HETATM   14  C   UNL     1       5.990  28.277  56.924  1.00  0.00     0.032 A 
BRANCH   9  15
HETATM   15  C   UNL     1       9.367  31.785  59.187  1.00  0.00     0.270 C 
HETATM   16  N   UNL     1       9.583  31.691  60.535  1.00  0.00    -0.365 N 
HETATM   17  H   UNL     1       8.817  31.399  61.130  1.00  0.00     0.159 HD
HETATM   18  H   UNL     1      10.495  31.902  60.910  1.00  0.00     0.159 HD
HETATM   19  O   UNL     1      10.265  32.124  58.426  1.00  0.00    -0.266 OA
ENDBRANCH   9  15
ENDBRANCH   2   5
BRANCH   1  20
HETATM   20  C   UNL     1       8.687  24.544  56.409  1.00  0.00     0.112 C 
BRANCH  20  21
HETATM   21  C   UNL     1       7.644  23.691  55.662  1.00  0.00     0.027 C 
BRANCH  21  22
HETATM   22  C   UNL     1       8.120  22.236  55.438  1.00  0.00     0.005 C 
HETATM   23  C   UNL     1       8.435  21.428  56.690  1.00  0.00     0.006 C 
ENDBRANCH  21  22
BRANCH  21  24
HETATM   24  C   UNL     1       7.110  24.317  54.383  1.00  0.00    -0.053 A 
HETATM   25  C   UNL     1       5.811  24.829  54.282  1.00  0.00     0.010 A 
HETATM   26  C   UNL     1       5.349  25.358  53.074  1.00  0.00     0.037 A 
HETATM   27  C   UNL     1       6.165  25.374  51.942  1.00  0.00     0.068 A 
HETATM   28  C   UNL     1       7.469  24.894  52.038  1.00  0.00     0.037 A 
HETATM   29  C   UNL     1       7.937  24.374  53.249  1.00  0.00     0.010 A 
BRANCH  27  30
HETATM   30  O   UNL     1       5.588  25.896  50.818  1.00  0.00    -0.356 OA
HETATM   31  C   UNL     1       5.366  27.302  50.822  1.00  0.00     0.210 C 
ENDBRANCH  27  30
ENDBRANCH  21  24
ENDBRANCH  20  21
ENDBRANCH   1  20
TORSDOF 7
ENDMDL
MODEL 4
REMARK VINA RESULT:      -8.4      2.784      9.420
REMARK  7 active torsions:
REMARK  status: ('A' for Active; 'I' for Inactive)
REMARK    1  A    between atoms: C_2  and  C_3 
REMARK    2  A    between atoms: C_3  and  C_4 
REMARK    3  A    between atoms: C_3  and  C_12 
REMARK    4  A    between atoms: C_7  and  O_8 
REMARK    5  A    between atoms: C_12  and  C_13 
REMARK       I    between atoms: C_13  and  N_14 
REMARK    6  A    between atoms: N_14  and  C_15 
REMARK    7  A    between atoms: C_22  and  C_23 
REMARK       I    between atoms: C_23  and  N_24 
ROOT
HETATM    1  C   UNL     1       7.314  29.105  57.099  1.00  0.00     0.222 C 
HETATM    2  N   UNL     1       7.215  27.807  57.559  1.00  0.00    -0.327 N 
HETATM    3  O   UNL     1       7.503  29.445  55.934  1.00  0.00    -0.273 OA
HETATM    4  H   UNL     1       7.077  27.680  58.551  1.00  0.00     0.169 HD
ENDROOT
BRANCH   2   5
HETATM    5  C   UNL     1       7.374  26.614  56.820  1.00  0.00     0.035 A 
HETATM    6  C   UNL     1       6.714  26.344  55.614  1.00  0.00     0.046 A 
HETATM    7  C   UNL     1       6.942  25.116  54.952  1.00  0.00     0.030 A 
HETATM    8  C   UNL     1       7.827  24.206  55.516  1.00  0.00     0.063 A 
HETATM    9  C   UNL     1       6.475  24.486  53.759  1.00  0.00     0.156 A 
HETATM   10  N   UNL     1       7.846  23.140  54.661  1.00  0.00    -0.277 N 
HETATM   11  C   UNL     1       8.504  24.440  56.714  1.00  0.00     0.034 A 
HETATM   12  H   UNL     1       8.386  22.288  54.753  1.00  0.00     0.189 HD
HETATM   13  N   UNL     1       7.043  23.269  53.592  1.00  0.00    -0.168 NA
HETATM   14  C   UNL     1       8.254  25.660  57.354  1.00  0.00     0.032 A 
BRANCH   9  15
HETATM   15  C   UNL     1       5.506  25.011  52.787  1.00  0.00     0.270 C 
HETATM   16  N   UNL     1       4.218  25.045  53.248  1.00  0.00    -0.365 N 
HETATM   17  H   UNL     1       4.031  24.723  54.190  1.00  0.00     0.159 HD
HETATM   18  H   UNL     1       3.485  25.397  52.653  1.00  0.00     0.159 HD
HETATM   19  O   UNL     1       5.784  25.399  51.659  1.00  0.00    -0.266 OA
ENDBRANCH   9  15
ENDBRANCH   2   5
BRANCH   1  20
HETATM   20  C   UNL     1       7.082  30.180  58.160  1.00  0.00     0.112 C 
BRANCH  20  21
HETATM   21  C   UNL     1       8.328  30.938  58.659  1.00  0.00     0.027 C 
BRANCH  21  22
HETATM   22  C   UNL     1       9.639  30.157  58.402  1.00  0.00     0.005 C 
HETATM   23  C   UNL     1      10.686  30.857  57.546  1.00  0.00     0.006 C 
ENDBRANCH  21  22
BRANCH  21  24
HETATM   24  C   UNL     1       8.236  31.437  60.091  1.00  0.00    -0.053 A 
HETATM   25  C   UNL     1       9.108  31.005  61.097  1.00  0.00     0.010 A 
HETATM   26  C   UNL     1       8.959  31.459  62.410  1.00  0.00     0.037 A 
HETATM   27  C   UNL     1       7.932  32.339  62.749  1.00  0.00     0.068 A 
HETATM   28  C   UNL     1       7.075  32.799  61.752  1.00  0.00     0.037 A 
HETATM   29  C   UNL     1       7.229  32.355  60.435  1.00  0.00     0.010 A 
BRANCH  27  30
HETATM   30  O   UNL     1       7.880  32.690  64.070  1.00  0.00    -0.356 OA
HETATM   31  C   UNL     1       7.036  33.789  64.395  1.00  0.00     0.210 C 
ENDBRANCH  27  30
ENDBRANCH  21  24
ENDBRANCH  20  21
ENDBRANCH   1  20
TORSDOF 7
ENDMDL
MODEL 5
REMARK VINA RESULT:      -8.3      3.168      6.402
REMARK  7 active torsions:
REMARK  status: ('A' for Active; 'I' for Inactive)
REMARK    1  A    between atoms: C_2  and  C_3 
REMARK    2  A    between atoms: C_3  and  C_4 
REMARK    3  A    between atoms: C_3  and  C_12 
REMARK    4  A    between atoms: C_7  and  O_8 
REMARK    5  A    between atoms: C_12  and  C_13 
REMARK       I    between atoms: C_13  and  N_14 
REMARK    6  A    between atoms: N_14  and  C_15 
REMARK    7  A    between atoms: C_22  and  C_23 
REMARK       I    between atoms: C_23  and  N_24 
ROOT
HETATM    1  C   UNL     1       7.766  31.752  59.426  1.00  0.00     0.222 C 
HETATM    2  N   UNL     1       6.930  31.429  60.476  1.00  0.00    -0.327 N 
HETATM    3  O   UNL     1       8.623  32.632  59.429  1.00  0.00    -0.273 OA
HETATM    4  H   UNL     1       6.261  30.691  60.320  1.00  0.00     0.169 HD
ENDROOT
BRANCH   2   5
HETATM    5  C   UNL     1       6.831  32.072  61.730  1.00  0.00     0.035 A 
HETATM    6  C   UNL     1       5.673  32.711  62.195  1.00  0.00     0.046 A 
HETATM    7  C   UNL     1       5.678  33.327  63.466  1.00  0.00     0.030 A 
HETATM    8  C   UNL     1       6.837  33.277  64.231  1.00  0.00     0.063 A 
HETATM    9  C   UNL     1       4.743  34.057  64.261  1.00  0.00     0.156 A 
HETATM   10  N   UNL     1       6.537  33.938  65.389  1.00  0.00    -0.277 N 
HETATM   11  C   UNL     1       8.007  32.649  63.802  1.00  0.00     0.034 A 
HETATM   12  H   UNL     1       7.148  34.095  66.182  1.00  0.00     0.189 HD
HETATM   13  N   UNL     1       5.287  34.426  65.444  1.00  0.00    -0.168 NA
HETATM   14  C   UNL     1       7.980  32.054  62.535  1.00  0.00     0.032 A 
BRANCH   9  15
HETATM   15  C   UNL     1       3.359  34.412  63.920  1.00  0.00     0.270 C 
HETATM   16  N   UNL     1       3.157  35.754  63.736  1.00  0.00    -0.365 N 
HETATM   17  H   UNL     1       3.945  36.382  63.841  1.00  0.00     0.159 HD
HETATM   18  H   UNL     1       2.239  36.091  63.492  1.00  0.00     0.159 HD
HETATM   19  O   UNL     1       2.440  33.612  63.794  1.00  0.00    -0.266 OA
ENDBRANCH   9  15
ENDBRANCH   2   5
BRANCH   1  20
HETATM   20  C   UNL     1       7.631  30.851  58.200  1.00  0.00     0.112 C 
BRANCH  20  21
HETATM   21  C   UNL     1       8.420  29.527  58.225  1.00  0.00     0.027 C 
BRANCH  21  22
HETATM   22  C   UNL     1       9.950  29.751  58.232  1.00  0.00     0.005 C 
HETATM   23  C   UNL     1      10.540  30.431  57.004  1.00  0.00     0.006 C 
ENDBRANCH  21  22
BRANCH  21  24
HETATM   24  C   UNL     1       7.998  28.517  57.170  1.00  0.00    -0.053 A 
HETATM   25  C   UNL     1       8.109  27.136  57.363  1.00  0.00     0.010 A 
HETATM   26  C   UNL     1       7.748  26.245  56.349  1.00  0.00     0.037 A 
HETATM   27  C   UNL     1       7.284  26.713  55.119  1.00  0.00     0.068 A 
HETATM   28  C   UNL     1       7.140  28.084  54.925  1.00  0.00     0.037 A 
HETATM   29  C   UNL     1       7.491  28.978  55.943  1.00  0.00     0.010 A 
BRANCH  27  30
HETATM   30  O   UNL     1       6.986  25.742  54.204  1.00  0.00    -0.356 OA
HETATM   31  C   UNL     1       7.439  24.429  54.512  1.00  0.00     0.210 C 
ENDBRANCH  27  30
ENDBRANCH  21  24
ENDBRANCH  20  21
ENDBRANCH   1  20
TORSDOF 7
ENDMDL
MODEL 6
REMARK VINA RESULT:      -8.3      2.734      9.293
REMARK  7 active torsions:
REMARK  status: ('A' for Active; 'I' for Inactive)
REMARK    1  A    between atoms: C_2  and  C_3 
REMARK    2  A    between atoms: C_3  and  C_4 
REMARK    3  A    between atoms: C_3  and  C_12 
REMARK    4  A    between atoms: C_7  and  O_8 
REMARK    5  A    between atoms: C_12  and  C_13 
REMARK       I    between atoms: C_13  and  N_14 
REMARK    6  A    between atoms: N_14  and  C_15 
REMARK    7  A    between atoms: C_22  and  C_23 
REMARK       I    between atoms: C_23  and  N_24 
ROOT
HETATM    1  C   UNL     1       7.467  27.859  55.317  1.00  0.00     0.222 C 
HETATM    2  N   UNL     1       7.080  26.584  55.677  1.00  0.00    -0.327 N 
HETATM    3  O   UNL     1       8.016  28.177  54.266  1.00  0.00    -0.273 OA
HETATM    4  H   UNL     1       6.654  26.472  56.585  1.00  0.00     0.169 HD
ENDROOT
BRANCH   2   5
HETATM    5  C   UNL     1       7.290  25.383  54.963  1.00  0.00     0.035 A 
HETATM    6  C   UNL     1       7.712  24.184  55.551  1.00  0.00     0.046 A 
HETATM    7  C   UNL     1       7.895  23.037  54.746  1.00  0.00     0.030 A 
HETATM    8  C   UNL     1       7.641  23.128  53.383  1.00  0.00     0.063 A 
HETATM    9  C   UNL     1       8.307  21.686  54.954  1.00  0.00     0.156 A 
HETATM   10  N   UNL     1       7.893  21.882  52.882  1.00  0.00    -0.277 N 
HETATM   11  C   UNL     1       7.218  24.305  52.762  1.00  0.00     0.034 A 
HETATM   12  H   UNL     1       7.809  21.579  51.919  1.00  0.00     0.189 HD
HETATM   13  N   UNL     1       8.299  20.986  53.796  1.00  0.00    -0.168 NA
HETATM   14  C   UNL     1       7.053  25.429  53.581  1.00  0.00     0.032 A 
BRANCH   9  15
HETATM   15  C   UNL     1       8.709  21.055  56.219  1.00  0.00     0.270 C 
HETATM   16  N   UNL     1       9.619  20.044  56.072  1.00  0.00    -0.365 N 
HETATM   17  H   UNL     1       9.942  19.813  55.140  1.00  0.00     0.159 HD
HETATM   18  H   UNL     1       9.959  19.557  56.886  1.00  0.00     0.159 HD
HETATM   19  O   UNL     1       8.297  21.378  57.326  1.00  0.00    -0.266 OA
ENDBRANCH   9  15
ENDBRANCH   2   5
BRANCH   1  20
HETATM   20  C   UNL     1       7.083  28.950  56.315  1.00  0.00     0.112 C 
BRANCH  20  21
HETATM   21  C   UNL     1       8.242  29.734  56.961  1.00  0.00     0.027 C 
BRANCH  21  22
HETATM   22  C   UNL     1       9.515  28.872  57.135  1.00  0.00     0.005 C 
HETATM   23  C   UNL     1      10.829  29.514  56.710  1.00  0.00     0.006 C 
ENDBRANCH  21  22
BRANCH  21  24
HETATM   24  C   UNL     1       7.875  30.471  58.239  1.00  0.00    -0.053 A 
HETATM   25  C   UNL     1       8.590  30.312  59.431  1.00  0.00     0.010 A 
HETATM   26  C   UNL     1       8.191  30.978  60.593  1.00  0.00     0.037 A 
HETATM   27  C   UNL     1       7.065  31.802  60.594  1.00  0.00     0.068 A 
HETATM   28  C   UNL     1       6.363  31.992  59.406  1.00  0.00     0.037 A 
HETATM   29  C   UNL     1       6.767  31.335  58.239  1.00  0.00     0.010 A 
BRANCH  27  30
HETATM   30  O   UNL     1       6.767  32.377  61.798  1.00  0.00    -0.356 OA
HETATM   31  C   UNL     1       6.059  33.610  61.746  1.00  0.00     0.210 C 
ENDBRANCH  27  30
ENDBRANCH  21  24
ENDBRANCH  20  21
ENDBRANCH   1  20
TORSDOF 7
ENDMDL
MODEL 7
REMARK VINA RESULT:      -8.3      5.582      9.073
REMARK  7 active torsions:
REMARK  status: ('A' for Active; 'I' for Inactive)
REMARK    1  A    between atoms: C_2  and  C_3 
REMARK    2  A    between atoms: C_3  and  C_4 
REMARK    3  A    between atoms: C_3  and  C_12 
REMARK    4  A    between atoms: C_7  and  O_8 
REMARK    5  A    between atoms: C_12  and  C_13 
REMARK       I    between atoms: C_13  and  N_14 
REMARK    6  A    between atoms: N_14  and  C_15 
REMARK    7  A    between atoms: C_22  and  C_23 
REMARK       I    between atoms: C_23  and  N_24 
ROOT
HETATM    1  C   UNL     1       5.334  26.549  51.227  1.00  0.00     0.222 C 
HETATM    2  N   UNL     1       5.416  26.688  49.856  1.00  0.00    -0.327 N 
HETATM    3  O   UNL     1       4.625  27.215  51.978  1.00  0.00    -0.273 OA
HETATM    4  H   UNL     1       6.058  26.080  49.370  1.00  0.00     0.169 HD
ENDROOT
BRANCH   2   5
HETATM    5  C   UNL     1       4.772  27.648  49.044  1.00  0.00     0.035 A 
HETATM    6  C   UNL     1       3.513  27.463  48.458  1.00  0.00     0.046 A 
HETATM    7  C   UNL     1       2.956  28.487  47.660  1.00  0.00     0.030 A 
HETATM    8  C   UNL     1       3.674  29.663  47.482  1.00  0.00     0.063 A 
HETATM    9  C   UNL     1       1.754  28.673  46.913  1.00  0.00     0.156 A 
HETATM   10  N   UNL     1       2.891  30.451  46.686  1.00  0.00    -0.277 N 
HETATM   11  C   UNL     1       4.930  29.884  48.050  1.00  0.00     0.034 A 
HETATM   12  H   UNL     1       3.097  31.385  46.353  1.00  0.00     0.189 HD
HETATM   13  N   UNL     1       1.728  29.889  46.319  1.00  0.00    -0.168 NA
HETATM   14  C   UNL     1       5.463  28.850  48.830  1.00  0.00     0.032 A 
BRANCH   9  15
HETATM   15  C   UNL     1       0.643  27.726  46.749  1.00  0.00     0.270 C 
HETATM   16  N   UNL     1       0.128  27.685  45.481  1.00  0.00    -0.365 N 
HETATM   17  H   UNL     1       0.534  28.284  44.773  1.00  0.00     0.159 HD
HETATM   18  H   UNL     1      -0.633  27.058  45.272  1.00  0.00     0.159 HD
HETATM   19  O   UNL     1       0.192  27.012  47.637  1.00  0.00    -0.266 OA
ENDBRANCH   9  15
ENDBRANCH   2   5
BRANCH   1  20
HETATM   20  C   UNL     1       6.156  25.399  51.805  1.00  0.00     0.112 C 
BRANCH  20  21
HETATM   21  C   UNL     1       6.674  25.576  53.245  1.00  0.00     0.027 C 
BRANCH  21  22
HETATM   22  C   UNL     1       7.580  26.821  53.400  1.00  0.00     0.005 C 
HETATM   23  C   UNL     1       7.305  27.711  54.605  1.00  0.00     0.006 C 
ENDBRANCH  21  22
BRANCH  21  24
HETATM   24  C   UNL     1       7.308  24.334  53.849  1.00  0.00    -0.053 A 
HETATM   25  C   UNL     1       7.192  24.013  55.206  1.00  0.00     0.010 A 
HETATM   26  C   UNL     1       7.827  22.882  55.726  1.00  0.00     0.037 A 
HETATM   27  C   UNL     1       8.600  22.058  54.908  1.00  0.00     0.068 A 
HETATM   28  C   UNL     1       8.699  22.349  53.550  1.00  0.00     0.037 A 
HETATM   29  C   UNL     1       8.055  23.475  53.025  1.00  0.00     0.010 A 
BRANCH  27  30
HETATM   30  O   UNL     1       9.187  20.997  55.541  1.00  0.00    -0.356 OA
HETATM   31  C   UNL     1       8.353  20.253  56.422  1.00  0.00     0.210 C 
ENDBRANCH  27  30
ENDBRANCH  21  24
ENDBRANCH  20  21
ENDBRANCH   1  20
TORSDOF 7
ENDMDL
MODEL 8
REMARK VINA RESULT:      -8.3      3.248      6.153
REMARK  7 active torsions:
REMARK  status: ('A' for Active; 'I' for Inactive)
REMARK    1  A    between atoms: C_2  and  C_3 
REMARK    2  A    between atoms: C_3  and  C_4 
REMARK    3  A    between atoms: C_3  and  C_12 
REMARK    4  A    between atoms: C_7  and  O_8 
REMARK    5  A    between atoms: C_12  and  C_13 
REMARK       I    between atoms: C_13  and  N_14 
REMARK    6  A    between atoms: N_14  and  C_15 
REMARK    7  A    between atoms: C_22  and  C_23 
REMARK       I    between atoms: C_23  and  N_24 
ROOT
HETATM    1  C   UNL     1       7.981  31.248  59.812  1.00  0.00     0.222 C 
HETATM    2  N   UNL     1       7.490  30.957  61.069  1.00  0.00    -0.327 N 
HETATM    3  O   UNL     1       8.239  32.369  59.380  1.00  0.00    -0.273 OA
HETATM    4  H   UNL     1       7.308  29.987  61.278  1.00  0.00     0.169 HD
ENDROOT
BRANCH   2   5
HETATM    5  C   UNL     1       7.121  31.867  62.085  1.00  0.00     0.035 A 
HETATM    6  C   UNL     1       5.841  32.421  62.214  1.00  0.00     0.046 A 
HETATM    7  C   UNL     1       5.573  33.325  63.266  1.00  0.00     0.030 A 
HETATM    8  C   UNL     1       6.593  33.636  64.157  1.00  0.00     0.063 A 
HETATM    9  C   UNL     1       4.449  34.082  63.714  1.00  0.00     0.156 A 
HETATM   10  N   UNL     1       6.040  34.511  65.051  1.00  0.00    -0.277 N 
HETATM   11  C   UNL     1       7.879  33.103  64.061  1.00  0.00     0.034 A 
HETATM   12  H   UNL     1       6.495  34.947  65.844  1.00  0.00     0.189 HD
HETATM   13  N   UNL     1       4.752  34.807  64.816  1.00  0.00    -0.168 NA
HETATM   14  C   UNL     1       8.120  32.217  63.005  1.00  0.00     0.032 A 
BRANCH   9  15
HETATM   15  C   UNL     1       3.106  34.134  63.119  1.00  0.00     0.270 C 
HETATM   16  N   UNL     1       2.089  34.066  64.032  1.00  0.00    -0.365 N 
HETATM   17  H   UNL     1       2.323  33.992  65.015  1.00  0.00     0.159 HD
HETATM   18  H   UNL     1       1.133  34.102  63.717  1.00  0.00     0.159 HD
HETATM   19  O   UNL     1       2.873  34.235  61.921  1.00  0.00    -0.266 OA
ENDBRANCH   9  15
ENDBRANCH   2   5
BRANCH   1  20
HETATM   20  C   UNL     1       8.289  30.028  58.946  1.00  0.00     0.112 C 
BRANCH  20  21
HETATM   21  C   UNL     1       7.311  29.736  57.792  1.00  0.00     0.027 C 
BRANCH  21  22
HETATM   22  C   UNL     1       5.939  30.424  57.990  1.00  0.00     0.005 C 
HETATM   23  C   UNL     1       5.527  31.429  56.922  1.00  0.00     0.006 C 
ENDBRANCH  21  22
BRANCH  21  24
HETATM   24  C   UNL     1       7.164  28.264  57.442  1.00  0.00    -0.053 A 
HETATM   25  C   UNL     1       8.258  27.395  57.371  1.00  0.00     0.010 A 
HETATM   26  C   UNL     1       8.081  26.058  57.004  1.00  0.00     0.037 A 
HETATM   27  C   UNL     1       6.814  25.566  56.688  1.00  0.00     0.068 A 
HETATM   28  C   UNL     1       5.714  26.414  56.784  1.00  0.00     0.037 A 
HETATM   29  C   UNL     1       5.887  27.750  57.161  1.00  0.00     0.010 A 
BRANCH  27  30
HETATM   30  O   UNL     1       6.777  24.249  56.323  1.00  0.00    -0.356 OA
HETATM   31  C   UNL     1       7.979  23.511  56.514  1.00  0.00     0.210 C 
ENDBRANCH  27  30
ENDBRANCH  21  24
ENDBRANCH  20  21
ENDBRANCH   1  20
TORSDOF 7
ENDMDL
MODEL 9
REMARK VINA RESULT:      -8.2      5.622      9.042
REMARK  7 active torsions:
REMARK  status: ('A' for Active; 'I' for Inactive)
REMARK    1  A    between atoms: C_2  and  C_3 
REMARK    2  A    between atoms: C_3  and  C_4 
REMARK    3  A    between atoms: C_3  and  C_12 
REMARK    4  A    between atoms: C_7  and  O_8 
REMARK    5  A    between atoms: C_12  and  C_13 
REMARK       I    between atoms: C_13  and  N_14 
REMARK    6  A    between atoms: N_14  and  C_15 
REMARK    7  A    between atoms: C_22  and  C_23 
REMARK       I    between atoms: C_23  and  N_24 
ROOT
HETATM    1  C   UNL     1       5.376  25.825  51.215  1.00  0.00     0.222 C 
HETATM    2  N   UNL     1       5.302  26.652  50.112  1.00  0.00    -0.327 N 
HETATM    3  O   UNL     1       4.550  24.974  51.536  1.00  0.00    -0.273 OA
HETATM    4  H   UNL     1       6.049  27.318  49.986  1.00  0.00     0.169 HD
ENDROOT
BRANCH   2   5
HETATM    5  C   UNL     1       4.252  26.747  49.172  1.00  0.00     0.035 A 
HETATM    6  C   UNL     1       3.473  27.896  48.978  1.00  0.00     0.046 A 
HETATM    7  C   UNL     1       2.443  27.887  48.012  1.00  0.00     0.030 A 
HETATM    8  C   UNL     1       2.232  26.733  47.268  1.00  0.00     0.063 A 
HETATM    9  C   UNL     1       1.464  28.813  47.541  1.00  0.00     0.156 A 
HETATM   10  N   UNL     1       1.196  27.027  46.427  1.00  0.00    -0.277 N 
HETATM   11  C   UNL     1       2.987  25.571  47.432  1.00  0.00     0.034 A 
HETATM   12  H   UNL     1       0.774  26.417  45.736  1.00  0.00     0.189 HD
HETATM   13  N   UNL     1       0.703  28.269  46.562  1.00  0.00    -0.168 NA
HETATM   14  C   UNL     1       3.997  25.602  48.402  1.00  0.00     0.032 A 
BRANCH   9  15
HETATM   15  C   UNL     1       1.235  30.190  48.001  1.00  0.00     0.270 C 
HETATM   16  N   UNL     1       0.987  30.295  49.343  1.00  0.00    -0.365 N 
HETATM   17  H   UNL     1       0.981  29.451  49.902  1.00  0.00     0.159 HD
HETATM   18  H   UNL     1       0.826  31.202  49.750  1.00  0.00     0.159 HD
HETATM   19  O   UNL     1       1.263  31.183  47.284  1.00  0.00    -0.266 OA
ENDBRANCH   9  15
ENDBRANCH   2   5
BRANCH   1  20
HETATM   20  C   UNL     1       6.658  25.964  52.034  1.00  0.00     0.112 C 
BRANCH  20  21
HETATM   21  C   UNL     1       6.577  25.555  53.518  1.00  0.00     0.027 C 
BRANCH  21  22
HETATM   22  C   UNL     1       7.144  26.641  54.463  1.00  0.00     0.005 C 
HETATM   23  C   UNL     1       7.729  27.879  53.795  1.00  0.00     0.006 C 
ENDBRANCH  21  22
BRANCH  21  24
HETATM   24  C   UNL     1       7.143  24.179  53.828  1.00  0.00    -0.053 A 
HETATM   25  C   UNL     1       7.610  23.315  52.831  1.00  0.00     0.010 A 
HETATM   26  C   UNL     1       8.084  22.042  53.160  1.00  0.00     0.037 A 
HETATM   27  C   UNL     1       8.089  21.600  54.483  1.00  0.00     0.068 A 
HETATM   28  C   UNL     1       7.654  22.462  55.487  1.00  0.00     0.037 A 
HETATM   29  C   UNL     1       7.190  23.741  55.162  1.00  0.00     0.010 A 
BRANCH  27  30
HETATM   30  O   UNL     1       8.555  20.329  54.669  1.00  0.00    -0.356 OA
HETATM   31  C   UNL     1       9.087  20.038  55.957  1.00  0.00     0.210 C 
ENDBRANCH  27  30
ENDBRANCH  21  24
ENDBRANCH  20  21
ENDBRANCH   1  20
TORSDOF 7
ENDMDL
MODEL 10
REMARK VINA RESULT:      -8.1      2.493      4.433
REMARK  7 active torsions:
REMARK  status: ('A' for Active; 'I' for Inactive)
REMARK    1  A    between atoms: C_2  and  C_3 
REMARK    2  A    between atoms: C_3  and  C_4 
REMARK    3  A    between atoms: C_3  and  C_12 
REMARK    4  A    between atoms: C_7  and  O_8 
REMARK    5  A    between atoms: C_12  and  C_13 
REMARK       I    between atoms: C_13  and  N_14 
REMARK    6  A    between atoms: N_14  and  C_15 
REMARK    7  A    between atoms: C_22  and  C_23 
REMARK       I    between atoms: C_23  and  N_24 
ROOT
HETATM    1  C   UNL     1       7.505  25.423  56.809  1.00  0.00     0.222 C 
HETATM    2  N   UNL     1       8.090  26.638  56.515  1.00  0.00    -0.327 N 
HETATM    3  O   UNL     1       6.502  25.251  57.496  1.00  0.00    -0.273 OA
HETATM    4  H   UNL     1       8.925  26.622  55.950  1.00  0.00     0.169 HD
ENDROOT
BRANCH   2   5
HETATM    5  C   UNL     1       7.713  27.915  56.989  1.00  0.00     0.035 A 
HETATM    6  C   UNL     1       6.478  28.519  56.719  1.00  0.00     0.046 A 
HETATM    7  C   UNL     1       6.199  29.802  57.239  1.00  0.00     0.030 A 
HETATM    8  C   UNL     1       7.161  30.433  58.017  1.00  0.00     0.063 A 
HETATM    9  C   UNL     1       5.108  30.722  57.185  1.00  0.00     0.156 A 
HETATM   10  N   UNL     1       6.611  31.631  58.376  1.00  0.00    -0.277 N 
HETATM   11  C   UNL     1       8.401  29.863  58.309  1.00  0.00     0.034 A 
HETATM   12  H   UNL     1       7.031  32.353  58.950  1.00  0.00     0.189 HD
HETATM   13  N   UNL     1       5.376  31.844  57.892  1.00  0.00    -0.168 NA
HETATM   14  C   UNL     1       8.656  28.594  57.774  1.00  0.00     0.032 A 
BRANCH   9  15
HETATM   15  C   UNL     1       3.831  30.559  56.477  1.00  0.00     0.270 C 
HETATM   16  N   UNL     1       3.950  30.521  55.114  1.00  0.00    -0.365 N 
HETATM   17  H   UNL     1       4.873  30.602  54.705  1.00  0.00     0.159 HD
HETATM   18  H   UNL     1       3.127  30.404  54.545  1.00  0.00     0.159 HD
HETATM   19  O   UNL     1       2.737  30.455  57.018  1.00  0.00    -0.266 OA
ENDBRANCH   9  15
ENDBRANCH   2   5
BRANCH   1  20
HETATM   20  C   UNL     1       8.153  24.219  56.127  1.00  0.00     0.112 C 
BRANCH  20  21
HETATM   21  C   UNL     1       7.266  23.413  55.158  1.00  0.00     0.027 C 
BRANCH  21  22
HETATM   22  C   UNL     1       7.914  22.072  54.739  1.00  0.00     0.005 C 
HETATM   23  C   UNL     1       8.660  21.312  55.828  1.00  0.00     0.006 C 
ENDBRANCH  21  22
BRANCH  21  24
HETATM   24  C   UNL     1       6.760  24.199  53.959  1.00  0.00    -0.053 A 
HETATM   25  C   UNL     1       5.426  24.606  53.834  1.00  0.00     0.010 A 
HETATM   26  C   UNL     1       4.996  25.290  52.695  1.00  0.00     0.037 A 
HETATM   27  C   UNL     1       5.881  25.570  51.653  1.00  0.00     0.068 A 
HETATM   28  C   UNL     1       7.217  25.198  51.779  1.00  0.00     0.037 A 
HETATM   29  C   UNL     1       7.653  24.522  52.923  1.00  0.00     0.010 A 
BRANCH  27  30
HETATM   30  O   UNL     1       5.332  26.225  50.585  1.00  0.00    -0.356 OA
HETATM   31  C   UNL     1       5.373  27.646  50.632  1.00  0.00     0.210 C 
ENDBRANCH  27  30
ENDBRANCH  21  24
ENDBRANCH  20  21
ENDBRANCH   1  20
TORSDOF 7
ENDMDL
