MODEL 1
REMARK VINA RESULT:      -9.9      0.000      0.000
REMARK  11 active torsions:
REMARK  status: ('A' for Active; 'I' for Inactive)
REMARK    1  A    between atoms: C_2  and  O_3 
REMARK    2  A    between atoms: O_3  and  C_4 
REMARK    3  A    between atoms: C_7  and  N_8 
REMARK       I    between atoms: N_8  and  C_9 
REMARK    4  A    between atoms: C_9  and  C_10 
REMARK    5  A    between atoms: C_10  and  C_11 
REMARK    6  A    between atoms: N_12  and  C_13 
REMARK    7  A    between atoms: C_13  and  C_14 
REMARK    8  A    between atoms: C_14  and  C_15 
REMARK    9  A    between atoms: C_15  and  N_16 
REMARK   10  A    between atoms: C_20  and  C_21 
REMARK       I    between atoms: C_21  and  N_22 
REMARK   11  A    between atoms: N_28  and  C_29 
ROOT
HETATM    1  C   UNL     1       6.246  27.351  55.805  1.00  0.00     0.188 C 
HETATM    2  N   UNL     1       5.463  27.132  54.590  1.00  0.00    -0.344 N 
HETATM    3  C   UNL     1       5.581  25.777  54.173  1.00  0.00     0.184 C 
HETATM    4  S   UNL     1       4.559  25.110  53.028  1.00  0.00    -0.040 SA
HETATM    5  N   UNL     1       6.648  25.211  54.872  1.00  0.00    -0.257 N 
HETATM    6  C   UNL     1       7.211  26.182  55.685  1.00  0.00     0.254 C 
HETATM    7  O   UNL     1       8.319  26.180  56.206  1.00  0.00    -0.270 OA
ENDROOT
BRANCH   2   8
HETATM    8  C   UNL     1       4.423  28.089  54.184  1.00  0.00     0.128 C 
BRANCH   8   9
HETATM    9  C   UNL     1       4.751  28.853  52.895  1.00  0.00     0.048 C 
BRANCH   9  10
HETATM   10  C   UNL     1       3.587  29.119  51.942  1.00  0.00     0.236 C 
BRANCH  10  11
HETATM   11  N   UNL     1       3.427  28.081  50.849  1.00  0.00    -0.071 N 
HETATM   12  H   UNL     1       2.845  27.309  51.212  1.00  0.00     0.279 HD
HETATM   13  C   UNL     1       2.763  28.651  49.615  1.00  0.00     0.235 C 
HETATM   14  C   UNL     1       2.635  27.583  48.535  1.00  0.00     0.042 C 
HETATM   15  C   UNL     1       3.989  26.978  48.164  1.00  0.00     0.081 C 
HETATM   16  C   UNL     1       4.686  26.447  49.418  1.00  0.00     0.042 C 
HETATM   17  C   UNL     1       4.787  27.475  50.538  1.00  0.00     0.235 C 
BRANCH  15  18
HETATM   18  C   UNL     1       4.844  28.012  47.444  1.00  0.00     0.219 C 
HETATM   19  N   UNL     1       6.096  27.606  47.106  1.00  0.00    -0.370 N 
HETATM   20  H   UNL     1       6.566  26.844  47.580  1.00  0.00     0.159 HD
HETATM   21  H   UNL     1       6.701  28.305  46.685  1.00  0.00     0.159 HD
HETATM   22  O   UNL     1       4.411  29.101  47.089  1.00  0.00    -0.273 OA
ENDBRANCH  15  18
ENDBRANCH  10  11
ENDBRANCH   9  10
ENDBRANCH   8   9
ENDBRANCH   2   8
BRANCH   1  23
HETATM   23  C   UNL     1       6.975  28.681  55.911  1.00  0.00     0.138 C 
BRANCH  23  24
HETATM   24  C   UNL     1       6.615  29.366  57.218  1.00  0.00     0.224 C 
HETATM   25  N   UNL     1       7.679  30.043  57.776  1.00  0.00    -0.327 N 
HETATM   26  H   UNL     1       8.583  29.928  57.338  1.00  0.00     0.169 HD
HETATM   27  O   UNL     1       5.474  29.275  57.654  1.00  0.00    -0.273 OA
BRANCH  25  28
HETATM   28  C   UNL     1       7.714  30.749  58.994  1.00  0.00     0.034 A 
HETATM   29  C   UNL     1       6.887  31.826  59.308  1.00  0.00     0.032 A 
HETATM   30  C   UNL     1       6.983  32.455  60.559  1.00  0.00     0.039 A 
HETATM   31  C   UNL     1       7.911  32.015  61.501  1.00  0.00     0.068 A 
HETATM   32  C   UNL     1       8.743  30.943  61.183  1.00  0.00     0.039 A 
HETATM   33  C   UNL     1       8.647  30.313  59.942  1.00  0.00     0.032 A 
BRANCH  31  34
HETATM   34  O   UNL     1       8.111  32.530  62.749  1.00  0.00    -0.352 OA
BRANCH  34  35
HETATM   35  C   UNL     1       7.069  33.329  63.303  1.00  0.00     0.171 C 
HETATM   36  C   UNL     1       7.347  33.481  64.788  1.00  0.00     0.034 C 
ENDBRANCH  34  35
ENDBRANCH  31  34
ENDBRANCH  25  28
ENDBRANCH  23  24
ENDBRANCH   1  23
BRANCH   5  37
HETATM   37  C   UNL     1       7.230  23.896  54.772  1.00  0.00     0.045 A 
HETATM   38  C   UNL     1       7.843  23.489  53.567  1.00  0.00     0.032 A 
HETATM   39  C   UNL     1       8.414  22.218  53.409  1.00  0.00     0.026 A 
HETATM   40  C   UNL     1       8.401  21.322  54.465  1.00  0.00     0.034 A 
HETATM   41 CL   UNL     1       9.099  19.764  54.284  1.00  0.00    -0.084 Cl
HETATM   42  C   UNL     1       7.816  21.690  55.669  1.00  0.00     0.026 A 
HETATM   43  C   UNL     1       7.232  22.959  55.815  1.00  0.00     0.032 A 
ENDBRANCH   5  37
TORSDOF 11
ENDMDL
MODEL 2
REMARK VINA RESULT:      -9.7      4.091      7.293
REMARK  11 active torsions:
REMARK  status: ('A' for Active; 'I' for Inactive)
REMARK    1  A    between atoms: C_2  and  O_3 
REMARK    2  A    between atoms: O_3  and  C_4 
REMARK    3  A    between atoms: C_7  and  N_8 
REMARK       I    between atoms: N_8  and  C_9 
REMARK    4  A    between atoms: C_9  and  C_10 
REMARK    5  A    between atoms: C_10  and  C_11 
REMARK    6  A    between atoms: N_12  and  C_13 
REMARK    7  A    between atoms: C_13  and  C_14 
REMARK    8  A    between atoms: C_14  and  C_15 
REMARK    9  A    between atoms: C_15  and  N_16 
REMARK   10  A    between atoms: C_20  and  C_21 
REMARK       I    between atoms: C_21  and  N_22 
REMARK   11  A    between atoms: N_28  and  C_29 
ROOT
HETATM    1  C   UNL     1       7.299  29.408  58.180  1.00  0.00     0.188 C 
HETATM    2  N   UNL     1       6.053  29.718  57.482  1.00  0.00    -0.344 N 
HETATM    3  C   UNL     1       5.774  28.714  56.513  1.00  0.00     0.184 C 
HETATM    4  S   UNL     1       4.276  28.580  55.781  1.00  0.00    -0.040 SA
HETATM    5  N   UNL     1       6.937  27.961  56.339  1.00  0.00    -0.257 N 
HETATM    6  C   UNL     1       7.931  28.488  57.148  1.00  0.00     0.254 C 
HETATM    7  O   UNL     1       9.141  28.319  57.062  1.00  0.00    -0.270 OA
ENDROOT
BRANCH   2   8
HETATM    8  C   UNL     1       5.098  30.687  58.043  1.00  0.00     0.128 C 
BRANCH   8   9
HETATM    9  C   UNL     1       5.051  32.021  57.289  1.00  0.00     0.048 C 
BRANCH   9  10
HETATM   10  C   UNL     1       3.698  32.730  57.235  1.00  0.00     0.236 C 
BRANCH  10  11
HETATM   11  N   UNL     1       3.583  33.923  58.163  1.00  0.00    -0.071 N 
HETATM   12  H   UNL     1       4.499  34.399  58.200  1.00  0.00     0.279 HD
HETATM   13  C   UNL     1       2.541  34.912  57.693  1.00  0.00     0.235 C 
HETATM   14  C   UNL     1       2.444  36.087  58.659  1.00  0.00     0.042 C 
HETATM   15  C   UNL     1       2.125  35.634  60.083  1.00  0.00     0.081 C 
HETATM   16  C   UNL     1       3.149  34.594  60.543  1.00  0.00     0.042 C 
HETATM   17  C   UNL     1       3.308  33.428  59.575  1.00  0.00     0.235 C 
BRANCH  15  18
HETATM   18  C   UNL     1       0.705  35.088  60.152  1.00  0.00     0.219 C 
HETATM   19  N   UNL     1       0.396  34.395  61.281  1.00  0.00    -0.370 N 
HETATM   20  H   UNL     1       1.104  33.962  61.862  1.00  0.00     0.159 HD
HETATM   21  H   UNL     1      -0.525  33.970  61.313  1.00  0.00     0.159 HD
HETATM   22  O   UNL     1      -0.146  35.341  59.309  1.00  0.00    -0.273 OA
ENDBRANCH  15  18
ENDBRANCH  10  11
ENDBRANCH   9  10
ENDBRANCH   8   9
ENDBRANCH   2   8
BRANCH   1  23
HETATM   23  C   UNL     1       8.199  30.586  58.517  1.00  0.00     0.138 C 
BRANCH  23  24
HETATM   24  C   UNL     1       8.245  30.788  60.022  1.00  0.00     0.224 C 
HETATM   25  N   UNL     1       7.346  31.735  60.461  1.00  0.00    -0.327 N 
HETATM   26  H   UNL     1       6.845  32.261  59.757  1.00  0.00     0.169 HD
HETATM   27  O   UNL     1       9.030  30.131  60.697  1.00  0.00    -0.273 OA
BRANCH  25  28
HETATM   28  C   UNL     1       7.149  32.200  61.776  1.00  0.00     0.034 A 
HETATM   29  C   UNL     1       8.168  32.398  62.706  1.00  0.00     0.032 A 
HETATM   30  C   UNL     1       7.875  32.885  63.989  1.00  0.00     0.039 A 
HETATM   31  C   UNL     1       6.560  33.171  64.352  1.00  0.00     0.068 A 
HETATM   32  C   UNL     1       5.540  32.966  63.424  1.00  0.00     0.039 A 
HETATM   33  C   UNL     1       5.829  32.487  62.146  1.00  0.00     0.032 A 
BRANCH  31  34
HETATM   34  O   UNL     1       6.134  33.648  65.559  1.00  0.00    -0.352 OA
BRANCH  34  35
HETATM   35  C   UNL     1       4.729  33.790  65.748  1.00  0.00     0.171 C 
HETATM   36  C   UNL     1       4.510  34.929  66.727  1.00  0.00     0.034 C 
ENDBRANCH  34  35
ENDBRANCH  31  34
ENDBRANCH  25  28
ENDBRANCH  23  24
ENDBRANCH   1  23
BRANCH   5  37
HETATM   37  C   UNL     1       7.212  26.878  55.430  1.00  0.00     0.045 A 
HETATM   38  C   UNL     1       7.269  25.553  55.913  1.00  0.00     0.032 A 
HETATM   39  C   UNL     1       7.544  24.460  55.078  1.00  0.00     0.026 A 
HETATM   40  C   UNL     1       7.756  24.667  53.724  1.00  0.00     0.034 A 
HETATM   41 CL   UNL     1       8.092  23.338  52.690  1.00  0.00    -0.084 Cl
HETATM   42  C   UNL     1       7.699  25.955  53.210  1.00  0.00     0.026 A 
HETATM   43  C   UNL     1       7.438  27.046  54.056  1.00  0.00     0.032 A 
ENDBRANCH   5  37
TORSDOF 11
ENDMDL
MODEL 3
REMARK VINA RESULT:      -9.4      2.123      9.894
REMARK  11 active torsions:
REMARK  status: ('A' for Active; 'I' for Inactive)
REMARK    1  A    between atoms: C_2  and  O_3 
REMARK    2  A    between atoms: O_3  and  C_4 
REMARK    3  A    between atoms: C_7  and  N_8 
REMARK       I    between atoms: N_8  and  C_9 
REMARK    4  A    between atoms: C_9  and  C_10 
REMARK    5  A    between atoms: C_10  and  C_11 
REMARK    6  A    between atoms: N_12  and  C_13 
REMARK    7  A    between atoms: C_13  and  C_14 
REMARK    8  A    between atoms: C_14  and  C_15 
REMARK    9  A    between atoms: C_15  and  N_16 
REMARK   10  A    between atoms: C_20  and  C_21 
REMARK       I    between atoms: C_21  and  N_22 
REMARK   11  A    between atoms: N_28  and  C_29 
ROOT
HETATM    1  C   UNL     1       5.590  27.697  54.678  1.00  0.00     0.188 C 
HETATM    2  N   UNL     1       6.121  27.505  56.026  1.00  0.00    -0.344 N 
HETATM    3  C   UNL     1       6.925  26.333  56.070  1.00  0.00     0.184 C 
HETATM    4  S   UNL     1       7.947  26.005  57.354  1.00  0.00    -0.040 SA
HETATM    5  N   UNL     1       6.669  25.601  54.909  1.00  0.00    -0.257 N 
HETATM    6  C   UNL     1       5.711  26.271  54.165  1.00  0.00     0.254 C 
HETATM    7  O   UNL     1       5.008  25.827  53.266  1.00  0.00    -0.270 OA
ENDROOT
BRANCH   2   8
HETATM    8  C   UNL     1       6.126  28.610  56.997  1.00  0.00     0.128 C 
BRANCH   8   9
HETATM    9  C   UNL     1       7.140  29.715  56.675  1.00  0.00     0.048 C 
BRANCH   9  10
HETATM   10  C   UNL     1       8.367  29.803  57.582  1.00  0.00     0.236 C 
BRANCH  10  11
HETATM   11  N   UNL     1       8.383  31.015  58.491  1.00  0.00    -0.071 N 
HETATM   12  H   UNL     1       8.588  31.851  57.920  1.00  0.00     0.279 HD
HETATM   13  C   UNL     1       7.058  31.220  59.192  1.00  0.00     0.235 C 
HETATM   14  C   UNL     1       7.119  32.436  60.107  1.00  0.00     0.042 C 
HETATM   15  C   UNL     1       8.240  32.322  61.139  1.00  0.00     0.081 C 
HETATM   16  C   UNL     1       9.574  32.063  60.436  1.00  0.00     0.042 C 
HETATM   17  C   UNL     1       9.535  30.883  59.475  1.00  0.00     0.235 C 
BRANCH  15  18
HETATM   18  C   UNL     1       7.915  31.224  62.144  1.00  0.00     0.219 C 
HETATM   19  N   UNL     1       6.599  31.086  62.458  1.00  0.00    -0.370 N 
HETATM   20  H   UNL     1       5.932  31.839  62.340  1.00  0.00     0.159 HD
HETATM   21  H   UNL     1       6.374  30.403  63.175  1.00  0.00     0.159 HD
HETATM   22  O   UNL     1       8.755  30.438  62.564  1.00  0.00    -0.273 OA
ENDBRANCH  15  18
ENDBRANCH  10  11
ENDBRANCH   9  10
ENDBRANCH   8   9
ENDBRANCH   2   8
BRANCH   1  23
HETATM   23  C   UNL     1       4.165  28.217  54.579  1.00  0.00     0.138 C 
BRANCH  23  24
HETATM   24  C   UNL     1       3.987  28.997  53.288  1.00  0.00     0.224 C 
HETATM   25  N   UNL     1       3.540  28.212  52.247  1.00  0.00    -0.327 N 
HETATM   26  H   UNL     1       3.484  27.216  52.408  1.00  0.00     0.169 HD
HETATM   27  O   UNL     1       4.237  30.197  53.267  1.00  0.00    -0.273 OA
BRANCH  25  28
HETATM   28  C   UNL     1       3.308  28.594  50.911  1.00  0.00     0.034 A 
HETATM   29  C   UNL     1       4.228  28.445  49.874  1.00  0.00     0.032 A 
HETATM   30  C   UNL     1       3.897  28.837  48.568  1.00  0.00     0.039 A 
HETATM   31  C   UNL     1       2.646  29.387  48.292  1.00  0.00     0.068 A 
HETATM   32  C   UNL     1       1.730  29.542  49.330  1.00  0.00     0.039 A 
HETATM   33  C   UNL     1       2.054  29.149  50.628  1.00  0.00     0.032 A 
BRANCH  31  34
HETATM   34  O   UNL     1       2.194  29.809  47.075  1.00  0.00    -0.352 OA
BRANCH  34  35
HETATM   35  C   UNL     1       0.902  29.367  46.667  1.00  0.00     0.171 C 
HETATM   36  C   UNL     1       0.104  30.594  46.264  1.00  0.00     0.034 C 
ENDBRANCH  34  35
ENDBRANCH  31  34
ENDBRANCH  25  28
ENDBRANCH  23  24
ENDBRANCH   1  23
BRANCH   5  37
HETATM   37  C   UNL     1       7.165  24.312  54.496  1.00  0.00     0.045 A 
HETATM   38  C   UNL     1       7.648  24.133  53.182  1.00  0.00     0.032 A 
HETATM   39  C   UNL     1       8.131  22.900  52.721  1.00  0.00     0.026 A 
HETATM   40  C   UNL     1       8.159  21.811  53.577  1.00  0.00     0.034 A 
HETATM   41 CL   UNL     1       8.750  20.295  53.026  1.00  0.00    -0.084 Cl
HETATM   42  C   UNL     1       7.702  21.950  54.880  1.00  0.00     0.026 A 
HETATM   43  C   UNL     1       7.205  23.184  55.329  1.00  0.00     0.032 A 
ENDBRANCH   5  37
TORSDOF 11
ENDMDL
MODEL 4
REMARK VINA RESULT:      -9.0      3.592      8.294
REMARK  11 active torsions:
REMARK  status: ('A' for Active; 'I' for Inactive)
REMARK    1  A    between atoms: C_2  and  O_3 
REMARK    2  A    between atoms: O_3  and  C_4 
REMARK    3  A    between atoms: C_7  and  N_8 
REMARK       I    between atoms: N_8  and  C_9 
REMARK    4  A    between atoms: C_9  and  C_10 
REMARK    5  A    between atoms: C_10  and  C_11 
REMARK    6  A    between atoms: N_12  and  C_13 
REMARK    7  A    between atoms: C_13  and  C_14 
REMARK    8  A    between atoms: C_14  and  C_15 
REMARK    9  A    between atoms: C_15  and  N_16 
REMARK   10  A    between atoms: C_20  and  C_21 
REMARK       I    between atoms: C_21  and  N_22 
REMARK   11  A    between atoms: N_28  and  C_29 
ROOT
HETATM    1  C   UNL     1       5.213  30.522  55.896  1.00  0.00     0.188 C 
HETATM    2  N   UNL     1       4.437  31.753  56.027  1.00  0.00    -0.344 N 
HETATM    3  C   UNL     1       4.906  32.510  57.136  1.00  0.00     0.184 C 
HETATM    4  S   UNL     1       4.472  34.109  57.367  1.00  0.00    -0.040 SA
HETATM    5  N   UNL     1       5.720  31.674  57.903  1.00  0.00    -0.257 N 
HETATM    6  C   UNL     1       5.743  30.419  57.317  1.00  0.00     0.254 C 
HETATM    7  O   UNL     1       6.074  29.355  57.826  1.00  0.00    -0.270 OA
ENDROOT
BRANCH   2   8
HETATM    8  C   UNL     1       3.619  32.249  54.908  1.00  0.00     0.128 C 
BRANCH   8   9
HETATM    9  C   UNL     1       4.334  32.211  53.552  1.00  0.00     0.048 C 
BRANCH   9  10
HETATM   10  C   UNL     1       3.637  31.438  52.433  1.00  0.00     0.236 C 
BRANCH  10  11
HETATM   11  N   UNL     1       4.445  30.281  51.880  1.00  0.00    -0.071 N 
HETATM   12  H   UNL     1       5.285  30.156  52.468  1.00  0.00     0.279 HD
HETATM   13  C   UNL     1       3.660  28.988  51.875  1.00  0.00     0.235 C 
HETATM   14  C   UNL     1       4.499  27.855  51.298  1.00  0.00     0.042 C 
HETATM   15  C   UNL     1       4.993  28.168  49.886  1.00  0.00     0.081 C 
HETATM   16  C   UNL     1       5.744  29.501  49.878  1.00  0.00     0.042 C 
HETATM   17  C   UNL     1       4.952  30.648  50.494  1.00  0.00     0.235 C 
BRANCH  15  18
HETATM   18  C   UNL     1       3.821  28.180  48.913  1.00  0.00     0.219 C 
HETATM   19  N   UNL     1       2.916  27.178  49.072  1.00  0.00    -0.370 N 
HETATM   20  H   UNL     1       3.147  26.305  49.531  1.00  0.00     0.159 HD
HETATM   21  H   UNL     1       2.164  27.135  48.390  1.00  0.00     0.159 HD
HETATM   22  O   UNL     1       3.634  29.084  48.110  1.00  0.00    -0.273 OA
ENDBRANCH  15  18
ENDBRANCH  10  11
ENDBRANCH   9  10
ENDBRANCH   8   9
ENDBRANCH   2   8
BRANCH   1  23
HETATM   23  C   UNL     1       4.445  29.276  55.484  1.00  0.00     0.138 C 
BRANCH  23  24
HETATM   24  C   UNL     1       5.408  28.223  54.965  1.00  0.00     0.224 C 
HETATM   25  N   UNL     1       5.025  26.941  55.295  1.00  0.00    -0.327 N 
HETATM   26  H   UNL     1       4.236  26.839  55.919  1.00  0.00     0.169 HD
HETATM   27  O   UNL     1       6.396  28.568  54.326  1.00  0.00    -0.273 OA
BRANCH  25  28
HETATM   28  C   UNL     1       5.697  25.735  55.015  1.00  0.00     0.034 A 
HETATM   29  C   UNL     1       5.771  25.145  53.754  1.00  0.00     0.032 A 
HETATM   30  C   UNL     1       6.483  23.950  53.569  1.00  0.00     0.039 A 
HETATM   31  C   UNL     1       7.120  23.334  54.645  1.00  0.00     0.068 A 
HETATM   32  C   UNL     1       7.039  23.920  55.906  1.00  0.00     0.039 A 
HETATM   33  C   UNL     1       6.336  25.111  56.093  1.00  0.00     0.032 A 
BRANCH  31  34
HETATM   34  O   UNL     1       7.843  22.176  54.608  1.00  0.00    -0.352 OA
BRANCH  34  35
HETATM   35  C   UNL     1       8.589  21.907  53.425  1.00  0.00     0.171 C 
HETATM   36  C   UNL     1       8.150  20.550  52.904  1.00  0.00     0.034 C 
ENDBRANCH  34  35
ENDBRANCH  31  34
ENDBRANCH  25  28
ENDBRANCH  23  24
ENDBRANCH   1  23
BRANCH   5  37
HETATM   37  C   UNL     1       6.383  31.922  59.158  1.00  0.00     0.045 A 
HETATM   38  C   UNL     1       5.621  32.236  60.305  1.00  0.00     0.032 A 
HETATM   39  C   UNL     1       6.212  32.497  61.550  1.00  0.00     0.026 A 
HETATM   40  C   UNL     1       7.589  32.435  61.683  1.00  0.00     0.034 A 
HETATM   41 CL   UNL     1       8.325  32.752  63.201  1.00  0.00    -0.084 Cl
HETATM   42  C   UNL     1       8.371  32.121  60.580  1.00  0.00     0.026 A 
HETATM   43  C   UNL     1       7.773  31.875  59.333  1.00  0.00     0.032 A 
ENDBRANCH   5  37
TORSDOF 11
ENDMDL
MODEL 5
REMARK VINA RESULT:      -8.9      3.404      7.975
REMARK  11 active torsions:
REMARK  status: ('A' for Active; 'I' for Inactive)
REMARK    1  A    between atoms: C_2  and  O_3 
REMARK    2  A    between atoms: O_3  and  C_4 
REMARK    3  A    between atoms: C_7  and  N_8 
REMARK       I    between atoms: N_8  and  C_9 
REMARK    4  A    between atoms: C_9  and  C_10 
REMARK    5  A    between atoms: C_10  and  C_11 
REMARK    6  A    between atoms: N_12  and  C_13 
REMARK    7  A    between atoms: C_13  and  C_14 
REMARK    8  A    between atoms: C_14  and  C_15 
REMARK    9  A    between atoms: C_15  and  N_16 
REMARK   10  A    between atoms: C_20  and  C_21 
REMARK       I    between atoms: C_21  and  N_22 
REMARK   11  A    between atoms: N_28  and  C_29 
ROOT
HETATM    1  C   UNL     1       5.328  29.323  55.159  1.00  0.00     0.188 C 
HETATM    2  N   UNL     1       4.534  30.540  55.315  1.00  0.00    -0.344 N 
HETATM    3  C   UNL     1       5.125  31.386  56.294  1.00  0.00     0.184 C 
HETATM    4  S   UNL     1       4.670  32.986  56.476  1.00  0.00    -0.040 SA
HETATM    5  N   UNL     1       6.065  30.628  56.995  1.00  0.00    -0.257 N 
HETATM    6  C   UNL     1       6.051  29.335  56.496  1.00  0.00     0.254 C 
HETATM    7  O   UNL     1       6.486  28.319  57.024  1.00  0.00    -0.270 OA
ENDROOT
BRANCH   2   8
HETATM    8  C   UNL     1       3.554  30.934  54.291  1.00  0.00     0.128 C 
BRANCH   8   9
HETATM    9  C   UNL     1       4.106  30.910  52.860  1.00  0.00     0.048 C 
BRANCH   9  10
HETATM   10  C   UNL     1       3.104  30.610  51.745  1.00  0.00     0.236 C 
BRANCH  10  11
HETATM   11  N   UNL     1       3.740  30.205  50.430  1.00  0.00    -0.071 N 
HETATM   12  H   UNL     1       3.850  31.050  49.845  1.00  0.00     0.279 HD
HETATM   13  C   UNL     1       5.098  29.571  50.625  1.00  0.00     0.235 C 
HETATM   14  C   UNL     1       5.696  29.163  49.285  1.00  0.00     0.042 C 
HETATM   15  C   UNL     1       4.783  28.210  48.514  1.00  0.00     0.081 C 
HETATM   16  C   UNL     1       3.392  28.829  48.360  1.00  0.00     0.042 C 
HETATM   17  C   UNL     1       2.784  29.293  49.678  1.00  0.00     0.235 C 
BRANCH  15  18
HETATM   18  C   UNL     1       4.720  26.862  49.221  1.00  0.00     0.219 C 
HETATM   19  N   UNL     1       5.717  26.620  50.114  1.00  0.00    -0.370 N 
HETATM   20  H   UNL     1       6.610  27.098  50.073  1.00  0.00     0.159 HD
HETATM   21  H   UNL     1       5.726  25.700  50.544  1.00  0.00     0.159 HD
HETATM   22  O   UNL     1       3.784  26.085  49.088  1.00  0.00    -0.273 OA
ENDBRANCH  15  18
ENDBRANCH  10  11
ENDBRANCH   9  10
ENDBRANCH   8   9
ENDBRANCH   2   8
BRANCH   1  23
HETATM   23  C   UNL     1       4.555  28.032  54.943  1.00  0.00     0.138 C 
BRANCH  23  24
HETATM   24  C   UNL     1       5.429  27.020  54.224  1.00  0.00     0.224 C 
HETATM   25  N   UNL     1       5.906  26.035  55.063  1.00  0.00    -0.327 N 
HETATM   26  H   UNL     1       5.727  26.143  56.053  1.00  0.00     0.169 HD
HETATM   27  O   UNL     1       5.633  27.142  53.022  1.00  0.00    -0.273 OA
BRANCH  25  28
HETATM   28  C   UNL     1       6.770  24.970  54.746  1.00  0.00     0.034 A 
HETATM   29  C   UNL     1       7.871  24.589  55.512  1.00  0.00     0.032 A 
HETATM   30  C   UNL     1       8.664  23.498  55.125  1.00  0.00     0.039 A 
HETATM   31  C   UNL     1       8.364  22.784  53.965  1.00  0.00     0.068 A 
HETATM   32  C   UNL     1       7.269  23.170  53.196  1.00  0.00     0.039 A 
HETATM   33  C   UNL     1       6.476  24.251  53.581  1.00  0.00     0.032 A 
BRANCH  31  34
HETATM   34  O   UNL     1       9.046  21.708  53.473  1.00  0.00    -0.352 OA
BRANCH  34  35
HETATM   35  C   UNL     1       8.419  20.433  53.575  1.00  0.00     0.171 C 
HETATM   36  C   UNL     1       8.554  19.969  55.013  1.00  0.00     0.034 C 
ENDBRANCH  34  35
ENDBRANCH  31  34
ENDBRANCH  25  28
ENDBRANCH  23  24
ENDBRANCH   1  23
BRANCH   5  37
HETATM   37  C   UNL     1       6.885  30.981  58.125  1.00  0.00     0.045 A 
HETATM   38  C   UNL     1       8.256  30.643  58.132  1.00  0.00     0.032 A 
HETATM   39  C   UNL     1       9.099  30.951  59.209  1.00  0.00     0.026 A 
HETATM   40  C   UNL     1       8.591  31.625  60.308  1.00  0.00     0.034 A 
HETATM   41 CL   UNL     1       9.614  32.010  61.633  1.00  0.00    -0.084 Cl
HETATM   42  C   UNL     1       7.251  31.983  60.334  1.00  0.00     0.026 A 
HETATM   43  C   UNL     1       6.409  31.657  59.258  1.00  0.00     0.032 A 
ENDBRANCH   5  37
TORSDOF 11
ENDMDL
MODEL 6
REMARK VINA RESULT:      -8.8      3.725      8.354
REMARK  11 active torsions:
REMARK  status: ('A' for Active; 'I' for Inactive)
REMARK    1  A    between atoms: C_2  and  O_3 
REMARK    2  A    between atoms: O_3  and  C_4 
REMARK    3  A    between atoms: C_7  and  N_8 
REMARK       I    between atoms: N_8  and  C_9 
REMARK    4  A    between atoms: C_9  and  C_10 
REMARK    5  A    between atoms: C_10  and  C_11 
REMARK    6  A    between atoms: N_12  and  C_13 
REMARK    7  A    between atoms: C_13  and  C_14 
REMARK    8  A    between atoms: C_14  and  C_15 
REMARK    9  A    between atoms: C_15  and  N_16 
REMARK   10  A    between atoms: C_20  and  C_21 
REMARK       I    between atoms: C_21  and  N_22 
REMARK   11  A    between atoms: N_28  and  C_29 
ROOT
HETATM    1  C   UNL     1       4.719  29.587  55.131  1.00  0.00     0.188 C 
HETATM    2  N   UNL     1       3.771  30.660  54.838  1.00  0.00    -0.344 N 
HETATM    3  C   UNL     1       3.809  31.639  55.870  1.00  0.00     0.184 C 
HETATM    4  S   UNL     1       3.107  33.147  55.688  1.00  0.00    -0.040 SA
HETATM    5  N   UNL     1       4.491  31.084  56.954  1.00  0.00    -0.257 N 
HETATM    6  C   UNL     1       4.850  29.784  56.633  1.00  0.00     0.254 C 
HETATM    7  O   UNL     1       5.176  28.882  57.394  1.00  0.00    -0.270 OA
ENDROOT
BRANCH   2   8
HETATM    8  C   UNL     1       3.228  30.834  53.482  1.00  0.00     0.128 C 
BRANCH   8   9
HETATM    9  C   UNL     1       4.276  30.693  52.371  1.00  0.00     0.048 C 
BRANCH   9  10
HETATM   10  C   UNL     1       3.753  30.348  50.977  1.00  0.00     0.236 C 
BRANCH  10  11
HETATM   11  N   UNL     1       4.515  29.236  50.284  1.00  0.00    -0.071 N 
HETATM   12  H   UNL     1       5.527  29.418  50.387  1.00  0.00     0.279 HD
HETATM   13  C   UNL     1       4.205  27.879  50.875  1.00  0.00     0.235 C 
HETATM   14  C   UNL     1       4.976  26.787  50.143  1.00  0.00     0.042 C 
HETATM   15  C   UNL     1       4.679  26.782  48.644  1.00  0.00     0.081 C 
HETATM   16  C   UNL     1       4.943  28.168  48.053  1.00  0.00     0.042 C 
HETATM   17  C   UNL     1       4.226  29.290  48.792  1.00  0.00     0.235 C 
BRANCH  15  18
HETATM   18  C   UNL     1       3.244  26.333  48.397  1.00  0.00     0.219 C 
HETATM   19  N   UNL     1       3.007  25.005  48.568  1.00  0.00    -0.370 N 
HETATM   20  H   UNL     1       3.743  24.310  48.509  1.00  0.00     0.159 HD
HETATM   21  H   UNL     1       2.072  24.680  48.344  1.00  0.00     0.159 HD
HETATM   22  O   UNL     1       2.333  27.117  48.169  1.00  0.00    -0.273 OA
ENDBRANCH  15  18
ENDBRANCH  10  11
ENDBRANCH   9  10
ENDBRANCH   8   9
ENDBRANCH   2   8
BRANCH   1  23
HETATM   23  C   UNL     1       4.276  28.176  54.780  1.00  0.00     0.138 C 
BRANCH  23  24
HETATM   24  C   UNL     1       5.474  27.352  54.340  1.00  0.00     0.224 C 
HETATM   25  N   UNL     1       5.381  26.031  54.720  1.00  0.00    -0.327 N 
HETATM   26  H   UNL     1       4.612  25.775  55.325  1.00  0.00     0.169 HD
HETATM   27  O   UNL     1       6.381  27.889  53.714  1.00  0.00    -0.273 OA
BRANCH  25  28
HETATM   28  C   UNL     1       6.321  25.002  54.517  1.00  0.00     0.034 A 
HETATM   29  C   UNL     1       7.185  24.516  55.497  1.00  0.00     0.032 A 
HETATM   30  C   UNL     1       8.077  23.471  55.205  1.00  0.00     0.039 A 
HETATM   31  C   UNL     1       8.112  22.911  53.929  1.00  0.00     0.068 A 
HETATM   32  C   UNL     1       7.253  23.402  52.948  1.00  0.00     0.039 A 
HETATM   33  C   UNL     1       6.363  24.437  53.237  1.00  0.00     0.032 A 
BRANCH  31  34
HETATM   34  O   UNL     1       8.923  21.896  53.509  1.00  0.00    -0.352 OA
BRANCH  34  35
HETATM   35  C   UNL     1       8.379  20.579  53.511  1.00  0.00     0.171 C 
HETATM   36  C   UNL     1       8.712  19.947  54.850  1.00  0.00     0.034 C 
ENDBRANCH  34  35
ENDBRANCH  31  34
ENDBRANCH  25  28
ENDBRANCH  23  24
ENDBRANCH   1  23
BRANCH   5  37
HETATM   37  C   UNL     1       4.744  31.624  58.265  1.00  0.00     0.045 A 
HETATM   38  C   UNL     1       6.066  31.933  58.654  1.00  0.00     0.032 A 
HETATM   39  C   UNL     1       6.374  32.450  59.921  1.00  0.00     0.026 A 
HETATM   40  C   UNL     1       5.357  32.687  60.832  1.00  0.00     0.034 A 
HETATM   41 CL   UNL     1       5.720  33.322  62.385  1.00  0.00    -0.084 Cl
HETATM   42  C   UNL     1       4.044  32.405  60.482  1.00  0.00     0.026 A 
HETATM   43  C   UNL     1       3.745  31.873  59.217  1.00  0.00     0.032 A 
ENDBRANCH   5  37
TORSDOF 11
ENDMDL
MODEL 7
REMARK VINA RESULT:      -8.7      3.310      5.001
REMARK  11 active torsions:
REMARK  status: ('A' for Active; 'I' for Inactive)
REMARK    1  A    between atoms: C_2  and  O_3 
REMARK    2  A    between atoms: O_3  and  C_4 
REMARK    3  A    between atoms: C_7  and  N_8 
REMARK       I    between atoms: N_8  and  C_9 
REMARK    4  A    between atoms: C_9  and  C_10 
REMARK    5  A    between atoms: C_10  and  C_11 
REMARK    6  A    between atoms: N_12  and  C_13 
REMARK    7  A    between atoms: C_13  and  C_14 
REMARK    8  A    between atoms: C_14  and  C_15 
REMARK    9  A    between atoms: C_15  and  N_16 
REMARK   10  A    between atoms: C_20  and  C_21 
REMARK       I    between atoms: C_21  and  N_22 
REMARK   11  A    between atoms: N_28  and  C_29 
ROOT
HETATM    1  C   UNL     1       6.838  27.891  55.979  1.00  0.00     0.188 C 
HETATM    2  N   UNL     1       6.065  28.015  54.745  1.00  0.00    -0.344 N 
HETATM    3  C   UNL     1       5.958  26.748  54.107  1.00  0.00     0.184 C 
HETATM    4  S   UNL     1       4.871  26.468  52.867  1.00  0.00    -0.040 SA
HETATM    5  N   UNL     1       6.892  25.896  54.700  1.00  0.00    -0.257 N 
HETATM    6  C   UNL     1       7.589  26.607  55.664  1.00  0.00     0.254 C 
HETATM    7  O   UNL     1       8.665  26.325  56.177  1.00  0.00    -0.270 OA
ENDROOT
BRANCH   2   8
HETATM    8  C   UNL     1       5.218  29.194  54.504  1.00  0.00     0.128 C 
BRANCH   8   9
HETATM    9  C   UNL     1       4.454  29.673  55.744  1.00  0.00     0.048 C 
BRANCH   9  10
HETATM   10  C   UNL     1       3.358  30.713  55.513  1.00  0.00     0.236 C 
BRANCH  10  11
HETATM   11  N   UNL     1       3.450  31.925  56.420  1.00  0.00    -0.071 N 
HETATM   12  H   UNL     1       3.081  31.668  57.350  1.00  0.00     0.279 HD
HETATM   13  C   UNL     1       4.873  32.411  56.580  1.00  0.00     0.235 C 
HETATM   14  C   UNL     1       4.921  33.637  57.483  1.00  0.00     0.042 C 
HETATM   15  C   UNL     1       4.041  34.771  56.959  1.00  0.00     0.081 C 
HETATM   16  C   UNL     1       2.612  34.268  56.747  1.00  0.00     0.042 C 
HETATM   17  C   UNL     1       2.530  33.013  55.888  1.00  0.00     0.235 C 
BRANCH  15  18
HETATM   18  C   UNL     1       4.631  35.338  55.674  1.00  0.00     0.219 C 
HETATM   19  N   UNL     1       3.734  35.618  54.690  1.00  0.00    -0.370 N 
HETATM   20  H   UNL     1       2.823  35.178  54.644  1.00  0.00     0.159 HD
HETATM   21  H   UNL     1       4.118  35.935  53.805  1.00  0.00     0.159 HD
HETATM   22  O   UNL     1       5.813  35.631  55.558  1.00  0.00    -0.273 OA
ENDBRANCH  15  18
ENDBRANCH  10  11
ENDBRANCH   9  10
ENDBRANCH   8   9
ENDBRANCH   2   8
BRANCH   1  23
HETATM   23  C   UNL     1       7.783  29.036  56.305  1.00  0.00     0.138 C 
BRANCH  23  24
HETATM   24  C   UNL     1       7.773  29.305  57.800  1.00  0.00     0.224 C 
HETATM   25  N   UNL     1       7.859  30.647  58.101  1.00  0.00    -0.327 N 
HETATM   26  H   UNL     1       8.027  31.285  57.334  1.00  0.00     0.169 HD
HETATM   27  O   UNL     1       7.692  28.366  58.584  1.00  0.00    -0.273 OA
BRANCH  25  28
HETATM   28  C   UNL     1       7.918  31.248  59.373  1.00  0.00     0.034 A 
HETATM   29  C   UNL     1       6.936  32.088  59.898  1.00  0.00     0.032 A 
HETATM   30  C   UNL     1       7.074  32.625  61.187  1.00  0.00     0.039 A 
HETATM   31  C   UNL     1       8.198  32.331  61.957  1.00  0.00     0.068 A 
HETATM   32  C   UNL     1       9.182  31.498  61.430  1.00  0.00     0.039 A 
HETATM   33  C   UNL     1       9.046  30.958  60.151  1.00  0.00     0.032 A 
BRANCH  31  34
HETATM   34  O   UNL     1       8.460  32.781  63.219  1.00  0.00    -0.352 OA
BRANCH  34  35
HETATM   35  C   UNL     1       7.424  32.651  64.190  1.00  0.00     0.171 C 
HETATM   36  C   UNL     1       7.383  33.938  64.992  1.00  0.00     0.034 C 
ENDBRANCH  34  35
ENDBRANCH  31  34
ENDBRANCH  25  28
ENDBRANCH  23  24
ENDBRANCH   1  23
BRANCH   5  37
HETATM   37  C   UNL     1       7.239  24.535  54.382  1.00  0.00     0.045 A 
HETATM   38  C   UNL     1       7.665  24.206  53.076  1.00  0.00     0.032 A 
HETATM   39  C   UNL     1       8.005  22.897  52.706  1.00  0.00     0.026 A 
HETATM   40  C   UNL     1       7.943  21.879  53.644  1.00  0.00     0.034 A 
HETATM   41 CL   UNL     1       8.359  20.272  53.204  1.00  0.00    -0.084 Cl
HETATM   42  C   UNL     1       7.539  22.166  54.941  1.00  0.00     0.026 A 
HETATM   43  C   UNL     1       7.185  23.477  55.300  1.00  0.00     0.032 A 
ENDBRANCH   5  37
TORSDOF 11
ENDMDL
MODEL 8
REMARK VINA RESULT:      -8.3      2.621      9.893
REMARK  11 active torsions:
REMARK  status: ('A' for Active; 'I' for Inactive)
REMARK    1  A    between atoms: C_2  and  O_3 
REMARK    2  A    between atoms: O_3  and  C_4 
REMARK    3  A    between atoms: C_7  and  N_8 
REMARK       I    between atoms: N_8  and  C_9 
REMARK    4  A    between atoms: C_9  and  C_10 
REMARK    5  A    between atoms: C_10  and  C_11 
REMARK    6  A    between atoms: N_12  and  C_13 
REMARK    7  A    between atoms: C_13  and  C_14 
REMARK    8  A    between atoms: C_14  and  C_15 
REMARK    9  A    between atoms: C_15  and  N_16 
REMARK   10  A    between atoms: C_20  and  C_21 
REMARK       I    between atoms: C_21  and  N_22 
REMARK   11  A    between atoms: N_28  and  C_29 
ROOT
HETATM    1  C   UNL     1       5.111  27.368  53.439  1.00  0.00     0.188 C 
HETATM    2  N   UNL     1       5.759  27.738  54.696  1.00  0.00    -0.344 N 
HETATM    3  C   UNL     1       6.664  26.718  55.097  1.00  0.00     0.184 C 
HETATM    4  S   UNL     1       7.806  26.964  56.295  1.00  0.00    -0.040 SA
HETATM    5  N   UNL     1       6.386  25.582  54.334  1.00  0.00    -0.257 N 
HETATM    6  C   UNL     1       5.318  25.863  53.496  1.00  0.00     0.254 C 
HETATM    7  O   UNL     1       4.590  25.071  52.912  1.00  0.00    -0.270 OA
ENDROOT
BRANCH   2   8
HETATM    8  C   UNL     1       5.741  29.132  55.169  1.00  0.00     0.128 C 
BRANCH   8   9
HETATM    9  C   UNL     1       4.768  29.382  56.327  1.00  0.00     0.048 C 
BRANCH   9  10
HETATM   10  C   UNL     1       5.390  29.668  57.694  1.00  0.00     0.236 C 
BRANCH  10  11
HETATM   11  N   UNL     1       5.102  31.057  58.230  1.00  0.00    -0.071 N 
HETATM   12  H   UNL     1       5.103  31.721  57.439  1.00  0.00     0.279 HD
HETATM   13  C   UNL     1       3.761  31.132  58.925  1.00  0.00     0.235 C 
HETATM   14  C   UNL     1       3.515  32.536  59.463  1.00  0.00     0.042 C 
HETATM   15  C   UNL     1       4.621  32.986  60.417  1.00  0.00     0.081 C 
HETATM   16  C   UNL     1       5.984  32.862  59.734  1.00  0.00     0.042 C 
HETATM   17  C   UNL     1       6.243  31.484  59.140  1.00  0.00     0.235 C 
BRANCH  15  18
HETATM   18  C   UNL     1       4.564  32.172  61.704  1.00  0.00     0.219 C 
HETATM   19  N   UNL     1       5.767  31.831  62.236  1.00  0.00    -0.370 N 
HETATM   20  H   UNL     1       6.614  31.790  61.682  1.00  0.00     0.159 HD
HETATM   21  H   UNL     1       5.746  31.233  63.057  1.00  0.00     0.159 HD
HETATM   22  O   UNL     1       3.517  31.928  62.290  1.00  0.00    -0.273 OA
ENDBRANCH  15  18
ENDBRANCH  10  11
ENDBRANCH   9  10
ENDBRANCH   8   9
ENDBRANCH   2   8
BRANCH   1  23
HETATM   23  C   UNL     1       3.643  27.735  53.300  1.00  0.00     0.138 C 
BRANCH  23  24
HETATM   24  C   UNL     1       3.465  28.743  52.178  1.00  0.00     0.224 C 
HETATM   25  N   UNL     1       3.380  28.150  50.936  1.00  0.00    -0.327 N 
HETATM   26  H   UNL     1       3.549  27.154  50.885  1.00  0.00     0.169 HD
HETATM   27  O   UNL     1       3.412  29.939  52.441  1.00  0.00    -0.273 OA
BRANCH  25  28
HETATM   28  C   UNL     1       3.255  28.778  49.682  1.00  0.00     0.034 A 
HETATM   29  C   UNL     1       4.296  29.418  49.011  1.00  0.00     0.032 A 
HETATM   30  C   UNL     1       4.079  30.000  47.752  1.00  0.00     0.039 A 
HETATM   31  C   UNL     1       2.818  29.951  47.160  1.00  0.00     0.068 A 
HETATM   32  C   UNL     1       1.776  29.318  47.835  1.00  0.00     0.039 A 
HETATM   33  C   UNL     1       1.990  28.734  49.084  1.00  0.00     0.032 A 
BRANCH  31  34
HETATM   34  O   UNL     1       2.467  30.471  45.947  1.00  0.00    -0.352 OA
BRANCH  34  35
HETATM   35  C   UNL     1       3.387  31.365  45.327  1.00  0.00     0.171 C 
HETATM   36  C   UNL     1       2.750  32.743  45.313  1.00  0.00     0.034 C 
ENDBRANCH  34  35
ENDBRANCH  31  34
ENDBRANCH  25  28
ENDBRANCH  23  24
ENDBRANCH   1  23
BRANCH   5  37
HETATM   37  C   UNL     1       6.959  24.262  54.392  1.00  0.00     0.045 A 
HETATM   38  C   UNL     1       7.532  23.693  53.233  1.00  0.00     0.032 A 
HETATM   39  C   UNL     1       8.094  22.409  53.227  1.00  0.00     0.026 A 
HETATM   40  C   UNL     1       8.113  21.661  54.393  1.00  0.00     0.034 A 
HETATM   41 CL   UNL     1       8.800  20.088  54.400  1.00  0.00    -0.084 Cl
HETATM   42  C   UNL     1       7.568  22.190  55.555  1.00  0.00     0.026 A 
HETATM   43  C   UNL     1       6.993  23.472  55.550  1.00  0.00     0.032 A 
ENDBRANCH   5  37
TORSDOF 11
ENDMDL
MODEL 9
REMARK VINA RESULT:      -8.2      3.840      7.911
REMARK  11 active torsions:
REMARK  status: ('A' for Active; 'I' for Inactive)
REMARK    1  A    between atoms: C_2  and  O_3 
REMARK    2  A    between atoms: O_3  and  C_4 
REMARK    3  A    between atoms: C_7  and  N_8 
REMARK       I    between atoms: N_8  and  C_9 
REMARK    4  A    between atoms: C_9  and  C_10 
REMARK    5  A    between atoms: C_10  and  C_11 
REMARK    6  A    between atoms: N_12  and  C_13 
REMARK    7  A    between atoms: C_13  and  C_14 
REMARK    8  A    between atoms: C_14  and  C_15 
REMARK    9  A    between atoms: C_15  and  N_16 
REMARK   10  A    between atoms: C_20  and  C_21 
REMARK       I    between atoms: C_21  and  N_22 
REMARK   11  A    between atoms: N_28  and  C_29 
ROOT
HETATM    1  C   UNL     1       5.549  27.820  54.183  1.00  0.00     0.188 C 
HETATM    2  N   UNL     1       6.197  27.898  55.491  1.00  0.00    -0.344 N 
HETATM    3  C   UNL     1       7.039  26.768  55.685  1.00  0.00     0.184 C 
HETATM    4  S   UNL     1       8.174  26.708  56.913  1.00  0.00    -0.040 SA
HETATM    5  N   UNL     1       6.710  25.823  54.711  1.00  0.00    -0.257 N 
HETATM    6  C   UNL     1       5.673  26.324  53.941  1.00  0.00     0.254 C 
HETATM    7  O   UNL     1       4.911  25.706  53.208  1.00  0.00    -0.270 OA
ENDROOT
BRANCH   2   8
HETATM    8  C   UNL     1       6.247  29.169  56.230  1.00  0.00     0.128 C 
BRANCH   8   9
HETATM    9  C   UNL     1       5.301  29.225  57.435  1.00  0.00     0.048 C 
BRANCH   9  10
HETATM   10  C   UNL     1       4.470  30.498  57.593  1.00  0.00     0.236 C 
BRANCH  10  11
HETATM   11  N   UNL     1       4.243  31.258  56.302  1.00  0.00    -0.071 N 
HETATM   12  H   UNL     1       4.779  30.794  55.550  1.00  0.00     0.279 HD
HETATM   13  C   UNL     1       2.783  31.291  55.908  1.00  0.00     0.235 C 
HETATM   14  C   UNL     1       2.595  32.076  54.616  1.00  0.00     0.042 C 
HETATM   15  C   UNL     1       3.135  33.501  54.727  1.00  0.00     0.081 C 
HETATM   16  C   UNL     1       4.598  33.473  55.175  1.00  0.00     0.042 C 
HETATM   17  C   UNL     1       4.830  32.654  56.438  1.00  0.00     0.235 C 
BRANCH  15  18
HETATM   18  C   UNL     1       2.273  34.314  55.684  1.00  0.00     0.219 C 
HETATM   19  N   UNL     1       2.843  35.450  56.168  1.00  0.00    -0.370 N 
HETATM   20  H   UNL     1       3.847  35.582  56.199  1.00  0.00     0.159 HD
HETATM   21  H   UNL     1       2.306  35.967  56.858  1.00  0.00     0.159 HD
HETATM   22  O   UNL     1       1.105  34.036  55.925  1.00  0.00    -0.273 OA
ENDBRANCH  15  18
ENDBRANCH  10  11
ENDBRANCH   9  10
ENDBRANCH   8   9
ENDBRANCH   2   8
BRANCH   1  23
HETATM   23  C   UNL     1       4.105  28.289  54.112  1.00  0.00     0.138 C 
BRANCH  23  24
HETATM   24  C   UNL     1       3.856  29.002  52.794  1.00  0.00     0.224 C 
HETATM   25  N   UNL     1       4.915  29.797  52.410  1.00  0.00    -0.327 N 
HETATM   26  H   UNL     1       5.673  29.910  53.069  1.00  0.00     0.169 HD
HETATM   27  O   UNL     1       2.796  28.829  52.203  1.00  0.00    -0.273 OA
BRANCH  25  28
HETATM   28  C   UNL     1       5.010  30.624  51.274  1.00  0.00     0.034 A 
HETATM   29  C   UNL     1       5.331  30.177  49.994  1.00  0.00     0.032 A 
HETATM   30  C   UNL     1       5.382  31.077  48.918  1.00  0.00     0.039 A 
HETATM   31  C   UNL     1       5.118  32.431  49.118  1.00  0.00     0.068 A 
HETATM   32  C   UNL     1       4.804  32.879  50.399  1.00  0.00     0.039 A 
HETATM   33  C   UNL     1       4.748  31.986  51.470  1.00  0.00     0.032 A 
BRANCH  31  34
HETATM   34  O   UNL     1       5.132  33.412  48.167  1.00  0.00    -0.352 OA
BRANCH  34  35
HETATM   35  C   UNL     1       5.859  34.601  48.463  1.00  0.00     0.171 C 
HETATM   36  C   UNL     1       7.289  34.391  48.001  1.00  0.00     0.034 C 
ENDBRANCH  34  35
ENDBRANCH  31  34
ENDBRANCH  25  28
ENDBRANCH  23  24
ENDBRANCH   1  23
BRANCH   5  37
HETATM   37  C   UNL     1       7.210  24.488  54.509  1.00  0.00     0.045 A 
HETATM   38  C   UNL     1       7.081  23.526  55.535  1.00  0.00     0.032 A 
HETATM   39  C   UNL     1       7.559  22.215  55.398  1.00  0.00     0.026 A 
HETATM   40  C   UNL     1       8.167  21.825  54.216  1.00  0.00     0.034 A 
HETATM   41 CL   UNL     1       8.755  20.221  54.036  1.00  0.00    -0.084 Cl
HETATM   42  C   UNL     1       8.303  22.739  53.181  1.00  0.00     0.026 A 
HETATM   43  C   UNL     1       7.836  24.055  53.331  1.00  0.00     0.032 A 
ENDBRANCH   5  37
TORSDOF 11
ENDMDL
MODEL 10
REMARK VINA RESULT:      -8.2      2.983      9.382
REMARK  11 active torsions:
REMARK  status: ('A' for Active; 'I' for Inactive)
REMARK    1  A    between atoms: C_2  and  O_3 
REMARK    2  A    between atoms: O_3  and  C_4 
REMARK    3  A    between atoms: C_7  and  N_8 
REMARK       I    between atoms: N_8  and  C_9 
REMARK    4  A    between atoms: C_9  and  C_10 
REMARK    5  A    between atoms: C_10  and  C_11 
REMARK    6  A    between atoms: N_12  and  C_13 
REMARK    7  A    between atoms: C_13  and  C_14 
REMARK    8  A    between atoms: C_14  and  C_15 
REMARK    9  A    between atoms: C_15  and  N_16 
REMARK   10  A    between atoms: C_20  and  C_21 
REMARK       I    between atoms: C_21  and  N_22 
REMARK   11  A    between atoms: N_28  and  C_29 
ROOT
HETATM    1  C   UNL     1       5.147  27.621  53.311  1.00  0.00     0.188 C 
HETATM    2  N   UNL     1       5.734  27.935  54.612  1.00  0.00    -0.344 N 
HETATM    3  C   UNL     1       6.632  26.903  55.003  1.00  0.00     0.184 C 
HETATM    4  S   UNL     1       7.717  27.101  56.262  1.00  0.00    -0.040 SA
HETATM    5  N   UNL     1       6.400  25.804  54.174  1.00  0.00    -0.257 N 
HETATM    6  C   UNL     1       5.367  26.117  53.304  1.00  0.00     0.254 C 
HETATM    7  O   UNL     1       4.674  25.348  52.650  1.00  0.00    -0.270 OA
ENDROOT
BRANCH   2   8
HETATM    8  C   UNL     1       5.680  29.303  55.151  1.00  0.00     0.128 C 
BRANCH   8   9
HETATM    9  C   UNL     1       4.701  29.472  56.319  1.00  0.00     0.048 C 
BRANCH   9  10
HETATM   10  C   UNL     1       5.316  29.688  57.701  1.00  0.00     0.236 C 
BRANCH  10  11
HETATM   11  N   UNL     1       5.090  31.074  58.273  1.00  0.00    -0.071 N 
HETATM   12  H   UNL     1       5.119  31.757  57.499  1.00  0.00     0.279 HD
HETATM   13  C   UNL     1       3.755  31.191  58.973  1.00  0.00     0.235 C 
HETATM   14  C   UNL     1       3.572  32.590  59.547  1.00  0.00     0.042 C 
HETATM   15  C   UNL     1       4.698  32.967  60.509  1.00  0.00     0.081 C 
HETATM   16  C   UNL     1       6.053  32.800  59.820  1.00  0.00     0.042 C 
HETATM   17  C   UNL     1       6.250  31.426  59.191  1.00  0.00     0.235 C 
BRANCH  15  18
HETATM   18  C   UNL     1       4.607  32.125  61.775  1.00  0.00     0.219 C 
HETATM   19  N   UNL     1       5.796  31.753  62.320  1.00  0.00    -0.370 N 
HETATM   20  H   UNL     1       6.652  31.712  61.779  1.00  0.00     0.159 HD
HETATM   21  H   UNL     1       5.752  31.136  63.126  1.00  0.00     0.159 HD
HETATM   22  O   UNL     1       3.547  31.883  62.337  1.00  0.00    -0.273 OA
ENDBRANCH  15  18
ENDBRANCH  10  11
ENDBRANCH   9  10
ENDBRANCH   8   9
ENDBRANCH   2   8
BRANCH   1  23
HETATM   23  C   UNL     1       3.682  27.981  53.124  1.00  0.00     0.138 C 
BRANCH  23  24
HETATM   24  C   UNL     1       3.525  28.907  51.931  1.00  0.00     0.224 C 
HETATM   25  N   UNL     1       4.727  29.416  51.489  1.00  0.00    -0.327 N 
HETATM   26  H   UNL     1       5.547  29.220  52.047  1.00  0.00     0.169 HD
HETATM   27  O   UNL     1       2.408  29.122  51.474  1.00  0.00    -0.273 OA
BRANCH  25  28
HETATM   28  C   UNL     1       4.949  30.330  50.441  1.00  0.00     0.034 A 
HETATM   29  C   UNL     1       5.334  31.658  50.617  1.00  0.00     0.032 A 
HETATM   30  C   UNL     1       5.551  32.489  49.507  1.00  0.00     0.039 A 
HETATM   31  C   UNL     1       5.378  31.998  48.214  1.00  0.00     0.068 A 
HETATM   32  C   UNL     1       4.985  30.673  48.038  1.00  0.00     0.039 A 
HETATM   33  C   UNL     1       4.774  29.843  49.139  1.00  0.00     0.032 A 
BRANCH  31  34
HETATM   34  O   UNL     1       5.554  32.691  47.050  1.00  0.00    -0.352 OA
BRANCH  34  35
HETATM   35  C   UNL     1       6.673  33.569  46.973  1.00  0.00     0.171 C 
HETATM   36  C   UNL     1       7.162  33.565  45.536  1.00  0.00     0.034 C 
ENDBRANCH  34  35
ENDBRANCH  31  34
ENDBRANCH  25  28
ENDBRANCH  23  24
ENDBRANCH   1  23
BRANCH   5  37
HETATM   37  C   UNL     1       6.985  24.488  54.193  1.00  0.00     0.045 A 
HETATM   38  C   UNL     1       6.930  23.711  55.371  1.00  0.00     0.032 A 
HETATM   39  C   UNL     1       7.492  22.429  55.451  1.00  0.00     0.026 A 
HETATM   40  C   UNL     1       8.113  21.881  54.341  1.00  0.00     0.034 A 
HETATM   41 CL   UNL     1       8.804  20.311  54.426  1.00  0.00    -0.084 Cl
HETATM   42  C   UNL     1       8.179  22.610  53.162  1.00  0.00     0.026 A 
HETATM   43  C   UNL     1       7.627  23.900  53.094  1.00  0.00     0.032 A 
ENDBRANCH   5  37
TORSDOF 11
ENDMDL
