MODEL 1
REMARK VINA RESULT:      -9.4      0.000      0.000
REMARK  9 active torsions:
REMARK  status: ('A' for Active; 'I' for Inactive)
REMARK    1  A    between atoms: C_2  and  N_3 
REMARK    2  A    between atoms: N_3  and  C_4 
REMARK    3  A    between atoms: C_4  and  N_5 
REMARK    4  A    between atoms: N_8  and  C_10 
REMARK    5  A    between atoms: C_10  and  C_11 
REMARK    6  A    between atoms: C_11  and  N_12 
REMARK    7  A    between atoms: C_13  and  C_14 
REMARK    8  A    between atoms: N_17  and  C_18 
REMARK    9  A    between atoms: C_28  and  C_29 
ROOT
HETATM    1  C   UNL     1       7.792  28.166  57.125  1.00  0.00     0.085 C 
HETATM    2  C   UNL     1       8.357  26.791  56.916  1.00  0.00     0.278 C 
HETATM    3  O   UNL     1       9.371  26.404  57.469  1.00  0.00    -0.265 OA
HETATM    4  N   UNL     1       7.483  26.137  56.060  1.00  0.00    -0.212 N 
HETATM    5  N   UNL     1       6.459  27.012  55.704  1.00  0.00    -0.189 NA
HETATM    6  C   UNL     1       6.631  28.184  56.439  1.00  0.00     0.130 C 
HETATM    7  H   UNL     1       5.521  26.607  55.646  1.00  0.00     0.153 HD
ENDROOT
BRANCH   1   8
HETATM    8  C   UNL     1       8.419  29.267  57.902  1.00  0.00     0.042 C 
HETATM    9  N   UNL     1       7.957  29.554  59.082  1.00  0.00    -0.292 NA
HETATM   10  C   UNL     1       9.585  29.988  57.246  1.00  0.00     0.071 C 
BRANCH   9  11
HETATM   11  C   UNL     1       8.554  30.676  59.819  1.00  0.00     0.176 C 
BRANCH  11  12
HETATM   12  C   UNL     1       7.604  31.879  59.762  1.00  0.00     0.256 C 
BRANCH  12  13
HETATM   13  N   UNL     1       6.400  31.667  60.660  1.00  0.00    -0.066 N 
HETATM   14  C   UNL     1       6.755  31.625  62.144  1.00  0.00     0.254 C 
HETATM   15  C   UNL     1       5.485  31.458  63.003  1.00  0.00     0.153 C 
HETATM   16  N   UNL     1       4.528  32.535  62.708  1.00  0.00    -0.355 N 
HETATM   17  C   UNL     1       4.120  32.554  61.294  1.00  0.00     0.153 C 
HETATM   18  C   UNL     1       5.322  32.702  60.348  1.00  0.00     0.254 C 
HETATM   19  H   UNL     1       6.048  30.725  60.406  1.00  0.00     0.280 HD
BRANCH  16  20
HETATM   20  C   UNL     1       4.577  33.706  63.485  1.00  0.00     0.169 C 
HETATM   21  S   UNL     1       4.592  35.255  62.853  1.00  0.00    -0.041 SA
BRANCH  20  22
HETATM   22  N   UNL     1       4.642  33.411  64.834  1.00  0.00    -0.367 N 
HETATM   23  H   UNL     1       3.760  33.086  65.209  1.00  0.00     0.161 HD
BRANCH  22  24
HETATM   24  C   UNL     1       5.506  34.084  65.803  1.00  0.00     0.117 C 
HETATM   25  C   UNL     1       6.966  33.738  65.575  1.00  0.00     0.026 C 
ENDBRANCH  22  24
ENDBRANCH  20  22
ENDBRANCH  16  20
ENDBRANCH  12  13
ENDBRANCH  11  12
ENDBRANCH   9  11
ENDBRANCH   1   8
BRANCH   6  26
HETATM   26  C   UNL     1       5.623  29.297  56.403  1.00  0.00     0.430 C 
HETATM   27  F   UNL     1       6.147  30.427  55.859  1.00  0.00    -0.165 F 
HETATM   28  F   UNL     1       4.524  29.002  55.645  1.00  0.00    -0.165 F 
HETATM   29  F   UNL     1       5.162  29.630  57.635  1.00  0.00    -0.165 F 
ENDBRANCH   6  26
BRANCH   4  30
HETATM   30  C   UNL     1       7.614  24.887  55.487  1.00  0.00     0.192 A 
HETATM   31  S   UNL     1       7.714  24.716  53.794  1.00  0.00    -0.048 SA
HETATM   32  C   UNL     1       7.767  23.007  53.960  1.00  0.00     0.037 A 
HETATM   33  C   UNL     1       7.732  22.686  55.318  1.00  0.00     0.076 A 
HETATM   34  C   UNL     1       7.828  22.021  52.961  1.00  0.00     0.021 A 
HETATM   35  N   UNL     1       7.670  23.772  56.182  1.00  0.00    -0.222 NA
HETATM   36  C   UNL     1       7.756  21.326  55.691  1.00  0.00     0.033 A 
HETATM   37  C   UNL     1       7.808  20.335  54.705  1.00  0.00     0.002 A 
HETATM   38  C   UNL     1       7.845  20.680  53.357  1.00  0.00     0.002 A 
ENDBRANCH   4  30
TORSDOF 9
ENDMDL
MODEL 2
REMARK VINA RESULT:      -9.0      1.930      2.752
REMARK  9 active torsions:
REMARK  status: ('A' for Active; 'I' for Inactive)
REMARK    1  A    between atoms: C_2  and  N_3 
REMARK    2  A    between atoms: N_3  and  C_4 
REMARK    3  A    between atoms: C_4  and  N_5 
REMARK    4  A    between atoms: N_8  and  C_10 
REMARK    5  A    between atoms: C_10  and  C_11 
REMARK    6  A    between atoms: C_11  and  N_12 
REMARK    7  A    between atoms: C_13  and  C_14 
REMARK    8  A    between atoms: N_17  and  C_18 
REMARK    9  A    between atoms: C_28  and  C_29 
ROOT
HETATM    1  C   UNL     1       6.410  27.864  56.206  1.00  0.00     0.085 C 
HETATM    2  C   UNL     1       6.216  26.542  55.523  1.00  0.00     0.278 C 
HETATM    3  O   UNL     1       5.225  26.279  54.865  1.00  0.00    -0.265 OA
HETATM    4  N   UNL     1       7.363  25.801  55.773  1.00  0.00    -0.212 N 
HETATM    5  N   UNL     1       8.216  26.550  56.580  1.00  0.00    -0.189 NA
HETATM    6  C   UNL     1       7.650  27.814  56.737  1.00  0.00     0.130 C 
HETATM    7  H   UNL     1       9.214  26.488  56.360  1.00  0.00     0.153 HD
ENDROOT
BRANCH   1   8
HETATM    8  C   UNL     1       5.416  28.966  56.291  1.00  0.00     0.042 C 
HETATM    9  N   UNL     1       4.926  29.291  57.449  1.00  0.00    -0.292 NA
HETATM   10  C   UNL     1       5.041  29.649  54.986  1.00  0.00     0.071 C 
BRANCH   9  11
HETATM   11  C   UNL     1       3.909  30.349  57.513  1.00  0.00     0.176 C 
BRANCH  11  12
HETATM   12  C   UNL     1       4.578  31.668  57.919  1.00  0.00     0.256 C 
BRANCH  12  13
HETATM   13  N   UNL     1       4.866  31.699  59.407  1.00  0.00    -0.066 N 
HETATM   14  C   UNL     1       6.154  32.439  59.758  1.00  0.00     0.254 C 
HETATM   15  C   UNL     1       6.362  32.477  61.286  1.00  0.00     0.153 C 
HETATM   16  N   UNL     1       5.195  33.087  61.940  1.00  0.00    -0.355 N 
HETATM   17  C   UNL     1       3.949  32.352  61.671  1.00  0.00     0.153 C 
HETATM   18  C   UNL     1       3.658  32.242  60.167  1.00  0.00     0.254 C 
HETATM   19  H   UNL     1       5.008  30.705  59.667  1.00  0.00     0.280 HD
BRANCH  16  20
HETATM   20  C   UNL     1       5.206  34.474  62.172  1.00  0.00     0.169 C 
HETATM   21  S   UNL     1       4.398  35.593  61.226  1.00  0.00    -0.041 SA
BRANCH  20  22
HETATM   22  N   UNL     1       5.994  34.795  63.262  1.00  0.00    -0.367 N 
HETATM   23  H   UNL     1       6.900  35.163  62.999  1.00  0.00     0.161 HD
BRANCH  22  24
HETATM   24  C   UNL     1       5.966  34.110  64.553  1.00  0.00     0.117 C 
HETATM   25  C   UNL     1       7.323  33.525  64.898  1.00  0.00     0.026 C 
ENDBRANCH  22  24
ENDBRANCH  20  22
ENDBRANCH  16  20
ENDBRANCH  12  13
ENDBRANCH  11  12
ENDBRANCH   9  11
ENDBRANCH   1   8
BRANCH   6  26
HETATM   26  C   UNL     1       8.373  28.926  57.441  1.00  0.00     0.430 C 
HETATM   27  F   UNL     1       7.929  29.080  58.717  1.00  0.00    -0.165 F 
HETATM   28  F   UNL     1       9.719  28.709  57.545  1.00  0.00    -0.165 F 
HETATM   29  F   UNL     1       8.223  30.126  56.825  1.00  0.00    -0.165 F 
ENDBRANCH   6  26
BRANCH   4  30
HETATM   30  C   UNL     1       7.625  24.485  55.447  1.00  0.00     0.192 A 
HETATM   31  S   UNL     1       8.144  23.383  56.640  1.00  0.00    -0.048 SA
HETATM   32  C   UNL     1       8.293  22.152  55.452  1.00  0.00     0.037 A 
HETATM   33  C   UNL     1       7.902  22.670  54.216  1.00  0.00     0.076 A 
HETATM   34  C   UNL     1       8.728  20.825  55.601  1.00  0.00     0.021 A 
HETATM   35  N   UNL     1       7.500  24.000  54.232  1.00  0.00    -0.222 NA
HETATM   36  C   UNL     1       7.954  21.830  53.085  1.00  0.00     0.033 A 
HETATM   37  C   UNL     1       8.394  20.509  53.220  1.00  0.00     0.002 A 
HETATM   38  C   UNL     1       8.775  20.014  54.463  1.00  0.00     0.002 A 
ENDBRANCH   4  30
TORSDOF 9
ENDMDL
MODEL 3
REMARK VINA RESULT:      -8.8      2.027      2.886
REMARK  9 active torsions:
REMARK  status: ('A' for Active; 'I' for Inactive)
REMARK    1  A    between atoms: C_2  and  N_3 
REMARK    2  A    between atoms: N_3  and  C_4 
REMARK    3  A    between atoms: C_4  and  N_5 
REMARK    4  A    between atoms: N_8  and  C_10 
REMARK    5  A    between atoms: C_10  and  C_11 
REMARK    6  A    between atoms: C_11  and  N_12 
REMARK    7  A    between atoms: C_13  and  C_14 
REMARK    8  A    between atoms: N_17  and  C_18 
REMARK    9  A    between atoms: C_28  and  C_29 
ROOT
HETATM    1  C   UNL     1       6.344  29.158  56.788  1.00  0.00     0.085 C 
HETATM    2  C   UNL     1       6.035  27.952  55.950  1.00  0.00     0.278 C 
HETATM    3  O   UNL     1       5.040  27.873  55.250  1.00  0.00    -0.265 OA
HETATM    4  N   UNL     1       7.093  27.072  56.127  1.00  0.00    -0.212 N 
HETATM    5  N   UNL     1       7.996  27.628  57.030  1.00  0.00    -0.189 NA
HETATM    6  C   UNL     1       7.558  28.917  57.327  1.00  0.00     0.130 C 
HETATM    7  H   UNL     1       8.988  27.488  56.819  1.00  0.00     0.153 HD
ENDROOT
BRANCH   1   8
HETATM    8  C   UNL     1       5.466  30.340  56.989  1.00  0.00     0.042 C 
HETATM    9  N   UNL     1       4.863  30.497  58.129  1.00  0.00    -0.292 NA
HETATM   10  C   UNL     1       5.339  31.303  55.820  1.00  0.00     0.071 C 
BRANCH   9  11
HETATM   11  C   UNL     1       3.960  31.643  58.298  1.00  0.00     0.176 C 
BRANCH  11  12
HETATM   12  C   UNL     1       4.593  32.644  59.273  1.00  0.00     0.256 C 
BRANCH  12  13
HETATM   13  N   UNL     1       5.046  31.954  60.546  1.00  0.00    -0.066 N 
HETATM   14  C   UNL     1       6.380  32.477  61.073  1.00  0.00     0.254 C 
HETATM   15  C   UNL     1       6.758  31.772  62.392  1.00  0.00     0.153 C 
HETATM   16  N   UNL     1       5.685  31.940  63.382  1.00  0.00    -0.355 N 
HETATM   17  C   UNL     1       4.402  31.384  62.922  1.00  0.00     0.153 C 
HETATM   18  C   UNL     1       3.942  32.012  61.598  1.00  0.00     0.254 C 
HETATM   19  H   UNL     1       5.197  30.967  60.268  1.00  0.00     0.280 HD
BRANCH  16  20
HETATM   20  C   UNL     1       5.749  33.036  64.260  1.00  0.00     0.169 C 
HETATM   21  S   UNL     1       7.155  33.863  64.632  1.00  0.00    -0.041 SA
BRANCH  20  22
HETATM   22  N   UNL     1       4.508  33.322  64.799  1.00  0.00    -0.367 N 
HETATM   23  H   UNL     1       3.899  32.514  64.836  1.00  0.00     0.161 HD
BRANCH  22  24
HETATM   24  C   UNL     1       3.815  34.604  64.686  1.00  0.00     0.117 C 
HETATM   25  C   UNL     1       3.460  35.163  66.051  1.00  0.00     0.026 C 
ENDBRANCH  22  24
ENDBRANCH  20  22
ENDBRANCH  16  20
ENDBRANCH  12  13
ENDBRANCH  11  12
ENDBRANCH   9  11
ENDBRANCH   1   8
BRANCH   6  26
HETATM   26  C   UNL     1       8.371  29.857  58.170  1.00  0.00     0.430 C 
HETATM   27  F   UNL     1       8.015  29.788  59.480  1.00  0.00    -0.165 F 
HETATM   28  F   UNL     1       9.710  29.582  58.139  1.00  0.00    -0.165 F 
HETATM   29  F   UNL     1       8.235  31.154  57.793  1.00  0.00    -0.165 F 
ENDBRANCH   6  26
BRANCH   4  30
HETATM   30  C   UNL     1       7.229  25.783  55.650  1.00  0.00     0.192 A 
HETATM   31  S   UNL     1       7.226  24.457  56.722  1.00  0.00    -0.048 SA
HETATM   32  C   UNL     1       7.502  23.383  55.410  1.00  0.00     0.037 A 
HETATM   33  C   UNL     1       7.548  24.122  54.226  1.00  0.00     0.076 A 
HETATM   34  C   UNL     1       7.671  21.989  55.426  1.00  0.00     0.021 A 
HETATM   35  N   UNL     1       7.366  25.491  54.375  1.00  0.00    -0.222 NA
HETATM   36  C   UNL     1       7.776  23.440  53.013  1.00  0.00     0.033 A 
HETATM   37  C   UNL     1       7.954  22.052  53.018  1.00  0.00     0.002 A 
HETATM   38  C   UNL     1       7.901  21.338  54.211  1.00  0.00     0.002 A 
ENDBRANCH   4  30
TORSDOF 9
ENDMDL
MODEL 4
REMARK VINA RESULT:      -8.8      2.019      3.035
REMARK  9 active torsions:
REMARK  status: ('A' for Active; 'I' for Inactive)
REMARK    1  A    between atoms: C_2  and  N_3 
REMARK    2  A    between atoms: N_3  and  C_4 
REMARK    3  A    between atoms: C_4  and  N_5 
REMARK    4  A    between atoms: N_8  and  C_10 
REMARK    5  A    between atoms: C_10  and  C_11 
REMARK    6  A    between atoms: C_11  and  N_12 
REMARK    7  A    between atoms: C_13  and  C_14 
REMARK    8  A    between atoms: N_17  and  C_18 
REMARK    9  A    between atoms: C_28  and  C_29 
ROOT
HETATM    1  C   UNL     1       6.297  28.398  56.370  1.00  0.00     0.085 C 
HETATM    2  C   UNL     1       6.063  27.160  55.554  1.00  0.00     0.278 C 
HETATM    3  O   UNL     1       5.066  26.997  54.873  1.00  0.00    -0.265 OA
HETATM    4  N   UNL     1       7.187  26.363  55.724  1.00  0.00    -0.212 N 
HETATM    5  N   UNL     1       8.061  26.998  56.604  1.00  0.00    -0.189 NA
HETATM    6  C   UNL     1       7.534  28.256  56.891  1.00  0.00     0.130 C 
HETATM    7  H   UNL     1       9.057  26.928  56.377  1.00  0.00     0.153 HD
ENDROOT
BRANCH   1   8
HETATM    8  C   UNL     1       5.337  29.515  56.570  1.00  0.00     0.042 C 
HETATM    9  N   UNL     1       4.866  29.742  57.759  1.00  0.00    -0.292 NA
HETATM   10  C   UNL     1       4.973  30.331  55.340  1.00  0.00     0.071 C 
BRANCH   9  11
HETATM   11  C   UNL     1       3.881  30.818  57.934  1.00  0.00     0.176 C 
BRANCH  11  12
HETATM   12  C   UNL     1       3.357  30.791  59.376  1.00  0.00     0.256 C 
BRANCH  12  13
HETATM   13  N   UNL     1       3.892  31.964  60.173  1.00  0.00    -0.066 N 
HETATM   14  C   UNL     1       3.699  31.808  61.680  1.00  0.00     0.254 C 
HETATM   15  C   UNL     1       4.307  33.007  62.435  1.00  0.00     0.153 C 
HETATM   16  N   UNL     1       5.728  33.157  62.086  1.00  0.00    -0.355 N 
HETATM   17  C   UNL     1       5.935  33.375  60.646  1.00  0.00     0.153 C 
HETATM   18  C   UNL     1       5.347  32.237  59.799  1.00  0.00     0.254 C 
HETATM   19  H   UNL     1       3.310  32.769  59.876  1.00  0.00     0.280 HD
BRANCH  16  20
HETATM   20  C   UNL     1       6.686  32.509  62.887  1.00  0.00     0.169 C 
HETATM   21  S   UNL     1       7.234  33.092  64.357  1.00  0.00    -0.041 SA
BRANCH  20  22
HETATM   22  N   UNL     1       7.137  31.347  62.289  1.00  0.00    -0.367 N 
HETATM   23  H   UNL     1       6.431  30.623  62.252  1.00  0.00     0.161 HD
BRANCH  22  24
HETATM   24  C   UNL     1       8.513  30.856  62.335  1.00  0.00     0.117 C 
HETATM   25  C   UNL     1       9.363  31.489  61.248  1.00  0.00     0.026 C 
ENDBRANCH  22  24
ENDBRANCH  20  22
ENDBRANCH  16  20
ENDBRANCH  12  13
ENDBRANCH  11  12
ENDBRANCH   9  11
ENDBRANCH   1   8
BRANCH   6  26
HETATM   26  C   UNL     1       8.289  29.266  57.705  1.00  0.00     0.430 C 
HETATM   27  F   UNL     1       7.884  29.264  59.003  1.00  0.00    -0.165 F 
HETATM   28  F   UNL     1       9.635  29.027  57.742  1.00  0.00    -0.165 F 
HETATM   29  F   UNL     1       8.136  30.534  57.246  1.00  0.00    -0.165 F 
ENDBRANCH   6  26
BRANCH   4  30
HETATM   30  C   UNL     1       7.410  25.080  55.263  1.00  0.00     0.192 A 
HETATM   31  S   UNL     1       7.602  24.780  53.596  1.00  0.00    -0.048 SA
HETATM   32  C   UNL     1       7.733  23.095  53.905  1.00  0.00     0.037 A 
HETATM   33  C   UNL     1       7.647  22.883  55.283  1.00  0.00     0.076 A 
HETATM   34  C   UNL     1       7.893  22.037  52.995  1.00  0.00     0.021 A 
HETATM   35  N   UNL     1       7.487  24.030  56.050  1.00  0.00    -0.222 NA
HETATM   36  C   UNL     1       7.721  21.561  55.767  1.00  0.00     0.033 A 
HETATM   37  C   UNL     1       7.872  20.498  54.870  1.00  0.00     0.002 A 
HETATM   38  C   UNL     1       7.958  20.736  53.501  1.00  0.00     0.002 A 
ENDBRANCH   4  30
TORSDOF 9
ENDMDL
MODEL 5
REMARK VINA RESULT:      -8.6      5.023      8.473
REMARK  9 active torsions:
REMARK  status: ('A' for Active; 'I' for Inactive)
REMARK    1  A    between atoms: C_2  and  N_3 
REMARK    2  A    between atoms: N_3  and  C_4 
REMARK    3  A    between atoms: C_4  and  N_5 
REMARK    4  A    between atoms: N_8  and  C_10 
REMARK    5  A    between atoms: C_10  and  C_11 
REMARK    6  A    between atoms: C_11  and  N_12 
REMARK    7  A    between atoms: C_13  and  C_14 
REMARK    8  A    between atoms: N_17  and  C_18 
REMARK    9  A    between atoms: C_28  and  C_29 
ROOT
HETATM    1  C   UNL     1       6.523  27.909  56.074  1.00  0.00     0.085 C 
HETATM    2  C   UNL     1       6.313  26.588  55.392  1.00  0.00     0.278 C 
HETATM    3  O   UNL     1       5.341  26.353  54.695  1.00  0.00    -0.265 OA
HETATM    4  N   UNL     1       7.423  25.812  55.695  1.00  0.00    -0.212 N 
HETATM    5  N   UNL     1       8.267  26.538  56.532  1.00  0.00    -0.189 NA
HETATM    6  C   UNL     1       7.737  27.822  56.656  1.00  0.00     0.130 C 
HETATM    7  H   UNL     1       9.270  26.441  56.354  1.00  0.00     0.153 HD
ENDROOT
BRANCH   1   8
HETATM    8  C   UNL     1       5.564  29.044  56.110  1.00  0.00     0.042 C 
HETATM    9  N   UNL     1       5.404  29.773  55.048  1.00  0.00    -0.292 NA
HETATM   10  C   UNL     1       4.821  29.268  57.416  1.00  0.00     0.071 C 
BRANCH   9  11
HETATM   11  C   UNL     1       4.490  30.921  55.111  1.00  0.00     0.176 C 
BRANCH  11  12
HETATM   12  C   UNL     1       3.470  30.817  53.970  1.00  0.00     0.256 C 
BRANCH  12  13
HETATM   13  N   UNL     1       4.056  30.082  52.780  1.00  0.00    -0.066 N 
HETATM   14  C   UNL     1       3.344  28.766  52.474  1.00  0.00     0.254 C 
HETATM   15  C   UNL     1       3.954  28.095  51.226  1.00  0.00     0.153 C 
HETATM   16  N   UNL     1       3.903  29.014  50.080  1.00  0.00    -0.355 N 
HETATM   17  C   UNL     1       4.640  30.264  50.328  1.00  0.00     0.153 C 
HETATM   18  C   UNL     1       4.117  31.007  51.567  1.00  0.00     0.254 C 
HETATM   19  H   UNL     1       5.022  29.843  53.071  1.00  0.00     0.280 HD
BRANCH  16  20
HETATM   20  C   UNL     1       2.784  28.965  49.231  1.00  0.00     0.169 C 
HETATM   21  S   UNL     1       2.186  30.279  48.384  1.00  0.00    -0.041 SA
BRANCH  20  22
HETATM   22  N   UNL     1       2.224  27.701  49.210  1.00  0.00    -0.367 N 
HETATM   23  H   UNL     1       2.216  27.258  50.120  1.00  0.00     0.161 HD
BRANCH  22  24
HETATM   24  C   UNL     1       2.280  26.774  48.081  1.00  0.00     0.117 C 
HETATM   25  C   UNL     1       3.438  25.803  48.220  1.00  0.00     0.026 C 
ENDBRANCH  22  24
ENDBRANCH  20  22
ENDBRANCH  16  20
ENDBRANCH  12  13
ENDBRANCH  11  12
ENDBRANCH   9  11
ENDBRANCH   1   8
BRANCH   6  26
HETATM   26  C   UNL     1       8.468  28.915  57.382  1.00  0.00     0.430 C 
HETATM   27  F   UNL     1       8.056  29.017  58.673  1.00  0.00    -0.165 F 
HETATM   28  F   UNL     1       9.818  28.708  57.444  1.00  0.00    -0.165 F 
HETATM   29  F   UNL     1       8.291  30.134  56.814  1.00  0.00    -0.165 F 
ENDBRANCH   6  26
BRANCH   4  30
HETATM   30  C   UNL     1       7.654  24.485  55.389  1.00  0.00     0.192 A 
HETATM   31  S   UNL     1       8.131  23.386  56.602  1.00  0.00    -0.048 SA
HETATM   32  C   UNL     1       8.260  22.135  55.432  1.00  0.00     0.037 A 
HETATM   33  C   UNL     1       7.896  22.647  54.184  1.00  0.00     0.076 A 
HETATM   34  C   UNL     1       8.659  20.799  55.603  1.00  0.00     0.021 A 
HETATM   35  N   UNL     1       7.528  23.987  54.179  1.00  0.00    -0.222 NA
HETATM   36  C   UNL     1       7.938  21.790  53.065  1.00  0.00     0.033 A 
HETATM   37  C   UNL     1       8.341  20.460  53.222  1.00  0.00     0.002 A 
HETATM   38  C   UNL     1       8.696  19.973  54.476  1.00  0.00     0.002 A 
ENDBRANCH   4  30
TORSDOF 9
ENDMDL
MODEL 6
REMARK VINA RESULT:      -8.6      1.666      2.290
REMARK  9 active torsions:
REMARK  status: ('A' for Active; 'I' for Inactive)
REMARK    1  A    between atoms: C_2  and  N_3 
REMARK    2  A    between atoms: N_3  and  C_4 
REMARK    3  A    between atoms: C_4  and  N_5 
REMARK    4  A    between atoms: N_8  and  C_10 
REMARK    5  A    between atoms: C_10  and  C_11 
REMARK    6  A    between atoms: C_11  and  N_12 
REMARK    7  A    between atoms: C_13  and  C_14 
REMARK    8  A    between atoms: N_17  and  C_18 
REMARK    9  A    between atoms: C_28  and  C_29 
ROOT
HETATM    1  C   UNL     1       7.885  29.828  58.026  1.00  0.00     0.085 C 
HETATM    2  C   UNL     1       8.399  28.596  57.340  1.00  0.00     0.278 C 
HETATM    3  O   UNL     1       9.448  28.057  57.650  1.00  0.00    -0.265 OA
HETATM    4  N   UNL     1       7.442  28.245  56.399  1.00  0.00    -0.212 N 
HETATM    5  N   UNL     1       6.411  29.182  56.432  1.00  0.00    -0.189 NA
HETATM    6  C   UNL     1       6.670  30.058  57.485  1.00  0.00     0.130 C 
HETATM    7  H   UNL     1       5.463  28.812  56.329  1.00  0.00     0.153 HD
ENDROOT
BRANCH   1   8
HETATM    8  C   UNL     1       8.600  30.625  59.058  1.00  0.00     0.042 C 
HETATM    9  N   UNL     1       8.336  30.421  60.312  1.00  0.00    -0.292 NA
HETATM   10  C   UNL     1       9.613  31.639  58.555  1.00  0.00     0.071 C 
BRANCH   9  11
HETATM   11  C   UNL     1       9.013  31.248  61.319  1.00  0.00     0.176 C 
BRANCH  11  12
HETATM   12  C   UNL     1       8.080  31.443  62.522  1.00  0.00     0.256 C 
BRANCH  12  13
HETATM   13  N   UNL     1       6.742  32.009  62.089  1.00  0.00    -0.066 N 
HETATM   14  C   UNL     1       5.586  31.584  62.992  1.00  0.00     0.254 C 
HETATM   15  C   UNL     1       4.266  32.232  62.528  1.00  0.00     0.153 C 
HETATM   16  N   UNL     1       4.407  33.694  62.485  1.00  0.00    -0.355 N 
HETATM   17  C   UNL     1       5.473  34.131  61.569  1.00  0.00     0.153 C 
HETATM   18  C   UNL     1       6.835  33.525  61.937  1.00  0.00     0.254 C 
HETATM   19  H   UNL     1       6.569  31.586  61.158  1.00  0.00     0.280 HD
BRANCH  16  20
HETATM   20  C   UNL     1       4.058  34.435  63.629  1.00  0.00     0.169 C 
HETATM   21  S   UNL     1       3.783  36.086  63.634  1.00  0.00    -0.041 SA
BRANCH  20  22
HETATM   22  N   UNL     1       4.000  33.629  64.751  1.00  0.00    -0.367 N 
HETATM   23  H   UNL     1       3.090  33.207  64.887  1.00  0.00     0.161 HD
BRANCH  22  24
HETATM   24  C   UNL     1       4.765  33.840  65.979  1.00  0.00     0.117 C 
HETATM   25  C   UNL     1       6.249  33.976  65.690  1.00  0.00     0.026 C 
ENDBRANCH  22  24
ENDBRANCH  20  22
ENDBRANCH  16  20
ENDBRANCH  12  13
ENDBRANCH  11  12
ENDBRANCH   9  11
ENDBRANCH   1   8
BRANCH   6  26
HETATM   26  C   UNL     1       5.688  31.118  57.896  1.00  0.00     0.430 C 
HETATM   27  F   UNL     1       5.454  31.088  59.234  1.00  0.00    -0.165 F 
HETATM   28  F   UNL     1       6.125  32.386  57.628  1.00  0.00    -0.165 F 
HETATM   29  F   UNL     1       4.485  30.987  57.282  1.00  0.00    -0.165 F 
ENDBRANCH   6  26
BRANCH   4  30
HETATM   30  C   UNL     1       7.496  27.246  55.447  1.00  0.00     0.192 A 
HETATM   31  S   UNL     1       7.514  27.631  53.786  1.00  0.00    -0.048 SA
HETATM   32  C   UNL     1       7.504  25.960  53.388  1.00  0.00     0.037 A 
HETATM   33  C   UNL     1       7.517  25.217  54.570  1.00  0.00     0.076 A 
HETATM   34  C   UNL     1       7.480  25.350  52.123  1.00  0.00     0.021 A 
HETATM   35  N   UNL     1       7.537  25.965  55.740  1.00  0.00    -0.222 NA
HETATM   36  C   UNL     1       7.502  23.809  54.482  1.00  0.00     0.033 A 
HETATM   37  C   UNL     1       7.470  23.191  53.228  1.00  0.00     0.002 A 
HETATM   38  C   UNL     1       7.460  23.954  52.064  1.00  0.00     0.002 A 
ENDBRANCH   4  30
TORSDOF 9
ENDMDL
MODEL 7
REMARK VINA RESULT:      -8.6      3.119     10.781
REMARK  9 active torsions:
REMARK  status: ('A' for Active; 'I' for Inactive)
REMARK    1  A    between atoms: C_2  and  N_3 
REMARK    2  A    between atoms: N_3  and  C_4 
REMARK    3  A    between atoms: C_4  and  N_5 
REMARK    4  A    between atoms: N_8  and  C_10 
REMARK    5  A    between atoms: C_10  and  C_11 
REMARK    6  A    between atoms: C_11  and  N_12 
REMARK    7  A    between atoms: C_13  and  C_14 
REMARK    8  A    between atoms: N_17  and  C_18 
REMARK    9  A    between atoms: C_28  and  C_29 
ROOT
HETATM    1  C   UNL     1       7.102  29.729  57.685  1.00  0.00     0.085 C 
HETATM    2  C   UNL     1       7.746  30.311  58.910  1.00  0.00     0.278 C 
HETATM    3  O   UNL     1       8.881  30.032  59.254  1.00  0.00    -0.265 OA
HETATM    4  N   UNL     1       6.823  31.193  59.454  1.00  0.00    -0.212 N 
HETATM    5  N   UNL     1       5.663  31.165  58.684  1.00  0.00    -0.189 NA
HETATM    6  C   UNL     1       5.907  30.348  57.581  1.00  0.00     0.130 C 
HETATM    7  H   UNL     1       5.203  32.066  58.529  1.00  0.00     0.153 HD
ENDROOT
BRANCH   1   8
HETATM    8  C   UNL     1       7.671  28.672  56.809  1.00  0.00     0.042 C 
HETATM    9  N   UNL     1       7.192  27.467  56.876  1.00  0.00    -0.292 NA
HETATM   10  C   UNL     1       8.793  29.091  55.874  1.00  0.00     0.071 C 
BRANCH   9  11
HETATM   11  C   UNL     1       7.795  26.420  56.040  1.00  0.00     0.176 C 
BRANCH  11  12
HETATM   12  C   UNL     1       6.825  25.236  55.936  1.00  0.00     0.256 C 
BRANCH  12  13
HETATM   13  N   UNL     1       6.563  24.870  54.488  1.00  0.00    -0.066 N 
HETATM   14  C   UNL     1       5.148  25.207  54.026  1.00  0.00     0.254 C 
HETATM   15  C   UNL     1       4.963  24.858  52.535  1.00  0.00     0.153 C 
HETATM   16  N   UNL     1       5.974  25.550  51.724  1.00  0.00    -0.355 N 
HETATM   17  C   UNL     1       7.348  25.190  52.107  1.00  0.00     0.153 C 
HETATM   18  C   UNL     1       7.631  25.486  53.587  1.00  0.00     0.254 C 
HETATM   19  H   UNL     1       6.652  23.837  54.460  1.00  0.00     0.280 HD
BRANCH  16  20
HETATM   20  C   UNL     1       5.656  26.813  51.192  1.00  0.00     0.169 C 
HETATM   21  S   UNL     1       5.482  28.203  52.107  1.00  0.00    -0.041 SA
BRANCH  20  22
HETATM   22  N   UNL     1       5.475  26.751  49.822  1.00  0.00    -0.367 N 
HETATM   23  H   UNL     1       6.278  27.084  49.304  1.00  0.00     0.161 HD
BRANCH  22  24
HETATM   24  C   UNL     1       4.196  26.908  49.133  1.00  0.00     0.117 C 
HETATM   25  C   UNL     1       4.254  26.345  47.725  1.00  0.00     0.026 C 
ENDBRANCH  22  24
ENDBRANCH  20  22
ENDBRANCH  16  20
ENDBRANCH  12  13
ENDBRANCH  11  12
ENDBRANCH   9  11
ENDBRANCH   1   8
BRANCH   6  26
HETATM   26  C   UNL     1       4.911  30.200  56.467  1.00  0.00     0.430 C 
HETATM   27  F   UNL     1       3.973  31.183  56.504  1.00  0.00    -0.165 F 
HETATM   28  F   UNL     1       5.479  30.282  55.226  1.00  0.00    -0.165 F 
HETATM   29  F   UNL     1       4.245  29.018  56.508  1.00  0.00    -0.165 F 
ENDBRANCH   6  26
BRANCH   4  30
HETATM   30  C   UNL     1       6.902  31.898  60.639  1.00  0.00     0.192 A 
HETATM   31  S   UNL     1       7.867  31.329  61.924  1.00  0.00    -0.048 SA
HETATM   32  C   UNL     1       7.352  32.641  62.906  1.00  0.00     0.037 A 
HETATM   33  C   UNL     1       6.488  33.447  62.161  1.00  0.00     0.076 A 
HETATM   34  C   UNL     1       7.682  32.933  64.239  1.00  0.00     0.021 A 
HETATM   35  N   UNL     1       6.259  33.024  60.858  1.00  0.00    -0.222 NA
HETATM   36  C   UNL     1       5.931  34.587  62.777  1.00  0.00     0.033 A 
HETATM   37  C   UNL     1       6.246  34.883  64.107  1.00  0.00     0.002 A 
HETATM   38  C   UNL     1       7.111  34.065  64.827  1.00  0.00     0.002 A 
ENDBRANCH   4  30
TORSDOF 9
ENDMDL
MODEL 8
REMARK VINA RESULT:      -8.4      2.567     11.512
REMARK  9 active torsions:
REMARK  status: ('A' for Active; 'I' for Inactive)
REMARK    1  A    between atoms: C_2  and  N_3 
REMARK    2  A    between atoms: N_3  and  C_4 
REMARK    3  A    between atoms: C_4  and  N_5 
REMARK    4  A    between atoms: N_8  and  C_10 
REMARK    5  A    between atoms: C_10  and  C_11 
REMARK    6  A    between atoms: C_11  and  N_12 
REMARK    7  A    between atoms: C_13  and  C_14 
REMARK    8  A    between atoms: N_17  and  C_18 
REMARK    9  A    between atoms: C_28  and  C_29 
ROOT
HETATM    1  C   UNL     1       6.623  31.988  59.841  1.00  0.00     0.085 C 
HETATM    2  C   UNL     1       5.581  32.497  60.795  1.00  0.00     0.278 C 
HETATM    3  O   UNL     1       4.386  32.394  60.583  1.00  0.00    -0.265 OA
HETATM    4  N   UNL     1       6.269  33.013  61.884  1.00  0.00    -0.212 N 
HETATM    5  N   UNL     1       7.638  32.893  61.652  1.00  0.00    -0.189 NA
HETATM    6  C   UNL     1       7.804  32.187  60.461  1.00  0.00     0.130 C 
HETATM    7  H   UNL     1       8.210  32.628  62.459  1.00  0.00     0.153 HD
ENDROOT
BRANCH   1   8
HETATM    8  C   UNL     1       6.376  31.418  58.490  1.00  0.00     0.042 C 
HETATM    9  N   UNL     1       6.804  30.222  58.219  1.00  0.00    -0.292 NA
HETATM   10  C   UNL     1       5.620  32.296  57.507  1.00  0.00     0.071 C 
BRANCH   9  11
HETATM   11  C   UNL     1       6.597  29.690  56.865  1.00  0.00     0.176 C 
BRANCH  11  12
HETATM   12  C   UNL     1       5.509  28.609  56.910  1.00  0.00     0.256 C 
BRANCH  12  13
HETATM   13  N   UNL     1       6.117  27.228  57.056  1.00  0.00    -0.066 N 
HETATM   14  C   UNL     1       5.322  26.140  56.338  1.00  0.00     0.254 C 
HETATM   15  C   UNL     1       6.018  24.771  56.482  1.00  0.00     0.153 C 
HETATM   16  N   UNL     1       7.398  24.850  55.981  1.00  0.00    -0.355 N 
HETATM   17  C   UNL     1       8.204  25.847  56.703  1.00  0.00     0.153 C 
HETATM   18  C   UNL     1       7.584  27.251  56.634  1.00  0.00     0.254 C 
HETATM   19  H   UNL     1       6.060  27.023  58.071  1.00  0.00     0.280 HD
BRANCH  16  20
HETATM   20  C   UNL     1       7.641  24.531  54.633  1.00  0.00     0.169 C 
HETATM   21  S   UNL     1       7.531  25.627  53.372  1.00  0.00    -0.041 SA
BRANCH  20  22
HETATM   22  N   UNL     1       7.950  23.193  54.480  1.00  0.00    -0.367 N 
HETATM   23  H   UNL     1       8.442  22.809  55.277  1.00  0.00     0.161 HD
BRANCH  22  24
HETATM   24  C   UNL     1       8.243  22.535  53.208  1.00  0.00     0.117 C 
HETATM   25  C   UNL     1       7.917  21.054  53.263  1.00  0.00     0.026 C 
ENDBRANCH  22  24
ENDBRANCH  20  22
ENDBRANCH  16  20
ENDBRANCH  12  13
ENDBRANCH  11  12
ENDBRANCH   9  11
ENDBRANCH   1   8
BRANCH   6  26
HETATM   26  C   UNL     1       9.159  31.759  59.976  1.00  0.00     0.430 C 
HETATM   27  F   UNL     1       9.301  30.407  60.023  1.00  0.00    -0.165 F 
HETATM   28  F   UNL     1       9.398  32.107  58.675  1.00  0.00    -0.165 F 
HETATM   29  F   UNL     1      10.172  32.286  60.708  1.00  0.00    -0.165 F 
ENDBRANCH   6  26
BRANCH   4  30
HETATM   30  C   UNL     1       5.765  33.688  62.979  1.00  0.00     0.192 A 
HETATM   31  S   UNL     1       5.467  35.365  62.902  1.00  0.00    -0.048 SA
HETATM   32  C   UNL     1       4.989  35.366  64.552  1.00  0.00     0.037 A 
HETATM   33  C   UNL     1       5.065  34.061  65.042  1.00  0.00     0.076 A 
HETATM   34  C   UNL     1       4.582  36.443  65.355  1.00  0.00     0.021 A 
HETATM   35  N   UNL     1       5.488  33.107  64.125  1.00  0.00    -0.222 NA
HETATM   36  C   UNL     1       4.725  33.826  66.390  1.00  0.00     0.033 A 
HETATM   37  C   UNL     1       4.325  34.893  67.203  1.00  0.00     0.002 A 
HETATM   38  C   UNL     1       4.255  36.184  66.689  1.00  0.00     0.002 A 
ENDBRANCH   4  30
TORSDOF 9
ENDMDL
MODEL 9
REMARK VINA RESULT:      -8.2      2.566      3.755
REMARK  9 active torsions:
REMARK  status: ('A' for Active; 'I' for Inactive)
REMARK    1  A    between atoms: C_2  and  N_3 
REMARK    2  A    between atoms: N_3  and  C_4 
REMARK    3  A    between atoms: C_4  and  N_5 
REMARK    4  A    between atoms: N_8  and  C_10 
REMARK    5  A    between atoms: C_10  and  C_11 
REMARK    6  A    between atoms: C_11  and  N_12 
REMARK    7  A    between atoms: C_13  and  C_14 
REMARK    8  A    between atoms: N_17  and  C_18 
REMARK    9  A    between atoms: C_28  and  C_29 
ROOT
HETATM    1  C   UNL     1       6.122  30.498  57.690  1.00  0.00     0.085 C 
HETATM    2  C   UNL     1       5.913  29.600  56.505  1.00  0.00     0.278 C 
HETATM    3  O   UNL     1       4.960  29.710  55.754  1.00  0.00    -0.265 OA
HETATM    4  N   UNL     1       7.002  28.740  56.471  1.00  0.00    -0.212 N 
HETATM    5  N   UNL     1       7.831  29.018  57.556  1.00  0.00    -0.189 NA
HETATM    6  C   UNL     1       7.316  30.140  58.205  1.00  0.00     0.130 C 
HETATM    7  H   UNL     1       8.837  28.980  57.375  1.00  0.00     0.153 HD
ENDROOT
BRANCH   1   8
HETATM    8  C   UNL     1       5.178  31.534  58.187  1.00  0.00     0.042 C 
HETATM    9  N   UNL     1       5.612  32.740  58.393  1.00  0.00    -0.292 NA
HETATM   10  C   UNL     1       3.742  31.095  58.416  1.00  0.00     0.071 C 
BRANCH   9  11
HETATM   11  C   UNL     1       4.682  33.742  58.930  1.00  0.00     0.176 C 
BRANCH  11  12
HETATM   12  C   UNL     1       4.404  33.431  60.407  1.00  0.00     0.256 C 
BRANCH  12  13
HETATM   13  N   UNL     1       4.385  34.699  61.238  1.00  0.00    -0.066 N 
HETATM   14  C   UNL     1       3.278  34.716  62.289  1.00  0.00     0.254 C 
HETATM   15  C   UNL     1       3.345  36.006  63.131  1.00  0.00     0.153 C 
HETATM   16  N   UNL     1       4.673  36.142  63.745  1.00  0.00    -0.355 N 
HETATM   17  C   UNL     1       5.754  36.195  62.747  1.00  0.00     0.153 C 
HETATM   18  C   UNL     1       5.764  34.954  61.841  1.00  0.00     0.254 C 
HETATM   19  H   UNL     1       4.169  35.453  60.559  1.00  0.00     0.280 HD
BRANCH  16  20
HETATM   20  C   UNL     1       4.874  35.610  65.032  1.00  0.00     0.169 C 
HETATM   21  S   UNL     1       3.727  35.637  66.251  1.00  0.00    -0.041 SA
BRANCH  20  22
HETATM   22  N   UNL     1       6.148  35.091  65.169  1.00  0.00    -0.367 N 
HETATM   23  H   UNL     1       6.840  35.601  64.635  1.00  0.00     0.161 HD
BRANCH  22  24
HETATM   24  C   UNL     1       6.463  33.680  65.388  1.00  0.00     0.117 C 
HETATM   25  C   UNL     1       7.574  33.213  64.466  1.00  0.00     0.026 C 
ENDBRANCH  22  24
ENDBRANCH  20  22
ENDBRANCH  16  20
ENDBRANCH  12  13
ENDBRANCH  11  12
ENDBRANCH   9  11
ENDBRANCH   1   8
BRANCH   6  26
HETATM   26  C   UNL     1       8.040  30.799  59.343  1.00  0.00     0.430 C 
HETATM   27  F   UNL     1       9.094  30.050  59.764  1.00  0.00    -0.165 F 
HETATM   28  F   UNL     1       8.566  32.017  59.011  1.00  0.00    -0.165 F 
HETATM   29  F   UNL     1       7.246  31.005  60.424  1.00  0.00    -0.165 F 
ENDBRANCH   6  26
BRANCH   4  30
HETATM   30  C   UNL     1       7.223  27.665  55.633  1.00  0.00     0.192 A 
HETATM   31  S   UNL     1       7.575  27.910  53.983  1.00  0.00    -0.048 SA
HETATM   32  C   UNL     1       7.611  26.212  53.728  1.00  0.00     0.037 A 
HETATM   33  C   UNL     1       7.376  25.570  54.945  1.00  0.00     0.076 A 
HETATM   34  C   UNL     1       7.824  25.499  52.537  1.00  0.00     0.021 A 
HETATM   35  N   UNL     1       7.180  26.413  56.032  1.00  0.00    -0.222 NA
HETATM   36  C   UNL     1       7.350  24.160  54.970  1.00  0.00     0.033 A 
HETATM   37  C   UNL     1       7.554  23.440  53.789  1.00  0.00     0.002 A 
HETATM   38  C   UNL     1       7.789  24.103  52.588  1.00  0.00     0.002 A 
ENDBRANCH   4  30
TORSDOF 9
ENDMDL
MODEL 10
REMARK VINA RESULT:      -8.2      2.513      3.186
REMARK  9 active torsions:
REMARK  status: ('A' for Active; 'I' for Inactive)
REMARK    1  A    between atoms: C_2  and  N_3 
REMARK    2  A    between atoms: N_3  and  C_4 
REMARK    3  A    between atoms: C_4  and  N_5 
REMARK    4  A    between atoms: N_8  and  C_10 
REMARK    5  A    between atoms: C_10  and  C_11 
REMARK    6  A    between atoms: C_11  and  N_12 
REMARK    7  A    between atoms: C_13  and  C_14 
REMARK    8  A    between atoms: N_17  and  C_18 
REMARK    9  A    between atoms: C_28  and  C_29 
ROOT
HETATM    1  C   UNL     1       5.371  27.606  54.990  1.00  0.00     0.085 C 
HETATM    2  C   UNL     1       6.036  26.379  55.542  1.00  0.00     0.278 C 
HETATM    3  O   UNL     1       6.342  26.266  56.716  1.00  0.00    -0.265 OA
HETATM    4  N   UNL     1       6.150  25.488  54.484  1.00  0.00    -0.212 N 
HETATM    5  N   UNL     1       5.644  26.088  53.333  1.00  0.00    -0.189 NA
HETATM    6  C   UNL     1       5.101  27.318  53.700  1.00  0.00     0.130 C 
HETATM    7  H   UNL     1       5.101  25.482  52.711  1.00  0.00     0.153 HD
ENDROOT
BRANCH   1   8
HETATM    8  C   UNL     1       5.107  28.871  55.726  1.00  0.00     0.042 C 
HETATM    9  N   UNL     1       6.071  29.728  55.881  1.00  0.00    -0.292 NA
HETATM   10  C   UNL     1       3.695  29.074  56.248  1.00  0.00     0.071 C 
BRANCH   9  11
HETATM   11  C   UNL     1       5.810  30.951  56.651  1.00  0.00     0.176 C 
BRANCH  11  12
HETATM   12  C   UNL     1       6.641  30.922  57.940  1.00  0.00     0.256 C 
BRANCH  12  13
HETATM   13  N   UNL     1       5.786  31.245  59.149  1.00  0.00    -0.066 N 
HETATM   14  C   UNL     1       6.437  32.248  60.099  1.00  0.00     0.254 C 
HETATM   15  C   UNL     1       5.498  32.571  61.278  1.00  0.00     0.153 C 
HETATM   16  N   UNL     1       4.207  33.064  60.777  1.00  0.00    -0.355 N 
HETATM   17  C   UNL     1       3.528  32.087  59.911  1.00  0.00     0.153 C 
HETATM   18  C   UNL     1       4.392  31.684  58.707  1.00  0.00     0.254 C 
HETATM   19  H   UNL     1       5.710  30.348  59.663  1.00  0.00     0.280 HD
BRANCH  16  20
HETATM   20  C   UNL     1       4.039  34.451  60.611  1.00  0.00     0.169 C 
HETATM   21  S   UNL     1       3.761  35.195  59.138  1.00  0.00    -0.041 SA
BRANCH  20  22
HETATM   22  N   UNL     1       4.163  35.120  61.814  1.00  0.00    -0.367 N 
HETATM   23  H   UNL     1       3.451  34.858  62.485  1.00  0.00     0.161 HD
BRANCH  22  24
HETATM   24  C   UNL     1       4.682  36.477  61.974  1.00  0.00     0.117 C 
HETATM   25  C   UNL     1       3.591  37.440  62.405  1.00  0.00     0.026 C 
ENDBRANCH  22  24
ENDBRANCH  20  22
ENDBRANCH  16  20
ENDBRANCH  12  13
ENDBRANCH  11  12
ENDBRANCH   9  11
ENDBRANCH   1   8
BRANCH   6  26
HETATM   26  C   UNL     1       4.347  28.175  52.725  1.00  0.00     0.430 C 
HETATM   27  F   UNL     1       3.050  28.334  53.100  1.00  0.00    -0.165 F 
HETATM   28  F   UNL     1       4.854  29.441  52.618  1.00  0.00    -0.165 F 
HETATM   29  F   UNL     1       4.333  27.659  51.470  1.00  0.00    -0.165 F 
ENDBRANCH   6  26
BRANCH   4  30
HETATM   30  C   UNL     1       6.783  24.261  54.457  1.00  0.00     0.192 A 
HETATM   31  S   UNL     1       7.331  23.601  52.984  1.00  0.00    -0.048 SA
HETATM   32  C   UNL     1       7.852  22.183  53.802  1.00  0.00     0.037 A 
HETATM   33  C   UNL     1       7.592  22.330  55.166  1.00  0.00     0.076 A 
HETATM   34  C   UNL     1       8.443  21.023  53.275  1.00  0.00     0.021 A 
HETATM   35  N   UNL     1       7.002  23.534  55.530  1.00  0.00    -0.222 NA
HETATM   36  C   UNL     1       7.933  21.273  56.035  1.00  0.00     0.033 A 
HETATM   37  C   UNL     1       8.514  20.109  55.521  1.00  0.00     0.002 A 
HETATM   38  C   UNL     1       8.766  19.988  54.158  1.00  0.00     0.002 A 
ENDBRANCH   4  30
TORSDOF 9
ENDMDL
