MODEL 1
REMARK VINA RESULT:     -11.1      0.000      0.000
REMARK  5 active torsions:
REMARK  status: ('A' for Active; 'I' for Inactive)
REMARK    1  A    between atoms: C_2  and  N_3 
REMARK    2  A    between atoms: C_5  and  C_6 
REMARK    3  A    between atoms: C_6  and  C_7 
REMARK       I    between atoms: C_7  and  N_8 
REMARK    4  A    between atoms: N_8  and  C_9 
REMARK    5  A    between atoms: C_16  and  O_17 
ROOT
HETATM    1  C   UNL     1       7.755  29.235  57.730  1.00  0.00     0.224 C 
HETATM    2  N   UNL     1       7.628  29.770  58.982  1.00  0.00    -0.351 N 
HETATM    3  O   UNL     1       7.824  29.947  56.725  1.00  0.00    -0.273 OA
HETATM    4  H   UNL     1       7.643  29.142  59.783  1.00  0.00     0.163 HD
ENDROOT
BRANCH   2   5
HETATM    5  C   UNL     1       7.805  31.191  59.185  1.00  0.00     0.135 C 
HETATM    6  C   UNL     1       7.441  31.538  60.586  1.00  0.00     0.040 A 
HETATM    7  C   UNL     1       8.305  31.950  61.582  1.00  0.00    -0.021 A 
HETATM    8  N   UNL     1       6.165  31.588  61.078  1.00  0.00    -0.357 N 
HETATM    9  C   UNL     1       7.511  32.363  62.688  1.00  0.00     0.002 A 
HETATM   10  C   UNL     1       9.780  32.035  61.384  1.00  0.00     0.042 C 
HETATM   11  C   UNL     1       6.177  32.130  62.346  1.00  0.00     0.043 A 
HETATM   12  C   UNL     1       7.795  32.957  63.934  1.00  0.00     0.051 A 
HETATM   13  C   UNL     1       5.118  32.452  63.201  1.00  0.00     0.033 A 
HETATM   14  C   UNL     1       5.428  33.063  64.425  1.00  0.00     0.039 A 
HETATM   15  C   UNL     1       6.747  33.331  64.784  1.00  0.00     0.069 A 
HETATM   16  C   UNL     1      10.208  31.305  60.097  1.00  0.00     0.007 C 
HETATM   17  C   UNL     1       9.269  31.621  58.915  1.00  0.00     0.032 C 
HETATM   18  H   UNL     1       5.332  31.336  60.564  1.00  0.00     0.166 HD
BRANCH  15  19
HETATM   19  O   UNL     1       7.146  33.945  65.943  1.00  0.00    -0.356 OA
HETATM   20  C   UNL     1       6.124  34.211  66.896  1.00  0.00     0.210 C 
ENDBRANCH  15  19
ENDBRANCH   2   5
BRANCH   1  21
HETATM   21  C   UNL     1       7.885  27.744  57.574  1.00  0.00     0.164 C 
BRANCH  21  22
HETATM   22  C   UNL     1       7.177  26.960  56.492  1.00  0.00     0.075 A 
HETATM   23  N   UNL     1       6.346  27.554  55.691  1.00  0.00    -0.172 NA
HETATM   24  N   UNL     1       5.718  26.828  54.700  1.00  0.00    -0.230 N 
HETATM   25  C   UNL     1       5.982  25.481  54.438  1.00  0.00     0.275 A 
HETATM   26  C   UNL     1       6.886  24.792  55.370  1.00  0.00     0.046 A 
HETATM   27  O   UNL     1       5.506  24.852  53.496  1.00  0.00    -0.266 OA
HETATM   28  C   UNL     1       7.484  25.509  56.397  1.00  0.00     0.006 A 
HETATM   29  C   UNL     1       7.143  23.422  55.220  1.00  0.00     0.018 A 
HETATM   30  C   UNL     1       8.346  24.847  57.287  1.00  0.00     0.014 A 
HETATM   31  C   UNL     1       8.599  23.481  57.139  1.00  0.00     0.001 A 
HETATM   32  C   UNL     1       7.998  22.767  56.106  1.00  0.00     0.001 A 
BRANCH  24  33
HETATM   33  C   UNL     1       4.874  27.577  53.753  1.00  0.00     0.105 C 
HETATM   34  C   UNL     1       5.734  28.216  52.663  1.00  0.00     0.034 C 
HETATM   35  C   UNL     1       3.997  28.618  54.445  1.00  0.00     0.034 C 
ENDBRANCH  24  33
ENDBRANCH  21  22
ENDBRANCH   1  21
TORSDOF 5
ENDMDL
MODEL 2
REMARK VINA RESULT:     -11.0      6.330     10.504
REMARK  5 active torsions:
REMARK  status: ('A' for Active; 'I' for Inactive)
REMARK    1  A    between atoms: C_2  and  N_3 
REMARK    2  A    between atoms: C_5  and  C_6 
REMARK    3  A    between atoms: C_6  and  C_7 
REMARK       I    between atoms: C_7  and  N_8 
REMARK    4  A    between atoms: N_8  and  C_9 
REMARK    5  A    between atoms: C_16  and  O_17 
ROOT
HETATM    1  C   UNL     1       5.977  25.542  51.982  1.00  0.00     0.224 C 
HETATM    2  N   UNL     1       6.020  26.410  50.926  1.00  0.00    -0.351 N 
HETATM    3  O   UNL     1       4.960  25.403  52.667  1.00  0.00    -0.273 OA
HETATM    4  H   UNL     1       6.861  26.437  50.353  1.00  0.00     0.163 HD
ENDROOT
BRANCH   2   5
HETATM    5  C   UNL     1       4.803  27.020  50.439  1.00  0.00     0.135 C 
HETATM    6  C   UNL     1       5.091  28.413  50.001  1.00  0.00     0.040 A 
HETATM    7  C   UNL     1       5.076  28.887  48.704  1.00  0.00    -0.021 A 
HETATM    8  N   UNL     1       5.328  29.468  50.839  1.00  0.00    -0.357 N 
HETATM    9  C   UNL     1       5.207  30.302  48.767  1.00  0.00     0.002 A 
HETATM   10  C   UNL     1       4.825  28.006  47.528  1.00  0.00     0.042 C 
HETATM   11  C   UNL     1       5.360  30.640  50.114  1.00  0.00     0.043 A 
HETATM   12  C   UNL     1       5.167  31.337  47.811  1.00  0.00     0.051 A 
HETATM   13  C   UNL     1       5.488  31.965  50.543  1.00  0.00     0.033 A 
HETATM   14  C   UNL     1       5.421  32.976  49.574  1.00  0.00     0.039 A 
HETATM   15  C   UNL     1       5.244  32.672  48.225  1.00  0.00     0.069 A 
HETATM   16  C   UNL     1       4.928  26.520  47.917  1.00  0.00     0.007 C 
HETATM   17  C   UNL     1       4.210  26.221  49.249  1.00  0.00     0.032 C 
HETATM   18  H   UNL     1       5.396  29.408  51.847  1.00  0.00     0.166 HD
BRANCH  15  19
HETATM   19  O   UNL     1       5.141  33.589  47.211  1.00  0.00    -0.356 OA
HETATM   20  C   UNL     1       5.902  33.318  46.040  1.00  0.00     0.210 C 
ENDBRANCH  15  19
ENDBRANCH   2   5
BRANCH   1  21
HETATM   21  C   UNL     1       7.174  24.678  52.277  1.00  0.00     0.164 C 
BRANCH  21  22
HETATM   22  C   UNL     1       7.537  24.216  53.670  1.00  0.00     0.075 A 
HETATM   23  N   UNL     1       7.496  25.047  54.667  1.00  0.00    -0.172 NA
HETATM   24  N   UNL     1       7.817  24.607  55.935  1.00  0.00    -0.230 N 
HETATM   25  C   UNL     1       8.112  23.277  56.244  1.00  0.00     0.275 A 
HETATM   26  C   UNL     1       8.207  22.342  55.113  1.00  0.00     0.046 A 
HETATM   27  O   UNL     1       8.299  22.854  57.382  1.00  0.00    -0.266 OA
HETATM   28  C   UNL     1       7.929  22.792  53.830  1.00  0.00     0.006 A 
HETATM   29  C   UNL     1       8.572  21.005  55.332  1.00  0.00     0.018 A 
HETATM   30  C   UNL     1       8.022  21.896  52.752  1.00  0.00     0.014 A 
HETATM   31  C   UNL     1       8.390  20.566  52.970  1.00  0.00     0.001 A 
HETATM   32  C   UNL     1       8.665  20.119  54.259  1.00  0.00     0.001 A 
BRANCH  24  33
HETATM   33  C   UNL     1       7.642  25.563  57.041  1.00  0.00     0.105 C 
HETATM   34  C   UNL     1       6.164  25.696  57.403  1.00  0.00     0.034 C 
HETATM   35  C   UNL     1       8.261  26.927  56.740  1.00  0.00     0.034 C 
ENDBRANCH  24  33
ENDBRANCH  21  22
ENDBRANCH   1  21
TORSDOF 5
ENDMDL
MODEL 3
REMARK VINA RESULT:     -10.7      5.638     11.376
REMARK  5 active torsions:
REMARK  status: ('A' for Active; 'I' for Inactive)
REMARK    1  A    between atoms: C_2  and  N_3 
REMARK    2  A    between atoms: C_5  and  C_6 
REMARK    3  A    between atoms: C_6  and  C_7 
REMARK       I    between atoms: C_7  and  N_8 
REMARK    4  A    between atoms: N_8  and  C_9 
REMARK    5  A    between atoms: C_16  and  O_17 
ROOT
HETATM    1  C   UNL     1       5.619  25.624  51.926  1.00  0.00     0.224 C 
HETATM    2  N   UNL     1       4.620  26.423  51.441  1.00  0.00    -0.351 N 
HETATM    3  O   UNL     1       6.716  25.546  51.367  1.00  0.00    -0.273 OA
HETATM    4  H   UNL     1       3.758  26.503  51.977  1.00  0.00     0.163 HD
ENDROOT
BRANCH   2   5
HETATM    5  C   UNL     1       4.899  27.376  50.391  1.00  0.00     0.135 C 
HETATM    6  C   UNL     1       3.670  27.590  49.579  1.00  0.00     0.040 A 
HETATM    7  C   UNL     1       2.909  28.741  49.527  1.00  0.00    -0.021 A 
HETATM    8  N   UNL     1       3.155  26.695  48.682  1.00  0.00    -0.357 N 
HETATM    9  C   UNL     1       1.958  28.574  48.483  1.00  0.00     0.002 A 
HETATM   10  C   UNL     1       3.200  29.938  50.367  1.00  0.00     0.042 C 
HETATM   11  C   UNL     1       2.136  27.288  47.967  1.00  0.00     0.043 A 
HETATM   12  C   UNL     1       0.989  29.410  47.893  1.00  0.00     0.051 A 
HETATM   13  C   UNL     1       1.377  26.798  46.899  1.00  0.00     0.033 A 
HETATM   14  C   UNL     1       0.437  27.659  46.316  1.00  0.00     0.039 A 
HETATM   15  C   UNL     1       0.253  28.957  46.791  1.00  0.00     0.069 A 
HETATM   16  C   UNL     1       4.201  29.598  51.487  1.00  0.00     0.007 C 
HETATM   17  C   UNL     1       5.371  28.734  50.973  1.00  0.00     0.032 C 
HETATM   18  H   UNL     1       3.516  25.765  48.513  1.00  0.00     0.166 HD
BRANCH  15  19
HETATM   19  O   UNL     1      -0.621  29.876  46.272  1.00  0.00    -0.356 OA
HETATM   20  C   UNL     1      -1.929  29.402  45.978  1.00  0.00     0.210 C 
ENDBRANCH  15  19
ENDBRANCH   2   5
BRANCH   1  21
HETATM   21  C   UNL     1       5.405  24.873  53.213  1.00  0.00     0.164 C 
BRANCH  21  22
HETATM   22  C   UNL     1       6.442  24.803  54.312  1.00  0.00     0.075 A 
HETATM   23  N   UNL     1       6.506  25.736  55.212  1.00  0.00    -0.172 NA
HETATM   24  N   UNL     1       7.448  25.651  56.216  1.00  0.00    -0.230 N 
HETATM   25  C   UNL     1       8.307  24.562  56.384  1.00  0.00     0.275 A 
HETATM   26  C   UNL     1       8.271  23.525  55.342  1.00  0.00     0.046 A 
HETATM   27  O   UNL     1       9.079  24.427  57.331  1.00  0.00    -0.266 OA
HETATM   28  C   UNL     1       7.356  23.632  54.305  1.00  0.00     0.006 A 
HETATM   29  C   UNL     1       9.155  22.438  55.399  1.00  0.00     0.018 A 
HETATM   30  C   UNL     1       7.326  22.640  53.310  1.00  0.00     0.014 A 
HETATM   31  C   UNL     1       8.209  21.559  53.365  1.00  0.00     0.001 A 
HETATM   32  C   UNL     1       9.124  21.457  54.409  1.00  0.00     0.001 A 
BRANCH  24  33
HETATM   33  C   UNL     1       7.399  26.678  57.271  1.00  0.00     0.105 C 
HETATM   34  C   UNL     1       6.015  27.324  57.322  1.00  0.00     0.034 C 
HETATM   35  C   UNL     1       8.494  27.731  57.116  1.00  0.00     0.034 C 
ENDBRANCH  24  33
ENDBRANCH  21  22
ENDBRANCH   1  21
TORSDOF 5
ENDMDL
MODEL 4
REMARK VINA RESULT:     -10.5      2.172      9.708
REMARK  5 active torsions:
REMARK  status: ('A' for Active; 'I' for Inactive)
REMARK    1  A    between atoms: C_2  and  N_3 
REMARK    2  A    between atoms: C_5  and  C_6 
REMARK    3  A    between atoms: C_6  and  C_7 
REMARK       I    between atoms: C_7  and  N_8 
REMARK    4  A    between atoms: N_8  and  C_9 
REMARK    5  A    between atoms: C_16  and  O_17 
ROOT
HETATM    1  C   UNL     1       7.931  32.091  60.254  1.00  0.00     0.224 C 
HETATM    2  N   UNL     1       7.086  31.213  59.632  1.00  0.00    -0.351 N 
HETATM    3  O   UNL     1       8.868  32.623  59.655  1.00  0.00    -0.273 OA
HETATM    4  H   UNL     1       6.289  30.853  60.153  1.00  0.00     0.163 HD
ENDROOT
BRANCH   2   5
HETATM    5  C   UNL     1       7.128  31.061  58.195  1.00  0.00     0.135 C 
HETATM    6  C   UNL     1       7.066  29.614  57.850  1.00  0.00     0.040 A 
HETATM    7  C   UNL     1       6.018  28.959  57.236  1.00  0.00    -0.021 A 
HETATM    8  N   UNL     1       8.092  28.723  58.012  1.00  0.00    -0.357 N 
HETATM    9  C   UNL     1       6.464  27.646  56.920  1.00  0.00     0.002 A 
HETATM   10  C   UNL     1       4.736  29.638  56.889  1.00  0.00     0.042 C 
HETATM   11  C   UNL     1       7.765  27.525  57.412  1.00  0.00     0.043 A 
HETATM   12  C   UNL     1       5.902  26.558  56.221  1.00  0.00     0.051 A 
HETATM   13  C   UNL     1       8.522  26.360  57.249  1.00  0.00     0.033 A 
HETATM   14  C   UNL     1       7.948  25.302  56.530  1.00  0.00     0.039 A 
HETATM   15  C   UNL     1       6.661  25.401  56.004  1.00  0.00     0.069 A 
HETATM   16  C   UNL     1       4.627  31.004  57.592  1.00  0.00     0.007 C 
HETATM   17  C   UNL     1       5.946  31.799  57.516  1.00  0.00     0.032 C 
HETATM   18  H   UNL     1       8.984  28.932  58.439  1.00  0.00     0.166 HD
BRANCH  15  19
HETATM   19  O   UNL     1       6.027  24.434  55.268  1.00  0.00    -0.356 OA
HETATM   20  C   UNL     1       5.927  24.673  53.870  1.00  0.00     0.210 C 
ENDBRANCH  15  19
ENDBRANCH   2   5
BRANCH   1  21
HETATM   21  C   UNL     1       7.672  32.476  61.686  1.00  0.00     0.164 C 
BRANCH  21  22
HETATM   22  C   UNL     1       6.315  32.907  62.194  1.00  0.00     0.075 A 
HETATM   23  N   UNL     1       5.284  32.893  61.404  1.00  0.00    -0.172 NA
HETATM   24  N   UNL     1       4.050  33.276  61.887  1.00  0.00    -0.230 N 
HETATM   25  C   UNL     1       3.807  33.608  63.222  1.00  0.00     0.275 A 
HETATM   26  C   UNL     1       4.977  33.670  64.110  1.00  0.00     0.046 A 
HETATM   27  O   UNL     1       2.695  33.851  63.685  1.00  0.00    -0.266 OA
HETATM   28  C   UNL     1       6.229  33.331  63.616  1.00  0.00     0.006 A 
HETATM   29  C   UNL     1       4.827  34.069  65.446  1.00  0.00     0.018 A 
HETATM   30  C   UNL     1       7.344  33.393  64.467  1.00  0.00     0.014 A 
HETATM   31  C   UNL     1       7.195  33.794  65.798  1.00  0.00     0.001 A 
HETATM   32  C   UNL     1       5.937  34.132  66.288  1.00  0.00     0.001 A 
BRANCH  24  33
HETATM   33  C   UNL     1       2.901  33.132  60.977  1.00  0.00     0.105 C 
HETATM   34  C   UNL     1       2.904  31.749  60.327  1.00  0.00     0.034 C 
HETATM   35  C   UNL     1       2.845  34.236  59.923  1.00  0.00     0.034 C 
ENDBRANCH  24  33
ENDBRANCH  21  22
ENDBRANCH   1  21
TORSDOF 5
ENDMDL
MODEL 5
REMARK VINA RESULT:     -10.3      5.893     11.496
REMARK  5 active torsions:
REMARK  status: ('A' for Active; 'I' for Inactive)
REMARK    1  A    between atoms: C_2  and  N_3 
REMARK    2  A    between atoms: C_5  and  C_6 
REMARK    3  A    between atoms: C_6  and  C_7 
REMARK       I    between atoms: C_7  and  N_8 
REMARK    4  A    between atoms: N_8  and  C_9 
REMARK    5  A    between atoms: C_16  and  O_17 
ROOT
HETATM    1  C   UNL     1       5.391  25.681  52.110  1.00  0.00     0.224 C 
HETATM    2  N   UNL     1       4.487  26.557  51.577  1.00  0.00    -0.351 N 
HETATM    3  O   UNL     1       6.461  25.432  51.550  1.00  0.00    -0.273 OA
HETATM    4  H   UNL     1       3.650  26.778  52.112  1.00  0.00     0.163 HD
ENDROOT
BRANCH   2   5
HETATM    5  C   UNL     1       4.860  27.393  50.458  1.00  0.00     0.135 C 
HETATM    6  C   UNL     1       3.660  27.661  49.620  1.00  0.00     0.040 A 
HETATM    7  C   UNL     1       3.015  28.873  49.470  1.00  0.00    -0.021 A 
HETATM    8  N   UNL     1       3.062  26.753  48.790  1.00  0.00    -0.357 N 
HETATM    9  C   UNL     1       2.055  28.717  48.432  1.00  0.00     0.002 A 
HETATM   10  C   UNL     1       3.421  30.098  50.216  1.00  0.00     0.042 C 
HETATM   11  C   UNL     1       2.107  27.384  48.021  1.00  0.00     0.043 A 
HETATM   12  C   UNL     1       1.173  29.595  47.769  1.00  0.00     0.051 A 
HETATM   13  C   UNL     1       1.306  26.887  46.987  1.00  0.00     0.033 A 
HETATM   14  C   UNL     1       0.455  27.787  46.329  1.00  0.00     0.039 A 
HETATM   15  C   UNL     1       0.399  29.130  46.699  1.00  0.00     0.069 A 
HETATM   16  C   UNL     1       4.381  29.751  51.369  1.00  0.00     0.007 C 
HETATM   17  C   UNL     1       5.462  28.740  50.936  1.00  0.00     0.032 C 
HETATM   18  H   UNL     1       3.330  25.781  48.698  1.00  0.00     0.166 HD
BRANCH  15  19
HETATM   19  O   UNL     1      -0.379  30.086  46.101  1.00  0.00    -0.356 OA
HETATM   20  C   UNL     1       0.236  31.350  45.881  1.00  0.00     0.210 C 
ENDBRANCH  15  19
ENDBRANCH   2   5
BRANCH   1  21
HETATM   21  C   UNL     1       5.110  25.055  53.450  1.00  0.00     0.164 C 
BRANCH  21  22
HETATM   22  C   UNL     1       6.194  24.719  54.449  1.00  0.00     0.075 A 
HETATM   23  N   UNL     1       6.820  23.583  54.380  1.00  0.00    -0.172 NA
HETATM   24  N   UNL     1       7.815  23.296  55.291  1.00  0.00    -0.230 N 
HETATM   25  C   UNL     1       8.267  24.198  56.257  1.00  0.00     0.275 A 
HETATM   26  C   UNL     1       7.533  25.467  56.371  1.00  0.00     0.046 A 
HETATM   27  O   UNL     1       9.220  23.994  57.005  1.00  0.00    -0.266 OA
HETATM   28  C   UNL     1       6.499  25.739  55.486  1.00  0.00     0.006 A 
HETATM   29  C   UNL     1       7.877  26.394  57.365  1.00  0.00     0.018 A 
HETATM   30  C   UNL     1       5.799  26.952  55.598  1.00  0.00     0.014 A 
HETATM   31  C   UNL     1       6.139  27.873  56.592  1.00  0.00     0.001 A 
HETATM   32  C   UNL     1       7.178  27.596  57.476  1.00  0.00     0.001 A 
BRANCH  24  33
HETATM   33  C   UNL     1       8.564  22.044  55.093  1.00  0.00     0.105 C 
HETATM   34  C   UNL     1       8.713  21.740  53.603  1.00  0.00     0.034 C 
HETATM   35  C   UNL     1       7.941  20.864  55.836  1.00  0.00     0.034 C 
ENDBRANCH  24  33
ENDBRANCH  21  22
ENDBRANCH   1  21
TORSDOF 5
ENDMDL
MODEL 6
REMARK VINA RESULT:     -10.0      1.513      1.709
REMARK  5 active torsions:
REMARK  status: ('A' for Active; 'I' for Inactive)
REMARK    1  A    between atoms: C_2  and  N_3 
REMARK    2  A    between atoms: C_5  and  C_6 
REMARK    3  A    between atoms: C_6  and  C_7 
REMARK       I    between atoms: C_7  and  N_8 
REMARK    4  A    between atoms: N_8  and  C_9 
REMARK    5  A    between atoms: C_16  and  O_17 
ROOT
HETATM    1  C   UNL     1       5.729  29.010  57.379  1.00  0.00     0.224 C 
HETATM    2  N   UNL     1       6.877  29.316  58.056  1.00  0.00    -0.351 N 
HETATM    3  O   UNL     1       4.969  29.887  56.960  1.00  0.00    -0.273 OA
HETATM    4  H   UNL     1       7.502  28.558  58.321  1.00  0.00     0.163 HD
ENDROOT
BRANCH   2   5
HETATM    5  C   UNL     1       7.352  30.681  58.098  1.00  0.00     0.135 C 
HETATM    6  C   UNL     1       6.886  31.327  59.355  1.00  0.00     0.040 A 
HETATM    7  C   UNL     1       7.673  31.709  60.424  1.00  0.00    -0.021 A 
HETATM    8  N   UNL     1       5.602  31.726  59.605  1.00  0.00    -0.357 N 
HETATM    9  C   UNL     1       6.852  32.460  61.309  1.00  0.00     0.002 A 
HETATM   10  C   UNL     1       9.140  31.447  60.478  1.00  0.00     0.042 C 
HETATM   11  C   UNL     1       5.562  32.459  60.773  1.00  0.00     0.043 A 
HETATM   12  C   UNL     1       7.089  33.181  62.497  1.00  0.00     0.051 A 
HETATM   13  C   UNL     1       4.499  33.136  61.380  1.00  0.00     0.033 A 
HETATM   14  C   UNL     1       4.767  33.864  62.547  1.00  0.00     0.039 A 
HETATM   15  C   UNL     1       6.049  33.905  63.094  1.00  0.00     0.069 A 
HETATM   16  C   UNL     1       9.562  30.438  59.394  1.00  0.00     0.007 C 
HETATM   17  C   UNL     1       8.900  30.742  58.034  1.00  0.00     0.032 C 
HETATM   18  H   UNL     1       4.814  31.573  58.991  1.00  0.00     0.166 HD
BRANCH  15  19
HETATM   19  O   UNL     1       6.413  34.607  64.213  1.00  0.00    -0.356 OA
HETATM   20  C   UNL     1       7.251  33.924  65.137  1.00  0.00     0.210 C 
ENDBRANCH  15  19
ENDBRANCH   2   5
BRANCH   1  21
HETATM   21  C   UNL     1       5.414  27.571  57.072  1.00  0.00     0.164 C 
BRANCH  21  22
HETATM   22  C   UNL     1       5.470  26.991  55.676  1.00  0.00     0.075 A 
HETATM   23  N   UNL     1       4.934  27.630  54.680  1.00  0.00    -0.172 NA
HETATM   24  N   UNL     1       5.004  27.095  53.411  1.00  0.00    -0.230 N 
HETATM   25  C   UNL     1       5.700  25.924  53.099  1.00  0.00     0.275 A 
HETATM   26  C   UNL     1       6.269  25.173  54.228  1.00  0.00     0.046 A 
HETATM   27  O   UNL     1       5.857  25.493  51.959  1.00  0.00    -0.266 OA
HETATM   28  C   UNL     1       6.159  25.685  55.513  1.00  0.00     0.006 A 
HETATM   29  C   UNL     1       6.918  23.950  54.005  1.00  0.00     0.018 A 
HETATM   30  C   UNL     1       6.702  24.964  56.589  1.00  0.00     0.014 A 
HETATM   31  C   UNL     1       7.345  23.743  56.367  1.00  0.00     0.001 A 
HETATM   32  C   UNL     1       7.453  23.235  55.076  1.00  0.00     0.001 A 
BRANCH  24  33
HETATM   33  C   UNL     1       4.480  27.917  52.307  1.00  0.00     0.105 C 
HETATM   34  C   UNL     1       5.552  28.883  51.805  1.00  0.00     0.034 C 
HETATM   35  C   UNL     1       3.201  28.661  52.686  1.00  0.00     0.034 C 
ENDBRANCH  24  33
ENDBRANCH  21  22
ENDBRANCH   1  21
TORSDOF 5
ENDMDL
MODEL 7
REMARK VINA RESULT:      -9.9      1.687      2.294
REMARK  5 active torsions:
REMARK  status: ('A' for Active; 'I' for Inactive)
REMARK    1  A    between atoms: C_2  and  N_3 
REMARK    2  A    between atoms: C_5  and  C_6 
REMARK    3  A    between atoms: C_6  and  C_7 
REMARK       I    between atoms: C_7  and  N_8 
REMARK    4  A    between atoms: N_8  and  C_9 
REMARK    5  A    between atoms: C_16  and  O_17 
ROOT
HETATM    1  C   UNL     1       8.221  30.085  58.331  1.00  0.00     0.224 C 
HETATM    2  N   UNL     1       7.409  30.695  59.247  1.00  0.00    -0.351 N 
HETATM    3  O   UNL     1       9.279  30.598  57.959  1.00  0.00    -0.273 OA
HETATM    4  H   UNL     1       6.581  30.199  59.570  1.00  0.00     0.163 HD
ENDROOT
BRANCH   2   5
HETATM    5  C   UNL     1       7.881  31.850  59.978  1.00  0.00     0.135 C 
HETATM    6  C   UNL     1       6.866  32.238  60.996  1.00  0.00     0.040 A 
HETATM    7  C   UNL     1       6.993  32.131  62.367  1.00  0.00    -0.021 A 
HETATM    8  N   UNL     1       5.673  32.851  60.723  1.00  0.00    -0.357 N 
HETATM    9  C   UNL     1       5.880  32.798  62.949  1.00  0.00     0.002 A 
HETATM   10  C   UNL     1       8.188  31.525  63.019  1.00  0.00     0.042 C 
HETATM   11  C   UNL     1       5.073  33.243  61.900  1.00  0.00     0.043 A 
HETATM   12  C   UNL     1       5.502  33.108  64.271  1.00  0.00     0.051 A 
HETATM   13  C   UNL     1       3.897  33.970  62.117  1.00  0.00     0.033 A 
HETATM   14  C   UNL     1       3.557  34.284  63.440  1.00  0.00     0.039 A 
HETATM   15  C   UNL     1       4.356  33.877  64.507  1.00  0.00     0.069 A 
HETATM   16  C   UNL     1       9.051  30.762  61.996  1.00  0.00     0.007 C 
HETATM   17  C   UNL     1       9.229  31.557  60.686  1.00  0.00     0.032 C 
HETATM   18  H   UNL     1       5.321  33.054  59.797  1.00  0.00     0.166 HD
BRANCH  15  19
HETATM   19  O   UNL     1       4.120  34.157  65.828  1.00  0.00    -0.356 OA
HETATM   20  C   UNL     1       5.261  34.193  66.676  1.00  0.00     0.210 C 
ENDBRANCH  15  19
ENDBRANCH   2   5
BRANCH   1  21
HETATM   21  C   UNL     1       7.854  28.719  57.814  1.00  0.00     0.164 C 
BRANCH  21  22
HETATM   22  C   UNL     1       6.725  28.480  56.838  1.00  0.00     0.075 A 
HETATM   23  N   UNL     1       5.823  29.394  56.643  1.00  0.00    -0.172 NA
HETATM   24  N   UNL     1       4.806  29.166  55.739  1.00  0.00    -0.230 N 
HETATM   25  C   UNL     1       4.722  28.026  54.936  1.00  0.00     0.275 A 
HETATM   26  C   UNL     1       5.713  26.968  55.184  1.00  0.00     0.046 A 
HETATM   27  O   UNL     1       3.880  27.857  54.056  1.00  0.00    -0.266 OA
HETATM   28  C   UNL     1       6.710  27.175  56.127  1.00  0.00     0.006 A 
HETATM   29  C   UNL     1       5.650  25.762  54.472  1.00  0.00     0.018 A 
HETATM   30  C   UNL     1       7.654  26.162  56.363  1.00  0.00     0.014 A 
HETATM   31  C   UNL     1       7.589  24.959  55.656  1.00  0.00     0.001 A 
HETATM   32  C   UNL     1       6.587  24.758  54.710  1.00  0.00     0.001 A 
BRANCH  24  33
HETATM   33  C   UNL     1       3.879  30.280  55.478  1.00  0.00     0.105 C 
HETATM   34  C   UNL     1       4.650  31.525  55.040  1.00  0.00     0.034 C 
HETATM   35  C   UNL     1       2.975  30.583  56.672  1.00  0.00     0.034 C 
ENDBRANCH  24  33
ENDBRANCH  21  22
ENDBRANCH   1  21
TORSDOF 5
ENDMDL
MODEL 8
REMARK VINA RESULT:      -9.8      2.686      3.508
REMARK  5 active torsions:
REMARK  status: ('A' for Active; 'I' for Inactive)
REMARK    1  A    between atoms: C_2  and  N_3 
REMARK    2  A    between atoms: C_5  and  C_6 
REMARK    3  A    between atoms: C_6  and  C_7 
REMARK       I    between atoms: C_7  and  N_8 
REMARK    4  A    between atoms: N_8  and  C_9 
REMARK    5  A    between atoms: C_16  and  O_17 
ROOT
HETATM    1  C   UNL     1       5.995  31.488  58.671  1.00  0.00     0.224 C 
HETATM    2  N   UNL     1       6.171  31.575  60.024  1.00  0.00    -0.351 N 
HETATM    3  O   UNL     1       6.124  32.471  57.935  1.00  0.00    -0.273 OA
HETATM    4  H   UNL     1       6.120  30.722  60.576  1.00  0.00     0.163 HD
ENDROOT
BRANCH   2   5
HETATM    5  C   UNL     1       6.741  32.769  60.606  1.00  0.00     0.135 C 
HETATM    6  C   UNL     1       6.113  33.019  61.932  1.00  0.00     0.040 A 
HETATM    7  C   UNL     1       6.727  32.913  63.165  1.00  0.00    -0.021 A 
HETATM    8  N   UNL     1       4.842  33.485  62.126  1.00  0.00    -0.357 N 
HETATM    9  C   UNL     1       5.825  33.433  64.134  1.00  0.00     0.002 A 
HETATM   10  C   UNL     1       8.134  32.449  63.326  1.00  0.00     0.042 C 
HETATM   11  C   UNL     1       4.655  33.787  63.458  1.00  0.00     0.043 A 
HETATM   12  C   UNL     1       5.906  33.679  65.520  1.00  0.00     0.051 A 
HETATM   13  C   UNL     1       3.560  34.363  64.110  1.00  0.00     0.033 A 
HETATM   14  C   UNL     1       3.675  34.618  65.483  1.00  0.00     0.039 A 
HETATM   15  C   UNL     1       4.839  34.299  66.181  1.00  0.00     0.069 A 
HETATM   16  C   UNL     1       8.659  31.809  62.027  1.00  0.00     0.007 C 
HETATM   17  C   UNL     1       8.275  32.635  60.782  1.00  0.00     0.032 C 
HETATM   18  H   UNL     1       4.165  33.654  61.393  1.00  0.00     0.166 HD
BRANCH  15  19
HETATM   19  O   UNL     1       5.054  34.533  67.515  1.00  0.00    -0.356 OA
HETATM   20  C   UNL     1       6.406  34.471  67.953  1.00  0.00     0.210 C 
ENDBRANCH  15  19
ENDBRANCH   2   5
BRANCH   1  21
HETATM   21  C   UNL     1       5.707  30.148  58.048  1.00  0.00     0.164 C 
BRANCH  21  22
HETATM   22  C   UNL     1       6.506  29.583  56.895  1.00  0.00     0.075 A 
HETATM   23  N   UNL     1       5.901  29.025  55.890  1.00  0.00    -0.172 NA
HETATM   24  N   UNL     1       6.643  28.525  54.840  1.00  0.00    -0.230 N 
HETATM   25  C   UNL     1       8.031  28.653  54.740  1.00  0.00     0.275 A 
HETATM   26  C   UNL     1       8.725  29.242  55.894  1.00  0.00     0.046 A 
HETATM   27  O   UNL     1       8.691  28.305  53.764  1.00  0.00    -0.266 OA
HETATM   28  C   UNL     1       7.985  29.703  56.974  1.00  0.00     0.006 A 
HETATM   29  C   UNL     1      10.124  29.336  55.902  1.00  0.00     0.018 A 
HETATM   30  C   UNL     1       8.652  30.263  58.076  1.00  0.00     0.014 A 
HETATM   31  C   UNL     1      10.046  30.353  58.085  1.00  0.00     0.001 A 
HETATM   32  C   UNL     1      10.784  29.891  56.999  1.00  0.00     0.001 A 
BRANCH  24  33
HETATM   33  C   UNL     1       5.899  28.008  53.680  1.00  0.00     0.105 C 
HETATM   34  C   UNL     1       5.792  29.077  52.594  1.00  0.00     0.034 C 
HETATM   35  C   UNL     1       4.521  27.468  54.060  1.00  0.00     0.034 C 
ENDBRANCH  24  33
ENDBRANCH  21  22
ENDBRANCH   1  21
TORSDOF 5
ENDMDL
MODEL 9
REMARK VINA RESULT:      -9.8      1.961      9.939
REMARK  5 active torsions:
REMARK  status: ('A' for Active; 'I' for Inactive)
REMARK    1  A    between atoms: C_2  and  N_3 
REMARK    2  A    between atoms: C_5  and  C_6 
REMARK    3  A    between atoms: C_6  and  C_7 
REMARK       I    between atoms: C_7  and  N_8 
REMARK    4  A    between atoms: N_8  and  C_9 
REMARK    5  A    between atoms: C_16  and  O_17 
ROOT
HETATM    1  C   UNL     1       5.347  32.482  58.569  1.00  0.00     0.224 C 
HETATM    2  N   UNL     1       5.584  31.158  58.320  1.00  0.00    -0.351 N 
HETATM    3  O   UNL     1       5.549  33.349  57.715  1.00  0.00    -0.273 OA
HETATM    4  H   UNL     1       5.337  30.477  59.035  1.00  0.00     0.163 HD
ENDROOT
BRANCH   2   5
HETATM    5  C   UNL     1       5.859  30.712  56.973  1.00  0.00     0.135 C 
HETATM    6  C   UNL     1       6.175  29.257  56.990  1.00  0.00     0.040 A 
HETATM    7  C   UNL     1       5.399  28.240  56.471  1.00  0.00    -0.021 A 
HETATM    8  N   UNL     1       7.343  28.712  57.450  1.00  0.00    -0.357 N 
HETATM    9  C   UNL     1       6.170  27.047  56.526  1.00  0.00     0.002 A 
HETATM   10  C   UNL     1       4.058  28.481  55.865  1.00  0.00     0.042 C 
HETATM   11  C   UNL     1       7.383  27.370  57.138  1.00  0.00     0.043 A 
HETATM   12  C   UNL     1       5.973  25.727  56.072  1.00  0.00     0.051 A 
HETATM   13  C   UNL     1       8.399  26.427  57.329  1.00  0.00     0.033 A 
HETATM   14  C   UNL     1       8.186  25.128  56.847  1.00  0.00     0.039 A 
HETATM   15  C   UNL     1       6.996  24.781  56.209  1.00  0.00     0.069 A 
HETATM   16  C   UNL     1       3.545  29.894  56.198  1.00  0.00     0.007 C 
HETATM   17  C   UNL     1       4.648  30.961  56.038  1.00  0.00     0.032 C 
HETATM   18  H   UNL     1       8.096  29.228  57.885  1.00  0.00     0.166 HD
BRANCH  15  19
HETATM   19  O   UNL     1       6.707  23.548  55.684  1.00  0.00    -0.356 OA
HETATM   20  C   UNL     1       7.805  22.659  55.526  1.00  0.00     0.210 C 
ENDBRANCH  15  19
ENDBRANCH   2   5
BRANCH   1  21
HETATM   21  C   UNL     1       4.756  32.890  59.892  1.00  0.00     0.164 C 
BRANCH  21  22
HETATM   22  C   UNL     1       5.517  32.815  61.197  1.00  0.00     0.075 A 
HETATM   23  N   UNL     1       6.713  32.309  61.229  1.00  0.00    -0.172 NA
HETATM   24  N   UNL     1       7.400  32.260  62.424  1.00  0.00    -0.230 N 
HETATM   25  C   UNL     1       6.921  32.804  63.618  1.00  0.00     0.275 A 
HETATM   26  C   UNL     1       5.550  33.336  63.599  1.00  0.00     0.046 A 
HETATM   27  O   UNL     1       7.565  32.858  64.664  1.00  0.00    -0.266 OA
HETATM   28  C   UNL     1       4.838  33.344  62.407  1.00  0.00     0.006 A 
HETATM   29  C   UNL     1       4.970  33.831  64.775  1.00  0.00     0.018 A 
HETATM   30  C   UNL     1       3.529  33.852  62.393  1.00  0.00     0.014 A 
HETATM   31  C   UNL     1       2.949  34.341  63.566  1.00  0.00     0.001 A 
HETATM   32  C   UNL     1       3.668  34.332  64.758  1.00  0.00     0.001 A 
BRANCH  24  33
HETATM   33  C   UNL     1       8.792  31.781  62.378  1.00  0.00     0.105 C 
HETATM   34  C   UNL     1       9.457  32.198  61.067  1.00  0.00     0.034 C 
HETATM   35  C   UNL     1       8.901  30.273  62.596  1.00  0.00     0.034 C 
ENDBRANCH  24  33
ENDBRANCH  21  22
ENDBRANCH   1  21
TORSDOF 5
ENDMDL
MODEL 10
REMARK VINA RESULT:      -9.6      2.671     10.114
REMARK  5 active torsions:
REMARK  status: ('A' for Active; 'I' for Inactive)
REMARK    1  A    between atoms: C_2  and  N_3 
REMARK    2  A    between atoms: C_5  and  C_6 
REMARK    3  A    between atoms: C_6  and  C_7 
REMARK       I    between atoms: C_7  and  N_8 
REMARK    4  A    between atoms: N_8  and  C_9 
REMARK    5  A    between atoms: C_16  and  O_17 
ROOT
HETATM    1  C   UNL     1       5.691  31.764  58.912  1.00  0.00     0.224 C 
HETATM    2  N   UNL     1       5.466  30.561  58.304  1.00  0.00    -0.351 N 
HETATM    3  O   UNL     1       6.592  32.521  58.541  1.00  0.00    -0.273 OA
HETATM    4  H   UNL     1       4.668  30.005  58.605  1.00  0.00     0.163 HD
ENDROOT
BRANCH   2   5
HETATM    5  C   UNL     1       6.129  30.242  57.059  1.00  0.00     0.135 C 
HETATM    6  C   UNL     1       6.349  28.772  56.980  1.00  0.00     0.040 A 
HETATM    7  C   UNL     1       5.725  27.892  56.117  1.00  0.00    -0.021 A 
HETATM    8  N   UNL     1       7.283  28.077  57.698  1.00  0.00    -0.357 N 
HETATM    9  C   UNL     1       6.378  26.635  56.247  1.00  0.00     0.002 A 
HETATM   10  C   UNL     1       4.658  28.318  55.166  1.00  0.00     0.042 C 
HETATM   11  C   UNL     1       7.350  26.779  57.239  1.00  0.00     0.043 A 
HETATM   12  C   UNL     1       6.266  25.397  55.584  1.00  0.00     0.051 A 
HETATM   13  C   UNL     1       8.205  25.733  57.605  1.00  0.00     0.033 A 
HETATM   14  C   UNL     1       8.088  24.520  56.914  1.00  0.00     0.039 A 
HETATM   15  C   UNL     1       7.144  24.354  55.901  1.00  0.00     0.069 A 
HETATM   16  C   UNL     1       4.139  29.726  55.511  1.00  0.00     0.007 C 
HETATM   17  C   UNL     1       5.289  30.701  55.839  1.00  0.00     0.032 C 
HETATM   18  H   UNL     1       7.885  28.472  58.408  1.00  0.00     0.166 HD
BRANCH  15  19
HETATM   19  O   UNL     1       6.973  23.217  55.154  1.00  0.00    -0.356 OA
HETATM   20  C   UNL     1       7.205  23.343  53.757  1.00  0.00     0.210 C 
ENDBRANCH  15  19
ENDBRANCH   2   5
BRANCH   1  21
HETATM   21  C   UNL     1       4.774  32.216  60.017  1.00  0.00     0.164 C 
BRANCH  21  22
HETATM   22  C   UNL     1       5.041  33.439  60.866  1.00  0.00     0.075 A 
HETATM   23  N   UNL     1       4.462  34.567  60.589  1.00  0.00    -0.172 NA
HETATM   24  N   UNL     1       4.705  35.671  61.381  1.00  0.00    -0.230 N 
HETATM   25  C   UNL     1       5.487  35.639  62.538  1.00  0.00     0.275 A 
HETATM   26  C   UNL     1       6.182  34.377  62.831  1.00  0.00     0.046 A 
HETATM   27  O   UNL     1       5.628  36.587  63.307  1.00  0.00    -0.266 OA
HETATM   28  C   UNL     1       5.976  33.277  62.009  1.00  0.00     0.006 A 
HETATM   29  C   UNL     1       7.044  34.286  63.933  1.00  0.00     0.018 A 
HETATM   30  C   UNL     1       6.643  32.074  62.292  1.00  0.00     0.014 A 
HETATM   31  C   UNL     1       7.506  31.985  63.387  1.00  0.00     0.001 A 
HETATM   32  C   UNL     1       7.707  33.091  64.209  1.00  0.00     0.001 A 
BRANCH  24  33
HETATM   33  C   UNL     1       3.934  36.890  61.086  1.00  0.00     0.105 C 
HETATM   34  C   UNL     1       2.593  36.533  60.447  1.00  0.00     0.034 C 
HETATM   35  C   UNL     1       4.711  37.880  60.220  1.00  0.00     0.034 C 
ENDBRANCH  24  33
ENDBRANCH  21  22
ENDBRANCH   1  21
TORSDOF 5
ENDMDL
