MODEL 1
REMARK VINA RESULT:      -9.2      0.000      0.000
REMARK  4 active torsions:
REMARK  status: ('A' for Active; 'I' for Inactive)
REMARK    1  A    between atoms: N_2  and  C_3 
REMARK    2  A    between atoms: C_5  and  C_6 
REMARK    3  A    between atoms: C_6  and  C_7 
REMARK    4  A    between atoms: C_13  and  O_14 
ROOT
HETATM    1  C   UNL     1       7.718  23.490  54.233  1.00  0.00     0.113 A 
HETATM    2  N   UNL     1       7.693  24.680  54.868  1.00  0.00    -0.223 NA
HETATM    3  C   UNL     1       7.880  24.704  56.213  1.00  0.00     0.106 A 
HETATM    4  N   UNL     1       8.084  23.598  56.950  1.00  0.00    -0.347 N 
HETATM    5  H   UNL     1       8.169  23.671  57.968  1.00  0.00     0.167 HD
HETATM    6  C   UNL     1       8.110  22.424  56.328  1.00  0.00     0.020 A 
HETATM    7  C   UNL     1       7.934  22.338  54.957  1.00  0.00     0.005 A 
HETATM    8  C   UNL     1       7.982  20.912  54.513  1.00  0.00     0.044 C 
HETATM    9  C   UNL     1       8.624  20.232  55.736  1.00  0.00     0.011 C 
HETATM   10  C   UNL     1       8.262  21.082  56.966  1.00  0.00     0.058 C 
ENDROOT
BRANCH   3  11
HETATM   11  C   UNL     1       7.818  26.029  56.916  1.00  0.00     0.085 C 
BRANCH  11  12
HETATM   12  C   UNL     1       7.078  27.145  56.131  1.00  0.00     0.021 C 
HETATM   13  C   UNL     1       6.253  28.085  57.010  1.00  0.00     0.181 C 
HETATM   14  O   UNL     1       7.055  28.536  58.109  1.00  0.00    -0.347 OA
HETATM   15  C   UNL     1       8.210  29.166  57.693  1.00  0.00     0.108 A 
HETATM   16  C   UNL     1       8.760  28.965  56.414  1.00  0.00    -0.021 A 
HETATM   17  C   UNL     1       8.883  29.960  58.625  1.00  0.00     0.102 A 
HETATM   18  C   UNL     1       8.101  28.042  55.418  1.00  0.00     0.048 C 
HETATM   19  C   UNL     1       9.949  29.623  56.070  1.00  0.00     0.010 A 
HETATM   20  C   UNL     1      10.607  30.425  57.005  1.00  0.00     0.003 A 
HETATM   21  C   UNL     1      10.086  30.579  58.289  1.00  0.00     0.039 A 
BRANCH  17  22
HETATM   22  O   UNL     1       8.420  30.083  59.909  1.00  0.00    -0.353 OA
HETATM   23  C   UNL     1       9.286  30.933  60.665  1.00  0.00     0.210 C 
ENDBRANCH  17  22
ENDBRANCH  11  12
ENDBRANCH   3  11
BRANCH   1  24
HETATM   24  N   UNL     1       7.611  23.426  52.849  1.00  0.00    -0.281 NA
HETATM   25  C   UNL     1       7.772  24.680  52.129  1.00  0.00     0.114 C 
HETATM   26  H   UNL     1       6.781  22.920  52.550  1.00  0.00     0.128 HD
ENDBRANCH   1  24
TORSDOF 4
ENDMDL
MODEL 2
REMARK VINA RESULT:      -8.8      3.809      6.333
REMARK  4 active torsions:
REMARK  status: ('A' for Active; 'I' for Inactive)
REMARK    1  A    between atoms: N_2  and  C_3 
REMARK    2  A    between atoms: C_5  and  C_6 
REMARK    3  A    between atoms: C_6  and  C_7 
REMARK    4  A    between atoms: C_13  and  O_14 
ROOT
HETATM    1  C   UNL     1       8.405  23.570  55.446  1.00  0.00     0.113 A 
HETATM    2  N   UNL     1       7.852  24.536  54.684  1.00  0.00    -0.223 NA
HETATM    3  C   UNL     1       7.477  24.228  53.414  1.00  0.00     0.106 A 
HETATM    4  N   UNL     1       7.633  23.007  52.874  1.00  0.00    -0.347 N 
HETATM    5  H   UNL     1       7.378  22.844  51.895  1.00  0.00     0.167 HD
HETATM    6  C   UNL     1       8.178  22.053  53.622  1.00  0.00     0.020 A 
HETATM    7  C   UNL     1       8.572  22.305  54.926  1.00  0.00     0.005 A 
HETATM    8  C   UNL     1       9.173  21.081  55.536  1.00  0.00     0.044 C 
HETATM    9  C   UNL     1       8.691  19.987  54.565  1.00  0.00     0.011 C 
HETATM   10  C   UNL     1       8.492  20.657  53.195  1.00  0.00     0.058 C 
ENDROOT
BRANCH   3  11
HETATM   11  C   UNL     1       6.892  25.316  52.562  1.00  0.00     0.085 C 
BRANCH  11  12
HETATM   12  C   UNL     1       5.359  25.502  52.710  1.00  0.00     0.021 C 
HETATM   13  C   UNL     1       4.939  26.903  53.155  1.00  0.00     0.181 C 
HETATM   14  O   UNL     1       5.600  27.879  52.340  1.00  0.00    -0.347 OA
HETATM   15  C   UNL     1       5.334  27.708  50.996  1.00  0.00     0.108 A 
HETATM   16  C   UNL     1       4.891  26.483  50.465  1.00  0.00    -0.021 A 
HETATM   17  C   UNL     1       5.605  28.781  50.144  1.00  0.00     0.102 A 
HETATM   18  C   UNL     1       4.676  25.281  51.352  1.00  0.00     0.048 C 
HETATM   19  C   UNL     1       4.663  26.378  49.087  1.00  0.00     0.010 A 
HETATM   20  C   UNL     1       4.925  27.461  48.244  1.00  0.00     0.003 A 
HETATM   21  C   UNL     1       5.414  28.657  48.769  1.00  0.00     0.039 A 
BRANCH  17  22
HETATM   22  O   UNL     1       6.138  29.947  50.628  1.00  0.00    -0.353 OA
HETATM   23  C   UNL     1       5.608  31.065  49.911  1.00  0.00     0.210 C 
ENDBRANCH  17  22
ENDBRANCH  11  12
ENDBRANCH   3  11
BRANCH   1  24
HETATM   24  N   UNL     1       8.731  23.819  56.774  1.00  0.00    -0.281 NA
HETATM   25  C   UNL     1       8.338  25.116  57.304  1.00  0.00     0.114 C 
HETATM   26  H   UNL     1       9.702  23.603  56.979  1.00  0.00     0.128 HD
ENDBRANCH   1  24
TORSDOF 4
ENDMDL
MODEL 3
REMARK VINA RESULT:      -8.6      3.042      7.652
REMARK  4 active torsions:
REMARK  status: ('A' for Active; 'I' for Inactive)
REMARK    1  A    between atoms: N_2  and  C_3 
REMARK    2  A    between atoms: C_5  and  C_6 
REMARK    3  A    between atoms: C_6  and  C_7 
REMARK    4  A    between atoms: C_13  and  O_14 
ROOT
HETATM    1  C   UNL     1       7.669  29.753  58.528  1.00  0.00     0.113 A 
HETATM    2  N   UNL     1       8.220  28.563  58.212  1.00  0.00    -0.223 NA
HETATM    3  C   UNL     1       7.742  27.891  57.132  1.00  0.00     0.106 A 
HETATM    4  N   UNL     1       6.741  28.350  56.361  1.00  0.00    -0.347 N 
HETATM    5  H   UNL     1       6.388  27.777  55.588  1.00  0.00     0.167 HD
HETATM    6  C   UNL     1       6.196  29.522  56.669  1.00  0.00     0.020 A 
HETATM    7  C   UNL     1       6.647  30.256  57.753  1.00  0.00     0.005 A 
HETATM    8  C   UNL     1       5.856  31.516  57.896  1.00  0.00     0.044 C 
HETATM    9  C   UNL     1       5.181  31.611  56.515  1.00  0.00     0.011 C 
HETATM   10  C   UNL     1       5.043  30.176  55.981  1.00  0.00     0.058 C 
ENDROOT
BRANCH   3  11
HETATM   11  C   UNL     1       8.338  26.552  56.807  1.00  0.00     0.085 C 
BRANCH  11  12
HETATM   12  C   UNL     1       7.612  25.345  57.457  1.00  0.00     0.021 C 
HETATM   13  C   UNL     1       6.175  25.148  56.976  1.00  0.00     0.181 C 
HETATM   14  O   UNL     1       6.143  25.185  55.543  1.00  0.00    -0.347 OA
HETATM   15  C   UNL     1       6.968  24.236  54.975  1.00  0.00     0.108 A 
HETATM   16  C   UNL     1       8.043  23.656  55.673  1.00  0.00    -0.021 A 
HETATM   17  C   UNL     1       6.758  23.922  53.630  1.00  0.00     0.102 A 
HETATM   18  C   UNL     1       8.347  24.044  57.099  1.00  0.00     0.048 C 
HETATM   19  C   UNL     1       8.852  22.715  55.022  1.00  0.00     0.010 A 
HETATM   20  C   UNL     1       8.626  22.397  53.680  1.00  0.00     0.003 A 
HETATM   21  C   UNL     1       7.592  23.015  52.978  1.00  0.00     0.039 A 
BRANCH  17  22
HETATM   22  O   UNL     1       5.784  24.555  52.904  1.00  0.00    -0.353 OA
HETATM   23  C   UNL     1       6.375  25.493  52.001  1.00  0.00     0.210 C 
ENDBRANCH  17  22
ENDBRANCH  11  12
ENDBRANCH   3  11
BRANCH   1  24
HETATM   24  N   UNL     1       8.178  30.511  59.576  1.00  0.00    -0.281 NA
HETATM   25  C   UNL     1       9.365  31.303  59.284  1.00  0.00     0.114 C 
HETATM   26  H   UNL     1       8.284  29.967  60.428  1.00  0.00     0.128 HD
ENDBRANCH   1  24
TORSDOF 4
ENDMDL
MODEL 4
REMARK VINA RESULT:      -8.6      3.053      7.673
REMARK  4 active torsions:
REMARK  status: ('A' for Active; 'I' for Inactive)
REMARK    1  A    between atoms: N_2  and  C_3 
REMARK    2  A    between atoms: C_5  and  C_6 
REMARK    3  A    between atoms: C_6  and  C_7 
REMARK    4  A    between atoms: C_13  and  O_14 
ROOT
HETATM    1  C   UNL     1       6.332  29.893  57.968  1.00  0.00     0.113 A 
HETATM    2  N   UNL     1       6.486  28.697  57.364  1.00  0.00    -0.223 NA
HETATM    3  C   UNL     1       7.742  28.198  57.220  1.00  0.00     0.106 A 
HETATM    4  N   UNL     1       8.844  28.839  57.645  1.00  0.00    -0.347 N 
HETATM    5  H   UNL     1       9.770  28.439  57.465  1.00  0.00     0.167 HD
HETATM    6  C   UNL     1       8.696  30.019  58.240  1.00  0.00     0.020 A 
HETATM    7  C   UNL     1       7.440  30.573  58.423  1.00  0.00     0.005 A 
HETATM    8  C   UNL     1       7.550  31.906  59.090  1.00  0.00     0.044 C 
HETATM    9  C   UNL     1       8.986  31.853  59.644  1.00  0.00     0.011 C 
HETATM   10  C   UNL     1       9.788  30.914  58.727  1.00  0.00     0.058 C 
ENDROOT
BRANCH   3  11
HETATM   11  C   UNL     1       7.908  26.882  56.518  1.00  0.00     0.085 C 
BRANCH  11  12
HETATM   12  C   UNL     1       7.207  25.684  57.214  1.00  0.00     0.021 C 
HETATM   13  C   UNL     1       5.813  25.374  56.668  1.00  0.00     0.181 C 
HETATM   14  O   UNL     1       5.865  25.308  55.237  1.00  0.00    -0.347 OA
HETATM   15  C   UNL     1       6.771  24.370  54.787  1.00  0.00     0.108 A 
HETATM   16  C   UNL     1       7.831  23.901  55.585  1.00  0.00    -0.021 A 
HETATM   17  C   UNL     1       6.659  23.951  53.459  1.00  0.00     0.102 A 
HETATM   18  C   UNL     1       8.028  24.405  56.994  1.00  0.00     0.048 C 
HETATM   19  C   UNL     1       8.725  22.963  55.051  1.00  0.00     0.010 A 
HETATM   20  C   UNL     1       8.596  22.540  53.726  1.00  0.00     0.003 A 
HETATM   21  C   UNL     1       7.576  23.048  52.923  1.00  0.00     0.039 A 
BRANCH  17  22
HETATM   22  O   UNL     1       5.698  24.476  52.635  1.00  0.00    -0.353 OA
HETATM   23  C   UNL     1       6.270  25.478  51.790  1.00  0.00     0.210 C 
ENDBRANCH  17  22
ENDBRANCH  11  12
ENDBRANCH   3  11
BRANCH   1  24
HETATM   24  N   UNL     1       5.062  30.404  58.207  1.00  0.00    -0.281 NA
HETATM   25  C   UNL     1       4.067  30.177  57.169  1.00  0.00     0.114 C 
HETATM   26  H   UNL     1       5.087  31.376  58.503  1.00  0.00     0.128 HD
ENDBRANCH   1  24
TORSDOF 4
ENDMDL
MODEL 5
REMARK VINA RESULT:      -8.6      3.339      4.925
REMARK  4 active torsions:
REMARK  status: ('A' for Active; 'I' for Inactive)
REMARK    1  A    between atoms: N_2  and  C_3 
REMARK    2  A    between atoms: C_5  and  C_6 
REMARK    3  A    between atoms: C_6  and  C_7 
REMARK    4  A    between atoms: C_13  and  O_14 
ROOT
HETATM    1  C   UNL     1       8.451  23.563  55.500  1.00  0.00     0.113 A 
HETATM    2  N   UNL     1       8.001  24.539  54.685  1.00  0.00    -0.223 NA
HETATM    3  C   UNL     1       7.733  24.232  53.389  1.00  0.00     0.106 A 
HETATM    4  N   UNL     1       7.900  23.002  52.872  1.00  0.00    -0.347 N 
HETATM    5  H   UNL     1       7.730  22.839  51.875  1.00  0.00     0.167 HD
HETATM    6  C   UNL     1       8.344  22.038  53.673  1.00  0.00     0.020 A 
HETATM    7  C   UNL     1       8.625  22.289  55.005  1.00  0.00     0.005 A 
HETATM    8  C   UNL     1       9.129  21.052  55.675  1.00  0.00     0.044 C 
HETATM    9  C   UNL     1       8.703  19.966  54.670  1.00  0.00     0.011 C 
HETATM   10  C   UNL     1       8.651  20.629  53.284  1.00  0.00     0.058 C 
ENDROOT
BRANCH   3  11
HETATM   11  C   UNL     1       7.263  25.330  52.480  1.00  0.00     0.085 C 
BRANCH  11  12
HETATM   12  C   UNL     1       5.854  25.107  51.870  1.00  0.00     0.021 C 
HETATM   13  C   UNL     1       4.748  24.915  52.908  1.00  0.00     0.181 C 
HETATM   14  O   UNL     1       4.834  25.952  53.894  1.00  0.00    -0.347 OA
HETATM   15  C   UNL     1       4.750  27.212  53.338  1.00  0.00     0.108 A 
HETATM   16  C   UNL     1       5.032  27.459  51.982  1.00  0.00    -0.021 A 
HETATM   17  C   UNL     1       4.454  28.275  54.195  1.00  0.00     0.102 A 
HETATM   18  C   UNL     1       5.441  26.341  51.055  1.00  0.00     0.048 C 
HETATM   19  C   UNL     1       4.946  28.770  51.494  1.00  0.00     0.010 A 
HETATM   20  C   UNL     1       4.637  29.825  52.357  1.00  0.00     0.003 A 
HETATM   21  C   UNL     1       4.410  29.582  53.711  1.00  0.00     0.039 A 
BRANCH  17  22
HETATM   22  O   UNL     1       4.280  28.069  55.538  1.00  0.00    -0.353 OA
HETATM   23  C   UNL     1       4.995  29.058  56.284  1.00  0.00     0.210 C 
ENDBRANCH  17  22
ENDBRANCH  11  12
ENDBRANCH   3  11
BRANCH   1  24
HETATM   24  N   UNL     1       8.662  23.813  56.852  1.00  0.00    -0.281 NA
HETATM   25  C   UNL     1       8.353  25.158  57.316  1.00  0.00     0.114 C 
HETATM   26  H   UNL     1       9.579  23.506  57.161  1.00  0.00     0.128 HD
ENDBRANCH   1  24
TORSDOF 4
ENDMDL
MODEL 6
REMARK VINA RESULT:      -8.4      2.589      3.986
REMARK  4 active torsions:
REMARK  status: ('A' for Active; 'I' for Inactive)
REMARK    1  A    between atoms: N_2  and  C_3 
REMARK    2  A    between atoms: C_5  and  C_6 
REMARK    3  A    between atoms: C_6  and  C_7 
REMARK    4  A    between atoms: C_13  and  O_14 
ROOT
HETATM    1  C   UNL     1       7.743  23.317  55.906  1.00  0.00     0.113 A 
HETATM    2  N   UNL     1       6.936  24.267  55.392  1.00  0.00    -0.223 NA
HETATM    3  C   UNL     1       6.541  24.154  54.097  1.00  0.00     0.106 A 
HETATM    4  N   UNL     1       6.919  23.142  53.296  1.00  0.00    -0.347 N 
HETATM    5  H   UNL     1       6.631  23.134  52.312  1.00  0.00     0.167 HD
HETATM    6  C   UNL     1       7.714  22.204  53.799  1.00  0.00     0.020 A 
HETATM    7  C   UNL     1       8.142  22.262  55.115  1.00  0.00     0.005 A 
HETATM    8  C   UNL     1       9.041  21.108  55.423  1.00  0.00     0.044 C 
HETATM    9  C   UNL     1       8.736  20.161  54.247  1.00  0.00     0.011 C 
HETATM   10  C   UNL     1       8.291  21.038  53.065  1.00  0.00     0.058 C 
ENDROOT
BRANCH   3  11
HETATM   11  C   UNL     1       5.670  25.233  53.523  1.00  0.00     0.085 C 
BRANCH  11  12
HETATM   12  C   UNL     1       6.399  26.214  52.566  1.00  0.00     0.021 C 
HETATM   13  C   UNL     1       5.529  27.373  52.079  1.00  0.00     0.181 C 
HETATM   14  O   UNL     1       4.873  27.980  53.199  1.00  0.00    -0.347 OA
HETATM   15  C   UNL     1       5.766  28.425  54.152  1.00  0.00     0.108 A 
HETATM   16  C   UNL     1       7.078  27.926  54.249  1.00  0.00    -0.021 A 
HETATM   17  C   UNL     1       5.297  29.343  55.095  1.00  0.00     0.102 A 
HETATM   18  C   UNL     1       7.581  26.868  53.298  1.00  0.00     0.048 C 
HETATM   19  C   UNL     1       7.921  28.411  55.258  1.00  0.00     0.010 A 
HETATM   20  C   UNL     1       7.447  29.338  56.188  1.00  0.00     0.003 A 
HETATM   21  C   UNL     1       6.129  29.790  56.120  1.00  0.00     0.039 A 
BRANCH  17  22
HETATM   22  O   UNL     1       3.992  29.761  55.082  1.00  0.00    -0.353 OA
HETATM   23  C   UNL     1       3.584  30.139  56.399  1.00  0.00     0.210 C 
ENDBRANCH  17  22
ENDBRANCH  11  12
ENDBRANCH   3  11
BRANCH   1  24
HETATM   24  N   UNL     1       8.108  23.350  57.248  1.00  0.00    -0.281 NA
HETATM   25  C   UNL     1       8.917  24.483  57.670  1.00  0.00     0.114 C 
HETATM   26  H   UNL     1       8.498  22.466  57.562  1.00  0.00     0.128 HD
ENDBRANCH   1  24
TORSDOF 4
ENDMDL
MODEL 7
REMARK VINA RESULT:      -8.3      3.566      6.699
REMARK  4 active torsions:
REMARK  status: ('A' for Active; 'I' for Inactive)
REMARK    1  A    between atoms: N_2  and  C_3 
REMARK    2  A    between atoms: C_5  and  C_6 
REMARK    3  A    between atoms: C_6  and  C_7 
REMARK    4  A    between atoms: C_13  and  O_14 
ROOT
HETATM    1  C   UNL     1       4.406  28.293  52.339  1.00  0.00     0.113 A 
HETATM    2  N   UNL     1       4.731  26.996  52.161  1.00  0.00    -0.223 NA
HETATM    3  C   UNL     1       4.982  26.232  53.256  1.00  0.00     0.106 A 
HETATM    4  N   UNL     1       4.930  26.704  54.513  1.00  0.00    -0.347 N 
HETATM    5  H   UNL     1       5.178  26.095  55.299  1.00  0.00     0.167 HD
HETATM    6  C   UNL     1       4.610  27.982  54.692  1.00  0.00     0.020 A 
HETATM    7  C   UNL     1       4.334  28.807  53.615  1.00  0.00     0.005 A 
HETATM    8  C   UNL     1       4.030  30.193  54.083  1.00  0.00     0.044 C 
HETATM    9  C   UNL     1       3.753  29.956  55.579  1.00  0.00     0.011 C 
HETATM   10  C   UNL     1       4.556  28.712  55.995  1.00  0.00     0.058 C 
ENDROOT
BRANCH   3  11
HETATM   11  C   UNL     1       5.375  24.798  53.048  1.00  0.00     0.085 C 
BRANCH  11  12
HETATM   12  C   UNL     1       6.793  24.595  52.451  1.00  0.00     0.021 C 
HETATM   13  C   UNL     1       7.836  25.586  52.968  1.00  0.00     0.181 C 
HETATM   14  O   UNL     1       7.773  25.640  54.399  1.00  0.00    -0.347 OA
HETATM   15  C   UNL     1       7.965  24.403  54.979  1.00  0.00     0.108 A 
HETATM   16  C   UNL     1       7.761  23.200  54.278  1.00  0.00    -0.021 A 
HETATM   17  C   UNL     1       8.291  24.372  56.337  1.00  0.00     0.102 A 
HETATM   18  C   UNL     1       7.322  23.205  52.834  1.00  0.00     0.048 C 
HETATM   19  C   UNL     1       7.955  21.981  54.941  1.00  0.00     0.010 A 
HETATM   20  C   UNL     1       8.293  21.961  56.297  1.00  0.00     0.003 A 
HETATM   21  C   UNL     1       8.441  23.155  57.001  1.00  0.00     0.039 A 
BRANCH  17  22
HETATM   22  O   UNL     1       8.389  25.530  57.063  1.00  0.00    -0.353 OA
HETATM   23  C   UNL     1       7.145  25.813  57.708  1.00  0.00     0.210 C 
ENDBRANCH  17  22
ENDBRANCH  11  12
ENDBRANCH   3  11
BRANCH   1  24
HETATM   24  N   UNL     1       4.063  29.090  51.253  1.00  0.00    -0.281 NA
HETATM   25  C   UNL     1       3.763  28.396  50.010  1.00  0.00     0.114 C 
HETATM   26  H   UNL     1       4.721  29.853  51.113  1.00  0.00     0.128 HD
ENDBRANCH   1  24
TORSDOF 4
ENDMDL
MODEL 8
REMARK VINA RESULT:      -8.2      4.177      7.004
REMARK  4 active torsions:
REMARK  status: ('A' for Active; 'I' for Inactive)
REMARK    1  A    between atoms: N_2  and  C_3 
REMARK    2  A    between atoms: C_5  and  C_6 
REMARK    3  A    between atoms: C_6  and  C_7 
REMARK    4  A    between atoms: C_13  and  O_14 
ROOT
HETATM    1  C   UNL     1       4.616  26.609  48.778  1.00  0.00     0.113 A 
HETATM    2  N   UNL     1       4.682  25.840  49.884  1.00  0.00    -0.223 NA
HETATM    3  C   UNL     1       5.070  26.414  51.053  1.00  0.00     0.106 A 
HETATM    4  N   UNL     1       5.397  27.713  51.165  1.00  0.00    -0.347 N 
HETATM    5  H   UNL     1       5.730  28.081  52.061  1.00  0.00     0.167 HD
HETATM    6  C   UNL     1       5.333  28.474  50.076  1.00  0.00     0.020 A 
HETATM    7  C   UNL     1       4.936  27.946  48.859  1.00  0.00     0.005 A 
HETATM    8  C   UNL     1       4.973  28.998  47.797  1.00  0.00     0.044 C 
HETATM    9  C   UNL     1       5.033  30.283  48.643  1.00  0.00     0.011 C 
HETATM   10  C   UNL     1       5.709  29.916  49.975  1.00  0.00     0.058 C 
ENDROOT
BRANCH   3  11
HETATM   11  C   UNL     1       5.172  25.545  52.272  1.00  0.00     0.085 C 
BRANCH  11  12
HETATM   12  C   UNL     1       6.502  24.754  52.394  1.00  0.00     0.021 C 
HETATM   13  C   UNL     1       7.753  25.633  52.386  1.00  0.00     0.181 C 
HETATM   14  O   UNL     1       7.588  26.706  53.322  1.00  0.00    -0.347 OA
HETATM   15  C   UNL     1       7.334  26.252  54.600  1.00  0.00     0.108 A 
HETATM   16  C   UNL     1       6.827  24.966  54.858  1.00  0.00    -0.021 A 
HETATM   17  C   UNL     1       7.516  27.154  55.652  1.00  0.00     0.102 A 
HETATM   18  C   UNL     1       6.538  24.002  53.733  1.00  0.00     0.048 C 
HETATM   19  C   UNL     1       6.574  24.583  56.182  1.00  0.00     0.010 A 
HETATM   20  C   UNL     1       6.771  25.488  57.228  1.00  0.00     0.003 A 
HETATM   21  C   UNL     1       7.223  26.780  56.962  1.00  0.00     0.039 A 
BRANCH  17  22
HETATM   22  O   UNL     1       7.907  28.445  55.411  1.00  0.00    -0.353 OA
HETATM   23  C   UNL     1       8.516  29.000  56.580  1.00  0.00     0.210 C 
ENDBRANCH  17  22
ENDBRANCH  11  12
ENDBRANCH   3  11
BRANCH   1  24
HETATM   24  N   UNL     1       4.149  26.082  47.579  1.00  0.00    -0.281 NA
HETATM   25  C   UNL     1       3.054  25.128  47.674  1.00  0.00     0.114 C 
HETATM   26  H   UNL     1       4.903  25.738  46.990  1.00  0.00     0.128 HD
ENDBRANCH   1  24
TORSDOF 4
ENDMDL
MODEL 9
REMARK VINA RESULT:      -8.1      4.114      7.630
REMARK  4 active torsions:
REMARK  status: ('A' for Active; 'I' for Inactive)
REMARK    1  A    between atoms: N_2  and  C_3 
REMARK    2  A    between atoms: C_5  and  C_6 
REMARK    3  A    between atoms: C_6  and  C_7 
REMARK    4  A    between atoms: C_13  and  O_14 
ROOT
HETATM    1  C   UNL     1       4.053  28.294  53.508  1.00  0.00     0.113 A 
HETATM    2  N   UNL     1       4.677  27.098  53.514  1.00  0.00    -0.223 NA
HETATM    3  C   UNL     1       4.957  26.504  52.325  1.00  0.00     0.106 A 
HETATM    4  N   UNL     1       4.638  27.046  51.136  1.00  0.00    -0.347 N 
HETATM    5  H   UNL     1       4.828  26.530  50.272  1.00  0.00     0.167 HD
HETATM    6  C   UNL     1       4.022  28.224  51.127  1.00  0.00     0.020 A 
HETATM    7  C   UNL     1       3.720  28.881  52.308  1.00  0.00     0.005 A 
HETATM    8  C   UNL     1       3.012  30.166  52.024  1.00  0.00     0.044 C 
HETATM    9  C   UNL     1       3.321  30.362  50.528  1.00  0.00     0.011 C 
HETATM   10  C   UNL     1       3.532  28.963  49.925  1.00  0.00     0.058 C 
ENDROOT
BRANCH   3  11
HETATM   11  C   UNL     1       5.622  25.159  52.340  1.00  0.00     0.085 C 
BRANCH  11  12
HETATM   12  C   UNL     1       7.153  25.190  52.085  1.00  0.00     0.021 C 
HETATM   13  C   UNL     1       7.960  25.841  53.209  1.00  0.00     0.181 C 
HETATM   14  O   UNL     1       7.558  25.286  54.467  1.00  0.00    -0.347 OA
HETATM   15  C   UNL     1       7.708  23.914  54.507  1.00  0.00     0.108 A 
HETATM   16  C   UNL     1       7.774  23.128  53.342  1.00  0.00    -0.021 A 
HETATM   17  C   UNL     1       7.706  23.303  55.763  1.00  0.00     0.102 A 
HETATM   18  C   UNL     1       7.689  23.756  51.973  1.00  0.00     0.048 C 
HETATM   19  C   UNL     1       7.906  21.738  53.463  1.00  0.00     0.010 A 
HETATM   20  C   UNL     1       7.916  21.137  54.724  1.00  0.00     0.003 A 
HETATM   21  C   UNL     1       7.796  21.916  55.874  1.00  0.00     0.039 A 
BRANCH  17  22
HETATM   22  O   UNL     1       7.536  24.041  56.905  1.00  0.00    -0.353 OA
HETATM   23  C   UNL     1       8.807  24.362  57.477  1.00  0.00     0.210 C 
ENDBRANCH  17  22
ENDBRANCH  11  12
ENDBRANCH   3  11
BRANCH   1  24
HETATM   24  N   UNL     1       3.819  28.974  54.698  1.00  0.00    -0.281 NA
HETATM   25  C   UNL     1       4.446  28.424  55.891  1.00  0.00     0.114 C 
HETATM   26  H   UNL     1       2.832  29.169  54.842  1.00  0.00     0.128 HD
ENDBRANCH   1  24
TORSDOF 4
ENDMDL
MODEL 10
REMARK VINA RESULT:      -7.9      3.576      7.950
REMARK  4 active torsions:
REMARK  status: ('A' for Active; 'I' for Inactive)
REMARK    1  A    between atoms: N_2  and  C_3 
REMARK    2  A    between atoms: C_5  and  C_6 
REMARK    3  A    between atoms: C_6  and  C_7 
REMARK    4  A    between atoms: C_13  and  O_14 
ROOT
HETATM    1  C   UNL     1       9.544  30.694  57.955  1.00  0.00     0.113 A 
HETATM    2  N   UNL     1       8.821  30.001  57.052  1.00  0.00    -0.223 NA
HETATM    3  C   UNL     1       7.485  29.861  57.257  1.00  0.00     0.106 A 
HETATM    4  N   UNL     1       6.844  30.374  58.322  1.00  0.00    -0.347 N 
HETATM    5  H   UNL     1       5.844  30.195  58.452  1.00  0.00     0.167 HD
HETATM    6  C   UNL     1       7.555  31.057  59.214  1.00  0.00     0.020 A 
HETATM    7  C   UNL     1       8.917  31.240  59.053  1.00  0.00     0.005 A 
HETATM    8  C   UNL     1       9.479  32.016  60.200  1.00  0.00     0.044 C 
HETATM    9  C   UNL     1       8.202  32.613  60.820  1.00  0.00     0.011 C 
HETATM   10  C   UNL     1       7.048  31.652  60.488  1.00  0.00     0.058 C 
ENDROOT
BRANCH   3  11
HETATM   11  C   UNL     1       6.693  29.062  56.264  1.00  0.00     0.085 C 
BRANCH  11  12
HETATM   12  C   UNL     1       5.502  28.273  56.871  1.00  0.00     0.021 C 
HETATM   13  C   UNL     1       4.247  28.269  55.998  1.00  0.00     0.181 C 
HETATM   14  O   UNL     1       4.601  27.911  54.656  1.00  0.00    -0.347 OA
HETATM   15  C   UNL     1       5.230  26.685  54.589  1.00  0.00     0.108 A 
HETATM   16  C   UNL     1       5.868  26.102  55.699  1.00  0.00    -0.021 A 
HETATM   17  C   UNL     1       5.295  26.062  53.339  1.00  0.00     0.102 A 
HETATM   18  C   UNL     1       5.890  26.796  57.038  1.00  0.00     0.048 C 
HETATM   19  C   UNL     1       6.506  24.863  55.548  1.00  0.00     0.010 A 
HETATM   20  C   UNL     1       6.554  24.242  54.297  1.00  0.00     0.003 A 
HETATM   21  C   UNL     1       5.966  24.849  53.189  1.00  0.00     0.039 A 
BRANCH  17  22
HETATM   22  O   UNL     1       4.772  26.664  52.225  1.00  0.00    -0.353 OA
HETATM   23  C   UNL     1       5.300  26.055  51.044  1.00  0.00     0.210 C 
ENDBRANCH  17  22
ENDBRANCH  11  12
ENDBRANCH   3  11
BRANCH   1  24
HETATM   24  N   UNL     1      10.898  30.930  57.745  1.00  0.00    -0.281 NA
HETATM   25  C   UNL     1      11.682  29.805  57.254  1.00  0.00     0.114 C 
HETATM   26  H   UNL     1      11.339  31.381  58.541  1.00  0.00     0.128 HD
ENDBRANCH   1  24
TORSDOF 4
ENDMDL
