MODEL 1
REMARK VINA RESULT:      -8.9      0.000      0.000
REMARK  4 active torsions:
REMARK  status: ('A' for Active; 'I' for Inactive)
REMARK    1  A    between atoms: C_6  and  C_7 
REMARK    2  A    between atoms: C_7  and  N_8 
REMARK    3  A    between atoms: C_12  and  C_13 
REMARK    4  A    between atoms: C_15  and  C_16 
ROOT
HETATM    1  N   UNL     1       6.236  26.828  53.876  1.00  0.00    -0.067 N 
HETATM    2  H   UNL     1       5.854  27.262  53.029  1.00  0.00     0.280 HD
HETATM    3  C   UNL     1       7.701  26.553  53.629  1.00  0.00     0.236 C 
HETATM    4  C   UNL     1       7.867  25.533  52.508  1.00  0.00     0.040 C 
HETATM    5  C   UNL     1       7.092  24.235  52.756  1.00  0.00     0.058 C 
HETATM    6  C   UNL     1       5.624  24.554  53.055  1.00  0.00     0.040 C 
HETATM    7  C   UNL     1       5.448  25.575  54.172  1.00  0.00     0.236 C 
ENDROOT
BRANCH   5   8
HETATM    8  C   UNL     1       7.714  23.448  53.870  1.00  0.00     0.108 A 
HETATM    9  N   UNL     1       7.577  22.154  54.061  1.00  0.00    -0.229 NA
HETATM   10  C   UNL     1       8.289  21.848  55.217  1.00  0.00     0.157 A 
HETATM   11  C   UNL     1       8.867  23.006  55.706  1.00  0.00     0.126 A 
HETATM   12  N   UNL     1       8.500  24.006  54.847  1.00  0.00    -0.352 N 
HETATM   13  H   UNL     1       8.757  24.982  54.930  1.00  0.00     0.166 HD
BRANCH  10  14
HETATM   14  C   UNL     1       8.361  20.453  55.782  1.00  0.00     0.436 C 
HETATM   15  F   UNL     1       9.327  20.339  56.734  1.00  0.00    -0.165 F 
HETATM   16  F   UNL     1       7.191  20.081  56.360  1.00  0.00    -0.165 F 
HETATM   17  F   UNL     1       8.644  19.536  54.822  1.00  0.00    -0.165 F 
ENDBRANCH  10  14
ENDBRANCH   5   8
BRANCH   1  18
HETATM   18  C   UNL     1       6.033  27.840  54.993  1.00  0.00     0.275 C 
BRANCH  18  19
HETATM   19  C   UNL     1       7.237  28.032  55.836  1.00  0.00    -0.001 A 
HETATM   20  C   UNL     1       7.665  27.221  56.875  1.00  0.00     0.057 A 
HETATM   21  O   UNL     1       8.824  27.698  57.400  1.00  0.00    -0.320 OA
HETATM   22  C   UNL     1       7.134  25.986  57.496  1.00  0.00     0.077 C 
HETATM   23  C   UNL     1       9.141  28.834  56.727  1.00  0.00     0.050 A 
HETATM   24  C   UNL     1      10.372  29.533  57.156  1.00  0.00     0.076 C 
HETATM   25  C   UNL     1       8.195  29.087  55.758  1.00  0.00     0.043 A 
ENDBRANCH  18  19
ENDBRANCH   1  18
TORSDOF 4
ENDMDL
MODEL 2
REMARK VINA RESULT:      -8.6      2.050      3.188
REMARK  4 active torsions:
REMARK  status: ('A' for Active; 'I' for Inactive)
REMARK    1  A    between atoms: C_6  and  C_7 
REMARK    2  A    between atoms: C_7  and  N_8 
REMARK    3  A    between atoms: C_12  and  C_13 
REMARK    4  A    between atoms: C_15  and  C_16 
ROOT
HETATM    1  N   UNL     1       7.424  27.271  56.610  1.00  0.00    -0.067 N 
HETATM    2  H   UNL     1       6.729  27.863  57.078  1.00  0.00     0.280 HD
HETATM    3  C   UNL     1       7.198  27.389  55.120  1.00  0.00     0.236 C 
HETATM    4  C   UNL     1       5.830  26.827  54.746  1.00  0.00     0.040 C 
HETATM    5  C   UNL     1       5.618  25.389  55.228  1.00  0.00     0.058 C 
HETATM    6  C   UNL     1       5.906  25.296  56.730  1.00  0.00     0.040 C 
HETATM    7  C   UNL     1       7.270  25.857  57.114  1.00  0.00     0.236 C 
ENDROOT
BRANCH   5   8
HETATM    8  C   UNL     1       6.473  24.435  54.451  1.00  0.00     0.108 A 
HETATM    9  N   UNL     1       6.926  23.281  54.891  1.00  0.00    -0.229 NA
HETATM   10  C   UNL     1       7.697  22.742  53.866  1.00  0.00     0.157 A 
HETATM   11  C   UNL     1       7.680  23.611  52.789  1.00  0.00     0.126 A 
HETATM   12  N   UNL     1       6.904  24.673  53.169  1.00  0.00    -0.352 N 
HETATM   13  H   UNL     1       6.698  25.488  52.605  1.00  0.00     0.166 HD
BRANCH  10  14
HETATM   14  C   UNL     1       8.407  21.419  53.992  1.00  0.00     0.436 C 
HETATM   15  F   UNL     1       8.695  20.878  52.777  1.00  0.00    -0.165 F 
HETATM   16  F   UNL     1       9.583  21.540  54.659  1.00  0.00    -0.165 F 
HETATM   17  F   UNL     1       7.657  20.508  54.662  1.00  0.00    -0.165 F 
ENDBRANCH  10  14
ENDBRANCH   5   8
BRANCH   1  18
HETATM   18  C   UNL     1       8.782  27.819  57.018  1.00  0.00     0.275 C 
BRANCH  18  19
HETATM   19  C   UNL     1       8.706  29.140  57.687  1.00  0.00    -0.001 A 
HETATM   20  C   UNL     1       9.717  30.082  57.789  1.00  0.00     0.057 A 
HETATM   21  O   UNL     1       9.271  31.183  58.449  1.00  0.00    -0.320 OA
HETATM   22  C   UNL     1      11.126  30.125  57.336  1.00  0.00     0.077 C 
HETATM   23  C   UNL     1       7.981  30.954  58.804  1.00  0.00     0.050 A 
HETATM   24  C   UNL     1       7.303  32.031  59.556  1.00  0.00     0.076 C 
HETATM   25  C   UNL     1       7.585  29.710  58.362  1.00  0.00     0.043 A 
ENDBRANCH  18  19
ENDBRANCH   1  18
TORSDOF 4
ENDMDL
MODEL 3
REMARK VINA RESULT:      -8.5      3.482      5.806
REMARK  4 active torsions:
REMARK  status: ('A' for Active; 'I' for Inactive)
REMARK    1  A    between atoms: C_6  and  C_7 
REMARK    2  A    between atoms: C_7  and  N_8 
REMARK    3  A    between atoms: C_12  and  C_13 
REMARK    4  A    between atoms: C_15  and  C_16 
ROOT
HETATM    1  N   UNL     1       7.440  25.442  57.597  1.00  0.00    -0.067 N 
HETATM    2  H   UNL     1       7.290  25.578  58.603  1.00  0.00     0.280 HD
HETATM    3  C   UNL     1       7.854  26.774  57.012  1.00  0.00     0.236 C 
HETATM    4  C   UNL     1       6.723  27.787  57.149  1.00  0.00     0.040 C 
HETATM    5  C   UNL     1       5.403  27.301  56.543  1.00  0.00     0.058 C 
HETATM    6  C   UNL     1       5.041  25.927  57.117  1.00  0.00     0.040 C 
HETATM    7  C   UNL     1       6.166  24.909  56.988  1.00  0.00     0.236 C 
ENDROOT
BRANCH   5   8
HETATM    8  C   UNL     1       5.488  27.258  55.047  1.00  0.00     0.108 A 
HETATM    9  N   UNL     1       5.357  26.180  54.304  1.00  0.00    -0.229 NA
HETATM   10  C   UNL     1       5.538  26.585  52.985  1.00  0.00     0.157 A 
HETATM   11  C   UNL     1       5.772  27.949  52.964  1.00  0.00     0.126 A 
HETATM   12  N   UNL     1       5.736  28.361  54.268  1.00  0.00    -0.352 N 
HETATM   13  H   UNL     1       5.877  29.310  54.594  1.00  0.00     0.166 HD
BRANCH  10  14
HETATM   14  C   UNL     1       5.479  25.626  51.825  1.00  0.00     0.436 C 
HETATM   15  F   UNL     1       4.833  24.474  52.149  1.00  0.00    -0.165 F 
HETATM   16  F   UNL     1       4.825  26.160  50.762  1.00  0.00    -0.165 F 
HETATM   17  F   UNL     1       6.720  25.276  51.399  1.00  0.00    -0.165 F 
ENDBRANCH  10  14
ENDBRANCH   5   8
BRANCH   1  18
HETATM   18  C   UNL     1       8.544  24.405  57.474  1.00  0.00     0.275 C 
BRANCH  18  19
HETATM   19  C   UNL     1       8.390  23.520  56.294  1.00  0.00    -0.001 A 
HETATM   20  C   UNL     1       8.323  22.136  56.294  1.00  0.00     0.057 A 
HETATM   21  O   UNL     1       8.154  21.672  55.029  1.00  0.00    -0.320 OA
HETATM   22  C   UNL     1       8.394  21.107  57.357  1.00  0.00     0.077 C 
HETATM   23  C   UNL     1       8.137  22.745  54.197  1.00  0.00     0.050 A 
HETATM   24  C   UNL     1       7.979  22.460  52.755  1.00  0.00     0.076 C 
HETATM   25  C   UNL     1       8.282  23.906  54.925  1.00  0.00     0.043 A 
ENDBRANCH  18  19
ENDBRANCH   1  18
TORSDOF 4
ENDMDL
MODEL 4
REMARK VINA RESULT:      -8.4      2.247      3.378
REMARK  4 active torsions:
REMARK  status: ('A' for Active; 'I' for Inactive)
REMARK    1  A    between atoms: C_6  and  C_7 
REMARK    2  A    between atoms: C_7  and  N_8 
REMARK    3  A    between atoms: C_12  and  C_13 
REMARK    4  A    between atoms: C_15  and  C_16 
ROOT
HETATM    1  N   UNL     1       7.304  27.710  56.355  1.00  0.00    -0.067 N 
HETATM    2  H   UNL     1       6.552  28.320  56.694  1.00  0.00     0.280 HD
HETATM    3  C   UNL     1       6.850  27.106  55.046  1.00  0.00     0.236 C 
HETATM    4  C   UNL     1       5.634  26.211  55.270  1.00  0.00     0.040 C 
HETATM    5  C   UNL     1       5.870  25.130  56.329  1.00  0.00     0.058 C 
HETATM    6  C   UNL     1       6.380  25.772  57.623  1.00  0.00     0.040 C 
HETATM    7  C   UNL     1       7.592  26.669  57.410  1.00  0.00     0.236 C 
ENDROOT
BRANCH   5   8
HETATM    8  C   UNL     1       6.825  24.091  55.825  1.00  0.00     0.108 A 
HETATM    9  N   UNL     1       6.885  23.641  54.590  1.00  0.00    -0.229 NA
HETATM   10  C   UNL     1       7.883  22.671  54.570  1.00  0.00     0.157 A 
HETATM   11  C   UNL     1       8.427  22.564  55.838  1.00  0.00     0.126 A 
HETATM   12  N   UNL     1       7.754  23.465  56.619  1.00  0.00    -0.352 N 
HETATM   13  H   UNL     1       7.911  23.628  57.605  1.00  0.00     0.166 HD
BRANCH  10  14
HETATM   14  C   UNL     1       8.246  21.903  53.326  1.00  0.00     0.436 C 
HETATM   15  F   UNL     1       7.480  20.789  53.174  1.00  0.00    -0.165 F 
HETATM   16  F   UNL     1       8.082  22.651  52.206  1.00  0.00    -0.165 F 
HETATM   17  F   UNL     1       9.539  21.492  53.349  1.00  0.00    -0.165 F 
ENDBRANCH  10  14
ENDBRANCH   5   8
BRANCH   1  18
HETATM   18  C   UNL     1       8.518  28.606  56.170  1.00  0.00     0.275 C 
BRANCH  18  19
HETATM   19  C   UNL     1       8.653  29.638  57.226  1.00  0.00    -0.001 A 
HETATM   20  C   UNL     1       9.827  30.213  57.685  1.00  0.00     0.057 A 
HETATM   21  O   UNL     1       9.557  31.140  58.640  1.00  0.00    -0.320 OA
HETATM   22  C   UNL     1      11.258  30.027  57.350  1.00  0.00     0.077 C 
HETATM   23  C   UNL     1       8.212  31.155  58.829  1.00  0.00     0.050 A 
HETATM   24  C   UNL     1       7.700  32.092  59.851  1.00  0.00     0.076 C 
HETATM   25  C   UNL     1       7.609  30.246  57.986  1.00  0.00     0.043 A 
ENDBRANCH  18  19
ENDBRANCH   1  18
TORSDOF 4
ENDMDL
MODEL 5
REMARK VINA RESULT:      -8.3      3.577      5.275
REMARK  4 active torsions:
REMARK  status: ('A' for Active; 'I' for Inactive)
REMARK    1  A    between atoms: C_6  and  C_7 
REMARK    2  A    between atoms: C_7  and  N_8 
REMARK    3  A    between atoms: C_12  and  C_13 
REMARK    4  A    between atoms: C_15  and  C_16 
ROOT
HETATM    1  N   UNL     1       5.515  25.831  52.228  1.00  0.00    -0.067 N 
HETATM    2  H   UNL     1       5.231  26.796  52.428  1.00  0.00     0.280 HD
HETATM    3  C   UNL     1       4.975  24.956  53.337  1.00  0.00     0.236 C 
HETATM    4  C   UNL     1       5.618  25.331  54.668  1.00  0.00     0.040 C 
HETATM    5  C   UNL     1       7.149  25.294  54.628  1.00  0.00     0.058 C 
HETATM    6  C   UNL     1       7.660  26.147  53.462  1.00  0.00     0.040 C 
HETATM    7  C   UNL     1       7.020  25.782  52.128  1.00  0.00     0.236 C 
ENDROOT
BRANCH   5   8
HETATM    8  C   UNL     1       7.645  23.884  54.526  1.00  0.00     0.108 A 
HETATM    9  N   UNL     1       7.501  22.954  55.446  1.00  0.00    -0.229 NA
HETATM   10  C   UNL     1       8.133  21.815  54.959  1.00  0.00     0.157 A 
HETATM   11  C   UNL     1       8.654  22.093  53.708  1.00  0.00     0.126 A 
HETATM   12  N   UNL     1       8.337  23.398  53.445  1.00  0.00    -0.352 N 
HETATM   13  H   UNL     1       8.582  23.910  52.607  1.00  0.00     0.166 HD
BRANCH  10  14
HETATM   14  C   UNL     1       8.201  20.526  55.738  1.00  0.00     0.436 C 
HETATM   15  F   UNL     1       8.640  19.491  54.972  1.00  0.00    -0.165 F 
HETATM   16  F   UNL     1       9.045  20.621  56.796  1.00  0.00    -0.165 F 
HETATM   17  F   UNL     1       6.985  20.169  56.223  1.00  0.00    -0.165 F 
ENDBRANCH  10  14
ENDBRANCH   5   8
BRANCH   1  18
HETATM   18  C   UNL     1       4.897  25.482  50.884  1.00  0.00     0.275 C 
BRANCH  18  19
HETATM   19  C   UNL     1       4.755  26.650  49.982  1.00  0.00    -0.001 A 
HETATM   20  C   UNL     1       4.116  26.681  48.753  1.00  0.00     0.057 A 
HETATM   21  O   UNL     1       4.165  27.933  48.227  1.00  0.00    -0.320 OA
HETATM   22  C   UNL     1       3.418  25.663  47.935  1.00  0.00     0.077 C 
HETATM   23  C   UNL     1       4.856  28.716  49.095  1.00  0.00     0.050 A 
HETATM   24  C   UNL     1       5.043  30.129  48.703  1.00  0.00     0.076 C 
HETATM   25  C   UNL     1       5.245  27.974  50.189  1.00  0.00     0.043 A 
ENDBRANCH  18  19
ENDBRANCH   1  18
TORSDOF 4
ENDMDL
MODEL 6
REMARK VINA RESULT:      -8.2      5.434      8.094
REMARK  4 active torsions:
REMARK  status: ('A' for Active; 'I' for Inactive)
REMARK    1  A    between atoms: C_6  and  C_7 
REMARK    2  A    between atoms: C_7  and  N_8 
REMARK    3  A    between atoms: C_12  and  C_13 
REMARK    4  A    between atoms: C_15  and  C_16 
ROOT
HETATM    1  N   UNL     1       7.448  27.398  56.990  1.00  0.00    -0.067 N 
HETATM    2  H   UNL     1       7.395  27.259  55.975  1.00  0.00     0.280 HD
HETATM    3  C   UNL     1       6.233  28.195  57.408  1.00  0.00     0.236 C 
HETATM    4  C   UNL     1       6.269  29.584  56.778  1.00  0.00     0.040 C 
HETATM    5  C   UNL     1       7.563  30.346  57.075  1.00  0.00     0.058 C 
HETATM    6  C   UNL     1       8.773  29.490  56.690  1.00  0.00     0.040 C 
HETATM    7  C   UNL     1       8.745  28.099  57.313  1.00  0.00     0.236 C 
ENDROOT
BRANCH   5   8
HETATM    8  C   UNL     1       7.622  30.752  58.517  1.00  0.00     0.108 A 
HETATM    9  N   UNL     1       8.675  30.645  59.299  1.00  0.00    -0.229 NA
HETATM   10  C   UNL     1       8.284  31.103  60.554  1.00  0.00     0.157 A 
HETATM   11  C   UNL     1       6.960  31.499  60.492  1.00  0.00     0.126 A 
HETATM   12  N   UNL     1       6.555  31.275  59.204  1.00  0.00    -0.352 N 
HETATM   13  H   UNL     1       5.630  31.456  58.833  1.00  0.00     0.166 HD
BRANCH  10  14
HETATM   14  C   UNL     1       9.215  31.125  61.738  1.00  0.00     0.436 C 
HETATM   15  F   UNL     1       9.831  29.926  61.923  1.00  0.00    -0.165 F 
HETATM   16  F   UNL     1      10.194  32.054  61.593  1.00  0.00    -0.165 F 
HETATM   17  F   UNL     1       8.556  31.411  62.890  1.00  0.00    -0.165 F 
ENDBRANCH  10  14
ENDBRANCH   5   8
BRANCH   1  18
HETATM   18  C   UNL     1       7.447  26.008  57.605  1.00  0.00     0.275 C 
BRANCH  18  19
HETATM   19  C   UNL     1       7.692  24.929  56.617  1.00  0.00    -0.001 A 
HETATM   20  C   UNL     1       6.918  24.622  55.509  1.00  0.00     0.057 A 
HETATM   21  O   UNL     1       7.468  23.587  54.822  1.00  0.00    -0.320 OA
HETATM   22  C   UNL     1       5.664  25.177  54.950  1.00  0.00     0.077 C 
HETATM   23  C   UNL     1       8.584  23.198  55.489  1.00  0.00     0.050 A 
HETATM   24  C   UNL     1       9.334  22.061  54.914  1.00  0.00     0.076 C 
HETATM   25  C   UNL     1       8.765  23.989  56.603  1.00  0.00     0.043 A 
ENDBRANCH  18  19
ENDBRANCH   1  18
TORSDOF 4
ENDMDL
MODEL 7
REMARK VINA RESULT:      -8.2      1.724      2.442
REMARK  4 active torsions:
REMARK  status: ('A' for Active; 'I' for Inactive)
REMARK    1  A    between atoms: C_6  and  C_7 
REMARK    2  A    between atoms: C_7  and  N_8 
REMARK    3  A    between atoms: C_12  and  C_13 
REMARK    4  A    between atoms: C_15  and  C_16 
ROOT
HETATM    1  N   UNL     1       6.825  26.927  54.248  1.00  0.00    -0.067 N 
HETATM    2  H   UNL     1       6.157  27.501  53.722  1.00  0.00     0.280 HD
HETATM    3  C   UNL     1       7.822  26.363  53.261  1.00  0.00     0.236 C 
HETATM    4  C   UNL     1       7.124  25.426  52.280  1.00  0.00     0.040 C 
HETATM    5  C   UNL     1       6.335  24.311  52.972  1.00  0.00     0.058 C 
HETATM    6  C   UNL     1       5.374  24.913  54.002  1.00  0.00     0.040 C 
HETATM    7  C   UNL     1       6.062  25.853  54.985  1.00  0.00     0.236 C 
ENDROOT
BRANCH   5   8
HETATM    8  C   UNL     1       7.262  23.320  53.609  1.00  0.00     0.108 A 
HETATM    9  N   UNL     1       7.100  22.775  54.796  1.00  0.00    -0.229 NA
HETATM   10  C   UNL     1       8.199  21.947  55.004  1.00  0.00     0.157 A 
HETATM   11  C   UNL     1       9.021  22.008  53.892  1.00  0.00     0.126 A 
HETATM   12  N   UNL     1       8.419  22.874  53.021  1.00  0.00    -0.352 N 
HETATM   13  H   UNL     1       8.773  23.141  52.111  1.00  0.00     0.166 HD
BRANCH  10  14
HETATM   14  C   UNL     1       8.390  21.151  56.269  1.00  0.00     0.436 C 
HETATM   15  F   UNL     1       8.352  21.940  57.377  1.00  0.00    -0.165 F 
HETATM   16  F   UNL     1       7.425  20.208  56.421  1.00  0.00    -0.165 F 
HETATM   17  F   UNL     1       9.585  20.509  56.282  1.00  0.00    -0.165 F 
ENDBRANCH  10  14
ENDBRANCH   5   8
BRANCH   1  18
HETATM   18  C   UNL     1       7.488  27.864  55.245  1.00  0.00     0.275 C 
BRANCH  18  19
HETATM   19  C   UNL     1       6.521  28.689  56.008  1.00  0.00    -0.001 A 
HETATM   20  C   UNL     1       6.697  29.221  57.276  1.00  0.00     0.057 A 
HETATM   21  O   UNL     1       5.606  29.943  57.639  1.00  0.00    -0.320 OA
HETATM   22  C   UNL     1       7.794  29.161  58.268  1.00  0.00     0.077 C 
HETATM   23  C   UNL     1       4.705  29.866  56.626  1.00  0.00     0.050 A 
HETATM   24  C   UNL     1       3.425  30.576  56.826  1.00  0.00     0.076 C 
HETATM   25  C   UNL     1       5.218  29.102  55.600  1.00  0.00     0.043 A 
ENDBRANCH  18  19
ENDBRANCH   1  18
TORSDOF 4
ENDMDL
MODEL 8
REMARK VINA RESULT:      -8.2      5.058      7.273
REMARK  4 active torsions:
REMARK  status: ('A' for Active; 'I' for Inactive)
REMARK    1  A    between atoms: C_6  and  C_7 
REMARK    2  A    between atoms: C_7  and  N_8 
REMARK    3  A    between atoms: C_12  and  C_13 
REMARK    4  A    between atoms: C_15  and  C_16 
ROOT
HETATM    1  N   UNL     1       6.802  24.965  53.324  1.00  0.00    -0.067 N 
HETATM    2  H   UNL     1       6.616  24.810  54.321  1.00  0.00     0.280 HD
HETATM    3  C   UNL     1       7.331  26.373  53.171  1.00  0.00     0.236 C 
HETATM    4  C   UNL     1       6.265  27.386  53.575  1.00  0.00     0.040 C 
HETATM    5  C   UNL     1       4.944  27.204  52.821  1.00  0.00     0.058 C 
HETATM    6  C   UNL     1       4.465  25.754  52.954  1.00  0.00     0.040 C 
HETATM    7  C   UNL     1       5.524  24.735  52.554  1.00  0.00     0.236 C 
ENDROOT
BRANCH   5   8
HETATM    8  C   UNL     1       5.094  27.596  51.383  1.00  0.00     0.108 A 
HETATM    9  N   UNL     1       4.688  26.889  50.351  1.00  0.00    -0.229 NA
HETATM   10  C   UNL     1       5.053  27.603  49.213  1.00  0.00     0.157 A 
HETATM   11  C   UNL     1       5.684  28.771  49.603  1.00  0.00     0.126 A 
HETATM   12  N   UNL     1       5.702  28.756  50.971  1.00  0.00    -0.352 N 
HETATM   13  H   UNL     1       6.102  29.471  51.566  1.00  0.00     0.166 HD
BRANCH  10  14
HETATM   14  C   UNL     1       4.773  27.109  47.818  1.00  0.00     0.436 C 
HETATM   15  F   UNL     1       5.823  27.327  46.980  1.00  0.00    -0.165 F 
HETATM   16  F   UNL     1       4.521  25.775  47.796  1.00  0.00    -0.165 F 
HETATM   17  F   UNL     1       3.697  27.730  47.271  1.00  0.00    -0.165 F 
ENDBRANCH  10  14
ENDBRANCH   5   8
BRANCH   1  18
HETATM   18  C   UNL     1       7.839  23.928  52.925  1.00  0.00     0.275 C 
BRANCH  18  19
HETATM   19  C   UNL     1       8.022  22.861  53.938  1.00  0.00    -0.001 A 
HETATM   20  C   UNL     1       8.176  21.504  53.702  1.00  0.00     0.057 A 
HETATM   21  O   UNL     1       8.345  20.837  54.873  1.00  0.00    -0.320 OA
HETATM   22  C   UNL     1       8.193  20.674  52.476  1.00  0.00     0.077 C 
HETATM   23  C   UNL     1       8.277  21.748  55.878  1.00  0.00     0.050 A 
HETATM   24  C   UNL     1       8.421  21.225  57.253  1.00  0.00     0.076 C 
HETATM   25  C   UNL     1       8.075  23.008  55.357  1.00  0.00     0.043 A 
ENDBRANCH  18  19
ENDBRANCH   1  18
TORSDOF 4
ENDMDL
MODEL 9
REMARK VINA RESULT:      -8.2      3.375      4.751
REMARK  4 active torsions:
REMARK  status: ('A' for Active; 'I' for Inactive)
REMARK    1  A    between atoms: C_6  and  C_7 
REMARK    2  A    between atoms: C_7  and  N_8 
REMARK    3  A    between atoms: C_12  and  C_13 
REMARK    4  A    between atoms: C_15  and  C_16 
ROOT
HETATM    1  N   UNL     1       6.946  27.892  57.383  1.00  0.00    -0.067 N 
HETATM    2  H   UNL     1       6.883  27.933  58.406  1.00  0.00     0.280 HD
HETATM    3  C   UNL     1       5.593  27.468  56.858  1.00  0.00     0.236 C 
HETATM    4  C   UNL     1       5.260  26.056  57.329  1.00  0.00     0.040 C 
HETATM    5  C   UNL     1       6.341  25.032  56.970  1.00  0.00     0.058 C 
HETATM    6  C   UNL     1       7.706  25.518  57.470  1.00  0.00     0.040 C 
HETATM    7  C   UNL     1       8.045  26.929  57.006  1.00  0.00     0.236 C 
ENDROOT
BRANCH   5   8
HETATM    8  C   UNL     1       6.364  24.777  55.494  1.00  0.00     0.108 A 
HETATM    9  N   UNL     1       5.607  25.381  54.602  1.00  0.00    -0.229 NA
HETATM   10  C   UNL     1       5.929  24.823  53.368  1.00  0.00     0.157 A 
HETATM   11  C   UNL     1       6.915  23.869  53.552  1.00  0.00     0.126 A 
HETATM   12  N   UNL     1       7.181  23.851  54.895  1.00  0.00    -0.352 N 
HETATM   13  H   UNL     1       7.854  23.253  55.357  1.00  0.00     0.166 HD
BRANCH  10  14
HETATM   14  C   UNL     1       5.259  25.243  52.086  1.00  0.00     0.436 C 
HETATM   15  F   UNL     1       6.157  25.429  51.080  1.00  0.00    -0.165 F 
HETATM   16  F   UNL     1       4.368  24.315  51.655  1.00  0.00    -0.165 F 
HETATM   17  F   UNL     1       4.584  26.412  52.232  1.00  0.00    -0.165 F 
ENDBRANCH  10  14
ENDBRANCH   5   8
BRANCH   1  18
HETATM   18  C   UNL     1       7.312  29.295  56.928  1.00  0.00     0.275 C 
BRANCH  18  19
HETATM   19  C   UNL     1       8.245  29.987  57.850  1.00  0.00    -0.001 A 
HETATM   20  C   UNL     1       9.605  30.178  57.670  1.00  0.00     0.057 A 
HETATM   21  O   UNL     1      10.126  30.877  58.712  1.00  0.00    -0.320 OA
HETATM   22  C   UNL     1      10.562  29.790  56.608  1.00  0.00     0.077 C 
HETATM   23  C   UNL     1       9.117  31.120  59.587  1.00  0.00     0.050 A 
HETATM   24  C   UNL     1       9.473  31.862  60.815  1.00  0.00     0.076 C 
HETATM   25  C   UNL     1       7.939  30.590  59.106  1.00  0.00     0.043 A 
ENDBRANCH  18  19
ENDBRANCH   1  18
TORSDOF 4
ENDMDL
MODEL 10
REMARK VINA RESULT:      -8.1      2.401      4.308
REMARK  4 active torsions:
REMARK  status: ('A' for Active; 'I' for Inactive)
REMARK    1  A    between atoms: C_6  and  C_7 
REMARK    2  A    between atoms: C_7  and  N_8 
REMARK    3  A    between atoms: C_12  and  C_13 
REMARK    4  A    between atoms: C_15  and  C_16 
ROOT
HETATM    1  N   UNL     1       6.234  27.337  55.210  1.00  0.00    -0.067 N 
HETATM    2  H   UNL     1       5.667  27.914  55.842  1.00  0.00     0.280 HD
HETATM    3  C   UNL     1       5.490  26.041  54.982  1.00  0.00     0.236 C 
HETATM    4  C   UNL     1       5.369  25.263  56.288  1.00  0.00     0.040 C 
HETATM    5  C   UNL     1       6.719  25.016  56.968  1.00  0.00     0.058 C 
HETATM    6  C   UNL     1       7.468  26.342  57.136  1.00  0.00     0.040 C 
HETATM    7  C   UNL     1       7.591  27.128  55.836  1.00  0.00     0.236 C 
ENDROOT
BRANCH   5   8
HETATM    8  C   UNL     1       7.534  24.027  56.191  1.00  0.00     0.108 A 
HETATM    9  N   UNL     1       7.064  23.184  55.297  1.00  0.00    -0.229 NA
HETATM   10  C   UNL     1       8.149  22.437  54.849  1.00  0.00     0.157 A 
HETATM   11  C   UNL     1       9.290  22.872  55.501  1.00  0.00     0.126 A 
HETATM   12  N   UNL     1       8.889  23.874  56.341  1.00  0.00    -0.352 N 
HETATM   13  H   UNL     1       9.489  24.399  56.966  1.00  0.00     0.166 HD
BRANCH  10  14
HETATM   14  C   UNL     1       8.016  21.344  53.821  1.00  0.00     0.436 C 
HETATM   15  F   UNL     1       7.322  20.276  54.300  1.00  0.00    -0.165 F 
HETATM   16  F   UNL     1       7.364  21.773  52.710  1.00  0.00    -0.165 F 
HETATM   17  F   UNL     1       9.227  20.879  53.422  1.00  0.00    -0.165 F 
ENDBRANCH  10  14
ENDBRANCH   5   8
BRANCH   1  18
HETATM   18  C   UNL     1       6.377  28.138  53.926  1.00  0.00     0.275 C 
BRANCH  18  19
HETATM   19  C   UNL     1       6.076  27.351  52.706  1.00  0.00    -0.001 A 
HETATM   20  C   UNL     1       6.770  26.247  52.235  1.00  0.00     0.057 A 
HETATM   21  O   UNL     1       6.187  25.772  51.103  1.00  0.00    -0.320 OA
HETATM   22  C   UNL     1       7.967  25.513  52.704  1.00  0.00     0.077 C 
HETATM   23  C   UNL     1       5.132  26.576  50.816  1.00  0.00     0.050 A 
HETATM   24  C   UNL     1       4.360  26.244  49.600  1.00  0.00     0.076 C 
HETATM   25  C   UNL     1       5.022  27.566  51.769  1.00  0.00     0.043 A 
ENDBRANCH  18  19
ENDBRANCH   1  18
TORSDOF 4
ENDMDL
