MODEL 1
REMARK VINA RESULT:     -10.0      0.000      0.000
REMARK  6 active torsions:
REMARK  status: ('A' for Active; 'I' for Inactive)
REMARK    1  A    between atoms: C_5  and  C_6 
REMARK    2  A    between atoms: C_12  and  C_13 
REMARK       I    between atoms: C_13  and  N_14 
REMARK    3  A    between atoms: N_14  and  C_15 
REMARK    4  A    between atoms: C_18  and  C_19 
REMARK    5  A    between atoms: C_19  and  O_20 
REMARK    6  A    between atoms: C_25  and  C_26 
ROOT
HETATM    1  C   UNL     1       5.812  24.738  53.634  1.00  0.00     0.118 C 
HETATM    2  N   UNL     1       6.039  25.875  54.544  1.00  0.00    -0.365 N 
HETATM    3  C   UNL     1       5.311  27.010  54.325  1.00  0.00     0.138 A 
HETATM    4  N   UNL     1       4.677  27.218  53.119  1.00  0.00    -0.240 N 
HETATM    5  N   UNL     1       3.941  28.336  53.084  1.00  0.00    -0.181 NA
HETATM    6  C   UNL     1       4.198  28.912  54.260  1.00  0.00     0.160 A 
HETATM    7  C   UNL     1       5.047  28.133  55.088  1.00  0.00     0.096 A 
HETATM    8  C   UNL     1       4.719  26.304  51.992  1.00  0.00     0.221 C 
HETATM    9  C   UNL     1       5.832  25.257  52.192  1.00  0.00     0.066 C 
HETATM   10  H   UNL     1       7.032  25.996  54.764  1.00  0.00     0.161 HD
ENDROOT
BRANCH   7  11
HETATM   11  C   UNL     1       5.462  28.487  56.437  1.00  0.00     0.261 C 
HETATM   12  N   UNL     1       6.248  29.621  56.508  1.00  0.00    -0.323 N 
HETATM   13  H   UNL     1       6.480  30.044  55.616  1.00  0.00     0.169 HD
HETATM   14  O   UNL     1       5.113  27.793  57.385  1.00  0.00    -0.267 OA
BRANCH  12  15
HETATM   15  C   UNL     1       6.774  30.233  57.663  1.00  0.00     0.035 A 
HETATM   16  C   UNL     1       7.860  29.737  58.382  1.00  0.00     0.030 A 
HETATM   17  C   UNL     1       8.318  30.396  59.529  1.00  0.00     0.012 A 
HETATM   18  C   UNL     1       7.695  31.563  59.997  1.00  0.00    -0.030 A 
HETATM   19  C   UNL     1       6.617  32.068  59.260  1.00  0.00     0.012 A 
HETATM   20  C   UNL     1       6.162  31.410  58.107  1.00  0.00     0.030 A 
BRANCH  18  21
HETATM   21  C   UNL     1       8.239  32.221  61.247  1.00  0.00     0.147 C 
HETATM   22  C   UNL     1       9.685  31.897  61.605  1.00  0.00     0.044 C 
BRANCH  21  23
HETATM   23  O   UNL     1       7.401  31.840  62.336  1.00  0.00    -0.391 OA
HETATM   24  H   UNL     1       7.979  31.495  63.036  1.00  0.00     0.210 HD
ENDBRANCH  21  23
ENDBRANCH  18  21
ENDBRANCH  12  15
ENDBRANCH   7  11
BRANCH   1  25
HETATM   25  C   UNL     1       6.788  23.623  53.960  1.00  0.00    -0.035 A 
HETATM   26  C   UNL     1       7.050  23.333  55.312  1.00  0.00     0.010 A 
HETATM   27  C   UNL     1       7.894  22.282  55.676  1.00  0.00     0.007 A 
HETATM   28  C   UNL     1       8.511  21.499  54.696  1.00  0.00    -0.062 A 
HETATM   29  C   UNL     1       9.366  20.327  55.078  1.00  0.00     0.048 C 
HETATM   30  C   UNL     1       8.263  21.782  53.350  1.00  0.00     0.007 A 
HETATM   31  C   UNL     1       7.420  22.838  52.985  1.00  0.00     0.010 A 
ENDBRANCH   1  25
BRANCH   8  32
HETATM   32  C   UNL     1       4.944  27.028  50.680  1.00  0.00     0.409 C 
HETATM   33  F   UNL     1       3.838  27.618  50.187  1.00  0.00    -0.169 F 
HETATM   34  F   UNL     1       5.925  27.955  50.767  1.00  0.00    -0.169 F 
HETATM   35  F   UNL     1       5.346  26.133  49.735  1.00  0.00    -0.169 F 
ENDBRANCH   8  32
TORSDOF 6
ENDMDL
MODEL 2
REMARK VINA RESULT:      -9.7      3.060      8.805
REMARK  6 active torsions:
REMARK  status: ('A' for Active; 'I' for Inactive)
REMARK    1  A    between atoms: C_5  and  C_6 
REMARK    2  A    between atoms: C_12  and  C_13 
REMARK       I    between atoms: C_13  and  N_14 
REMARK    3  A    between atoms: N_14  and  C_15 
REMARK    4  A    between atoms: C_18  and  C_19 
REMARK    5  A    between atoms: C_19  and  O_20 
REMARK    6  A    between atoms: C_25  and  C_26 
ROOT
HETATM    1  C   UNL     1       6.301  31.451  57.588  1.00  0.00     0.118 C 
HETATM    2  N   UNL     1       6.400  30.041  57.169  1.00  0.00    -0.365 N 
HETATM    3  C   UNL     1       5.849  29.705  55.966  1.00  0.00     0.138 A 
HETATM    4  N   UNL     1       4.939  30.536  55.350  1.00  0.00    -0.240 N 
HETATM    5  N   UNL     1       4.548  30.108  54.144  1.00  0.00    -0.181 NA
HETATM    6  C   UNL     1       5.141  28.917  54.032  1.00  0.00     0.160 A 
HETATM    7  C   UNL     1       5.973  28.604  55.137  1.00  0.00     0.096 A 
HETATM    8  C   UNL     1       4.474  31.801  55.891  1.00  0.00     0.221 C 
HETATM    9  C   UNL     1       4.858  31.921  57.379  1.00  0.00     0.066 C 
HETATM   10  H   UNL     1       6.240  29.398  57.950  1.00  0.00     0.161 HD
ENDROOT
BRANCH   7  11
HETATM   11  C   UNL     1       6.775  27.397  55.271  1.00  0.00     0.261 C 
HETATM   12  N   UNL     1       6.342  26.340  54.493  1.00  0.00    -0.323 N 
HETATM   13  H   UNL     1       5.496  26.513  53.960  1.00  0.00     0.169 HD
HETATM   14  O   UNL     1       7.738  27.385  56.029  1.00  0.00    -0.267 OA
BRANCH  12  15
HETATM   15  C   UNL     1       6.923  25.061  54.377  1.00  0.00     0.035 A 
HETATM   16  C   UNL     1       7.580  24.605  53.235  1.00  0.00     0.030 A 
HETATM   17  C   UNL     1       8.122  23.315  53.192  1.00  0.00     0.012 A 
HETATM   18  C   UNL     1       8.010  22.440  54.283  1.00  0.00    -0.030 A 
HETATM   19  C   UNL     1       7.365  22.910  55.433  1.00  0.00     0.012 A 
HETATM   20  C   UNL     1       6.828  24.206  55.479  1.00  0.00     0.030 A 
BRANCH  18  21
HETATM   21  C   UNL     1       8.614  21.057  54.165  1.00  0.00     0.147 C 
HETATM   22  C   UNL     1       8.488  20.380  52.805  1.00  0.00     0.044 C 
BRANCH  21  23
HETATM   23  O   UNL     1       7.996  20.229  55.147  1.00  0.00    -0.391 OA
HETATM   24  H   UNL     1       8.319  20.522  56.014  1.00  0.00     0.210 HD
ENDBRANCH  21  23
ENDBRANCH  18  21
ENDBRANCH  12  15
ENDBRANCH   7  11
BRANCH   1  25
HETATM   25  C   UNL     1       6.861  31.604  58.991  1.00  0.00    -0.035 A 
HETATM   26  C   UNL     1       6.224  32.495  59.874  1.00  0.00     0.010 A 
HETATM   27  C   UNL     1       6.657  32.638  61.195  1.00  0.00     0.007 A 
HETATM   28  C   UNL     1       7.747  31.902  61.664  1.00  0.00    -0.062 A 
HETATM   29  C   UNL     1       8.177  31.999  63.098  1.00  0.00     0.048 C 
HETATM   30  C   UNL     1       8.391  31.018  60.793  1.00  0.00     0.007 A 
HETATM   31  C   UNL     1       7.960  30.878  59.469  1.00  0.00     0.010 A 
ENDBRANCH   1  25
BRANCH   8  32
HETATM   32  C   UNL     1       2.975  31.965  55.747  1.00  0.00     0.409 C 
HETATM   33  F   UNL     1       2.573  32.219  54.486  1.00  0.00    -0.169 F 
HETATM   34  F   UNL     1       2.294  30.891  56.208  1.00  0.00    -0.169 F 
HETATM   35  F   UNL     1       2.565  33.028  56.493  1.00  0.00    -0.169 F 
ENDBRANCH   8  32
TORSDOF 6
ENDMDL
MODEL 3
REMARK VINA RESULT:      -9.4      2.985      5.256
REMARK  6 active torsions:
REMARK  status: ('A' for Active; 'I' for Inactive)
REMARK    1  A    between atoms: C_5  and  C_6 
REMARK    2  A    between atoms: C_12  and  C_13 
REMARK       I    between atoms: C_13  and  N_14 
REMARK    3  A    between atoms: N_14  and  C_15 
REMARK    4  A    between atoms: C_18  and  C_19 
REMARK    5  A    between atoms: C_19  and  O_20 
REMARK    6  A    between atoms: C_25  and  C_26 
ROOT
HETATM    1  C   UNL     1       7.291  25.380  52.891  1.00  0.00     0.118 C 
HETATM    2  N   UNL     1       7.119  25.716  54.316  1.00  0.00    -0.365 N 
HETATM    3  C   UNL     1       7.863  25.015  55.220  1.00  0.00     0.138 A 
HETATM    4  N   UNL     1       8.462  23.824  54.869  1.00  0.00    -0.240 N 
HETATM    5  N   UNL     1       9.220  23.295  55.837  1.00  0.00    -0.181 NA
HETATM    6  C   UNL     1       9.015  24.115  56.871  1.00  0.00     0.160 A 
HETATM    7  C   UNL     1       8.177  25.214  56.553  1.00  0.00     0.096 A 
HETATM    8  C   UNL     1       8.361  23.201  53.561  1.00  0.00     0.221 C 
HETATM    9  C   UNL     1       7.233  23.856  52.740  1.00  0.00     0.066 C 
HETATM   10  H   UNL     1       6.136  25.884  54.553  1.00  0.00     0.161 HD
ENDROOT
BRANCH   7  11
HETATM   11  C   UNL     1       7.816  26.288  57.466  1.00  0.00     0.261 C 
HETATM   12  N   UNL     1       7.909  27.553  56.918  1.00  0.00    -0.323 N 
HETATM   13  H   UNL     1       8.260  27.588  55.967  1.00  0.00     0.169 HD
HETATM   14  O   UNL     1       7.470  26.024  58.612  1.00  0.00    -0.267 OA
BRANCH  12  15
HETATM   15  C   UNL     1       7.597  28.783  57.531  1.00  0.00     0.035 A 
HETATM   16  C   UNL     1       8.482  29.497  58.338  1.00  0.00     0.030 A 
HETATM   17  C   UNL     1       8.094  30.708  58.923  1.00  0.00     0.012 A 
HETATM   18  C   UNL     1       6.807  31.233  58.729  1.00  0.00    -0.030 A 
HETATM   19  C   UNL     1       5.930  30.520  57.903  1.00  0.00     0.012 A 
HETATM   20  C   UNL     1       6.321  29.310  57.311  1.00  0.00     0.030 A 
BRANCH  18  21
HETATM   21  C   UNL     1       6.453  32.544  59.397  1.00  0.00     0.147 C 
HETATM   22  C   UNL     1       5.736  32.446  60.739  1.00  0.00     0.044 C 
BRANCH  21  23
HETATM   23  O   UNL     1       5.636  33.284  58.494  1.00  0.00    -0.391 OA
HETATM   24  H   UNL     1       6.175  33.478  57.711  1.00  0.00     0.210 HD
ENDBRANCH  21  23
ENDBRANCH  18  21
ENDBRANCH  12  15
ENDBRANCH   7  11
BRANCH   1  25
HETATM   25  C   UNL     1       6.301  26.175  52.058  1.00  0.00    -0.035 A 
HETATM   26  C   UNL     1       6.064  27.519  52.399  1.00  0.00     0.010 A 
HETATM   27  C   UNL     1       5.208  28.318  51.637  1.00  0.00     0.007 A 
HETATM   28  C   UNL     1       4.557  27.790  50.520  1.00  0.00    -0.062 A 
HETATM   29  C   UNL     1       3.690  28.659  49.657  1.00  0.00     0.048 C 
HETATM   30  C   UNL     1       4.782  26.454  50.175  1.00  0.00     0.007 A 
HETATM   31  C   UNL     1       5.636  25.652  50.941  1.00  0.00     0.010 A 
ENDBRANCH   1  25
BRANCH   8  32
HETATM   32  C   UNL     1       8.108  21.710  53.659  1.00  0.00     0.409 C 
HETATM   33  F   UNL     1       7.410  21.207  52.622  1.00  0.00    -0.169 F 
HETATM   34  F   UNL     1       9.253  21.003  53.791  1.00  0.00    -0.169 F 
HETATM   35  F   UNL     1       7.367  21.453  54.772  1.00  0.00    -0.169 F 
ENDBRANCH   8  32
TORSDOF 6
ENDMDL
MODEL 4
REMARK VINA RESULT:      -9.3      4.021      8.857
REMARK  6 active torsions:
REMARK  status: ('A' for Active; 'I' for Inactive)
REMARK    1  A    between atoms: C_5  and  C_6 
REMARK    2  A    between atoms: C_12  and  C_13 
REMARK       I    between atoms: C_13  and  N_14 
REMARK    3  A    between atoms: N_14  and  C_15 
REMARK    4  A    between atoms: C_18  and  C_19 
REMARK    5  A    between atoms: C_19  and  O_20 
REMARK    6  A    between atoms: C_25  and  C_26 
ROOT
HETATM    1  C   UNL     1       7.312  26.942  56.427  1.00  0.00     0.118 C 
HETATM    2  N   UNL     1       7.057  27.253  55.009  1.00  0.00    -0.365 N 
HETATM    3  C   UNL     1       6.527  26.261  54.235  1.00  0.00     0.138 A 
HETATM    4  N   UNL     1       6.569  24.946  54.647  1.00  0.00    -0.240 N 
HETATM    5  N   UNL     1       5.941  24.102  53.819  1.00  0.00    -0.181 NA
HETATM    6  C   UNL     1       5.582  24.882  52.797  1.00  0.00     0.160 A 
HETATM    7  C   UNL     1       5.916  26.246  52.993  1.00  0.00     0.096 A 
HETATM    8  C   UNL     1       7.165  24.487  55.888  1.00  0.00     0.221 C 
HETATM    9  C   UNL     1       8.039  25.595  56.506  1.00  0.00     0.066 C 
HETATM   10  H   UNL     1       7.811  27.810  54.598  1.00  0.00     0.161 HD
ENDROOT
BRANCH   7  11
HETATM   11  C   UNL     1       5.610  27.328  52.070  1.00  0.00     0.261 C 
HETATM   12  N   UNL     1       4.827  26.951  50.996  1.00  0.00    -0.323 N 
HETATM   13  H   UNL     1       4.597  25.964  50.952  1.00  0.00     0.169 HD
HETATM   14  O   UNL     1       6.045  28.454  52.283  1.00  0.00    -0.267 OA
BRANCH  12  15
HETATM   15  C   UNL     1       4.337  27.769  49.957  1.00  0.00     0.035 A 
HETATM   16  C   UNL     1       3.226  28.601  50.079  1.00  0.00     0.030 A 
HETATM   17  C   UNL     1       2.794  29.377  48.997  1.00  0.00     0.012 A 
HETATM   18  C   UNL     1       3.451  29.332  47.758  1.00  0.00    -0.030 A 
HETATM   19  C   UNL     1       4.577  28.507  47.647  1.00  0.00     0.012 A 
HETATM   20  C   UNL     1       5.015  27.736  48.734  1.00  0.00     0.030 A 
BRANCH  18  21
HETATM   21  C   UNL     1       2.925  30.191  46.630  1.00  0.00     0.147 C 
HETATM   22  C   UNL     1       2.672  31.658  46.959  1.00  0.00     0.044 C 
BRANCH  21  23
HETATM   23  O   UNL     1       1.707  29.608  46.172  1.00  0.00    -0.391 OA
HETATM   24  H   UNL     1       1.673  28.703  46.521  1.00  0.00     0.210 HD
ENDBRANCH  21  23
ENDBRANCH  18  21
ENDBRANCH  12  15
ENDBRANCH   7  11
BRANCH   1  25
HETATM   25  C   UNL     1       8.006  28.119  57.088  1.00  0.00    -0.035 A 
HETATM   26  C   UNL     1       9.254  28.531  56.588  1.00  0.00     0.010 A 
HETATM   27  C   UNL     1       9.915  29.642  57.118  1.00  0.00     0.007 A 
HETATM   28  C   UNL     1       9.350  30.364  58.171  1.00  0.00    -0.062 A 
HETATM   29  C   UNL     1      10.020  31.598  58.701  1.00  0.00     0.048 C 
HETATM   30  C   UNL     1       8.112  29.960  58.680  1.00  0.00     0.007 A 
HETATM   31  C   UNL     1       7.452  28.845  58.152  1.00  0.00     0.010 A 
ENDBRANCH   1  25
BRANCH   8  32
HETATM   32  C   UNL     1       8.005  23.241  55.688  1.00  0.00     0.409 C 
HETATM   33  F   UNL     1       7.283  22.109  55.576  1.00  0.00    -0.169 F 
HETATM   34  F   UNL     1       8.822  23.339  54.616  1.00  0.00    -0.169 F 
HETATM   35  F   UNL     1       8.813  23.065  56.771  1.00  0.00    -0.169 F 
ENDBRANCH   8  32
TORSDOF 6
ENDMDL
MODEL 5
REMARK VINA RESULT:      -9.2      7.888     13.430
REMARK  6 active torsions:
REMARK  status: ('A' for Active; 'I' for Inactive)
REMARK    1  A    between atoms: C_5  and  C_6 
REMARK    2  A    between atoms: C_12  and  C_13 
REMARK       I    between atoms: C_13  and  N_14 
REMARK    3  A    between atoms: N_14  and  C_15 
REMARK    4  A    between atoms: C_18  and  C_19 
REMARK    5  A    between atoms: C_19  and  O_20 
REMARK    6  A    between atoms: C_25  and  C_26 
ROOT
HETATM    1  C   UNL     1       5.320  36.622  63.446  1.00  0.00     0.118 C 
HETATM    2  N   UNL     1       5.932  35.538  62.656  1.00  0.00    -0.365 N 
HETATM    3  C   UNL     1       5.613  34.255  62.999  1.00  0.00     0.138 A 
HETATM    4  N   UNL     1       5.054  33.972  64.227  1.00  0.00    -0.240 N 
HETATM    5  N   UNL     1       4.727  32.684  64.385  1.00  0.00    -0.181 NA
HETATM    6  C   UNL     1       5.189  32.109  63.272  1.00  0.00     0.160 A 
HETATM    7  C   UNL     1       5.753  33.037  62.360  1.00  0.00     0.096 A 
HETATM    8  C   UNL     1       4.764  34.958  65.252  1.00  0.00     0.221 C 
HETATM    9  C   UNL     1       5.475  36.288  64.933  1.00  0.00     0.066 C 
HETATM   10  H   UNL     1       6.914  35.731  62.439  1.00  0.00     0.161 HD
ENDROOT
BRANCH   7  11
HETATM   11  C   UNL     1       6.295  32.705  61.051  1.00  0.00     0.261 C 
HETATM   12  N   UNL     1       7.485  32.005  61.091  1.00  0.00    -0.323 N 
HETATM   13  H   UNL     1       7.863  31.846  62.019  1.00  0.00     0.169 HD
HETATM   14  O   UNL     1       5.698  33.051  60.037  1.00  0.00    -0.267 OA
BRANCH  12  15
HETATM   15  C   UNL     1       8.234  31.515  60.002  1.00  0.00     0.035 A 
HETATM   16  C   UNL     1       7.841  30.440  59.208  1.00  0.00     0.030 A 
HETATM   17  C   UNL     1       8.645  30.003  58.149  1.00  0.00     0.012 A 
HETATM   18  C   UNL     1       9.873  30.620  57.863  1.00  0.00    -0.030 A 
HETATM   19  C   UNL     1      10.254  31.712  58.652  1.00  0.00     0.012 A 
HETATM   20  C   UNL     1       9.444  32.154  59.709  1.00  0.00     0.030 A 
BRANCH  18  21
HETATM   21  C   UNL     1      10.695  30.092  56.708  1.00  0.00     0.147 C 
HETATM   22  C   UNL     1      10.157  28.849  56.008  1.00  0.00     0.044 C 
BRANCH  21  23
HETATM   23  O   UNL     1      12.003  29.810  57.200  1.00  0.00    -0.391 OA
HETATM   24  H   UNL     1      12.106  30.292  58.036  1.00  0.00     0.210 HD
ENDBRANCH  21  23
ENDBRANCH  18  21
ENDBRANCH  12  15
ENDBRANCH   7  11
BRANCH   1  25
HETATM   25  C   UNL     1       5.882  37.959  62.995  1.00  0.00    -0.035 A 
HETATM   26  C   UNL     1       6.031  38.194  61.617  1.00  0.00     0.010 A 
HETATM   27  C   UNL     1       6.489  39.424  61.138  1.00  0.00     0.007 A 
HETATM   28  C   UNL     1       6.822  40.448  62.028  1.00  0.00    -0.062 A 
HETATM   29  C   UNL     1       7.250  41.794  61.521  1.00  0.00     0.048 C 
HETATM   30  C   UNL     1       6.682  40.224  63.401  1.00  0.00     0.007 A 
HETATM   31  C   UNL     1       6.227  38.990  63.880  1.00  0.00     0.010 A 
ENDBRANCH   1  25
BRANCH   8  32
HETATM   32  C   UNL     1       5.184  34.486  66.630  1.00  0.00     0.409 C 
HETATM   33  F   UNL     1       4.294  33.662  67.217  1.00  0.00    -0.169 F 
HETATM   34  F   UNL     1       6.391  33.879  66.619  1.00  0.00    -0.169 F 
HETATM   35  F   UNL     1       5.302  35.562  67.457  1.00  0.00    -0.169 F 
ENDBRANCH   8  32
TORSDOF 6
ENDMDL
MODEL 6
REMARK VINA RESULT:      -9.1      5.138      8.511
REMARK  6 active torsions:
REMARK  status: ('A' for Active; 'I' for Inactive)
REMARK    1  A    between atoms: C_5  and  C_6 
REMARK    2  A    between atoms: C_12  and  C_13 
REMARK       I    between atoms: C_13  and  N_14 
REMARK    3  A    between atoms: N_14  and  C_15 
REMARK    4  A    between atoms: C_18  and  C_19 
REMARK    5  A    between atoms: C_19  and  O_20 
REMARK    6  A    between atoms: C_25  and  C_26 
ROOT
HETATM    1  C   UNL     1       5.051  30.211  48.759  1.00  0.00     0.118 C 
HETATM    2  N   UNL     1       5.162  29.284  49.900  1.00  0.00    -0.365 N 
HETATM    3  C   UNL     1       4.781  27.989  49.696  1.00  0.00     0.138 A 
HETATM    4  N   UNL     1       3.999  27.646  48.614  1.00  0.00    -0.240 N 
HETATM    5  N   UNL     1       3.774  26.331  48.507  1.00  0.00    -0.181 NA
HETATM    6  C   UNL     1       4.336  25.831  49.610  1.00  0.00     0.160 A 
HETATM    7  C   UNL     1       4.987  26.814  50.398  1.00  0.00     0.096 A 
HETATM    8  C   UNL     1       3.504  28.582  47.621  1.00  0.00     0.221 C 
HETATM    9  C   UNL     1       3.671  30.031  48.119  1.00  0.00     0.066 C 
HETATM   10  H   UNL     1       4.869  29.722  50.778  1.00  0.00     0.161 HD
ENDROOT
BRANCH   7  11
HETATM   11  C   UNL     1       5.720  26.557  51.628  1.00  0.00     0.261 C 
HETATM   12  N   UNL     1       5.760  25.225  51.994  1.00  0.00    -0.323 N 
HETATM   13  H   UNL     1       5.240  24.595  51.394  1.00  0.00     0.169 HD
HETATM   14  O   UNL     1       6.231  27.487  52.241  1.00  0.00    -0.267 OA
BRANCH  12  15
HETATM   15  C   UNL     1       6.415  24.657  53.106  1.00  0.00     0.035 A 
HETATM   16  C   UNL     1       6.042  24.884  54.429  1.00  0.00     0.030 A 
HETATM   17  C   UNL     1       6.750  24.292  55.482  1.00  0.00     0.012 A 
HETATM   18  C   UNL     1       7.859  23.467  55.242  1.00  0.00    -0.030 A 
HETATM   19  C   UNL     1       8.218  23.227  53.910  1.00  0.00     0.012 A 
HETATM   20  C   UNL     1       7.503  23.815  52.855  1.00  0.00     0.030 A 
BRANCH  18  21
HETATM   21  C   UNL     1       8.582  22.865  56.427  1.00  0.00     0.147 C 
HETATM   22  C   UNL     1       8.415  21.363  56.628  1.00  0.00     0.044 C 
BRANCH  21  23
HETATM   23  O   UNL     1       8.128  23.537  57.599  1.00  0.00    -0.391 OA
HETATM   24  H   UNL     1       7.632  24.319  57.308  1.00  0.00     0.210 HD
ENDBRANCH  21  23
ENDBRANCH  18  21
ENDBRANCH  12  15
ENDBRANCH   7  11
BRANCH   1  25
HETATM   25  C   UNL     1       5.405  31.617  49.209  1.00  0.00    -0.035 A 
HETATM   26  C   UNL     1       5.275  31.938  50.572  1.00  0.00     0.010 A 
HETATM   27  C   UNL     1       5.639  33.197  51.057  1.00  0.00     0.007 A 
HETATM   28  C   UNL     1       6.131  34.173  50.187  1.00  0.00    -0.062 A 
HETATM   29  C   UNL     1       6.587  35.504  50.709  1.00  0.00     0.048 C 
HETATM   30  C   UNL     1       6.259  33.866  48.829  1.00  0.00     0.007 A 
HETATM   31  C   UNL     1       5.891  32.606  48.344  1.00  0.00     0.010 A 
ENDBRANCH   1  25
BRANCH   8  32
HETATM   32  C   UNL     1       2.048  28.335  47.282  1.00  0.00     0.409 C 
HETATM   33  F   UNL     1       1.453  29.364  46.649  1.00  0.00    -0.169 F 
HETATM   34  F   UNL     1       1.876  27.217  46.542  1.00  0.00    -0.169 F 
HETATM   35  F   UNL     1       1.345  28.144  48.433  1.00  0.00    -0.169 F 
ENDBRANCH   8  32
TORSDOF 6
ENDMDL
MODEL 7
REMARK VINA RESULT:      -9.0      1.430      1.753
REMARK  6 active torsions:
REMARK  status: ('A' for Active; 'I' for Inactive)
REMARK    1  A    between atoms: C_5  and  C_6 
REMARK    2  A    between atoms: C_12  and  C_13 
REMARK       I    between atoms: C_13  and  N_14 
REMARK    3  A    between atoms: N_14  and  C_15 
REMARK    4  A    between atoms: C_18  and  C_19 
REMARK    5  A    between atoms: C_19  and  O_20 
REMARK    6  A    between atoms: C_25  and  C_26 
ROOT
HETATM    1  C   UNL     1       5.575  25.847  53.286  1.00  0.00     0.118 C 
HETATM    2  N   UNL     1       5.714  26.918  54.289  1.00  0.00    -0.365 N 
HETATM    3  C   UNL     1       4.979  28.053  54.101  1.00  0.00     0.138 A 
HETATM    4  N   UNL     1       4.427  28.340  52.871  1.00  0.00    -0.240 N 
HETATM    5  N   UNL     1       3.672  29.445  52.864  1.00  0.00    -0.181 NA
HETATM    6  C   UNL     1       3.834  29.937  54.095  1.00  0.00     0.160 A 
HETATM    7  C   UNL     1       4.639  29.113  54.922  1.00  0.00     0.096 A 
HETATM    8  C   UNL     1       4.567  27.511  51.687  1.00  0.00     0.221 C 
HETATM    9  C   UNL     1       5.686  26.470  51.891  1.00  0.00     0.066 C 
HETATM   10  H   UNL     1       6.686  27.037  54.588  1.00  0.00     0.161 HD
ENDROOT
BRANCH   7  11
HETATM   11  C   UNL     1       4.951  29.374  56.319  1.00  0.00     0.261 C 
HETATM   12  N   UNL     1       5.036  30.715  56.640  1.00  0.00    -0.323 N 
HETATM   13  H   UNL     1       4.919  31.355  55.862  1.00  0.00     0.169 HD
HETATM   14  O   UNL     1       5.115  28.437  57.093  1.00  0.00    -0.267 OA
BRANCH  12  15
HETATM   15  C   UNL     1       5.288  31.285  57.905  1.00  0.00     0.035 A 
HETATM   16  C   UNL     1       6.555  31.379  58.478  1.00  0.00     0.030 A 
HETATM   17  C   UNL     1       6.723  31.949  59.745  1.00  0.00     0.012 A 
HETATM   18  C   UNL     1       5.628  32.427  60.482  1.00  0.00    -0.030 A 
HETATM   19  C   UNL     1       4.361  32.345  59.893  1.00  0.00     0.012 A 
HETATM   20  C   UNL     1       4.193  31.781  58.619  1.00  0.00     0.030 A 
BRANCH  18  21
HETATM   21  C   UNL     1       5.882  33.024  61.849  1.00  0.00     0.147 C 
HETATM   22  C   UNL     1       5.010  34.212  62.239  1.00  0.00     0.044 C 
BRANCH  21  23
HETATM   23  O   UNL     1       7.250  33.423  61.901  1.00  0.00    -0.391 OA
HETATM   24  H   UNL     1       7.567  33.483  60.985  1.00  0.00     0.210 HD
ENDBRANCH  21  23
ENDBRANCH  18  21
ENDBRANCH  12  15
ENDBRANCH   7  11
BRANCH   1  25
HETATM   25  C   UNL     1       6.550  24.726  53.600  1.00  0.00    -0.035 A 
HETATM   26  C   UNL     1       6.712  24.334  54.941  1.00  0.00     0.010 A 
HETATM   27  C   UNL     1       7.551  23.272  55.287  1.00  0.00     0.007 A 
HETATM   28  C   UNL     1       8.260  22.581  54.301  1.00  0.00    -0.062 A 
HETATM   29  C   UNL     1       9.110  21.397  54.657  1.00  0.00     0.048 C 
HETATM   30  C   UNL     1       8.110  22.967  52.966  1.00  0.00     0.007 A 
HETATM   31  C   UNL     1       7.273  24.033  52.619  1.00  0.00     0.010 A 
ENDBRANCH   1  25
BRANCH   8  32
HETATM   32  C   UNL     1       4.869  28.334  50.450  1.00  0.00     0.409 C 
HETATM   33  F   UNL     1       3.786  28.933  49.918  1.00  0.00    -0.169 F 
HETATM   34  F   UNL     1       5.814  29.273  50.676  1.00  0.00    -0.169 F 
HETATM   35  F   UNL     1       5.364  27.518  49.478  1.00  0.00    -0.169 F 
ENDBRANCH   8  32
TORSDOF 6
ENDMDL
MODEL 8
REMARK VINA RESULT:      -8.5      2.875      5.343
REMARK  6 active torsions:
REMARK  status: ('A' for Active; 'I' for Inactive)
REMARK    1  A    between atoms: C_5  and  C_6 
REMARK    2  A    between atoms: C_12  and  C_13 
REMARK       I    between atoms: C_13  and  N_14 
REMARK    3  A    between atoms: N_14  and  C_15 
REMARK    4  A    between atoms: C_18  and  C_19 
REMARK    5  A    between atoms: C_19  and  O_20 
REMARK    6  A    between atoms: C_25  and  C_26 
ROOT
HETATM    1  C   UNL     1       5.911  26.721  51.624  1.00  0.00     0.118 C 
HETATM    2  N   UNL     1       5.480  27.438  52.837  1.00  0.00    -0.365 N 
HETATM    3  C   UNL     1       6.246  27.292  53.958  1.00  0.00     0.138 A 
HETATM    4  N   UNL     1       7.150  26.257  54.064  1.00  0.00    -0.240 N 
HETATM    5  N   UNL     1       7.879  26.291  55.186  1.00  0.00    -0.181 NA
HETATM    6  C   UNL     1       7.352  27.313  55.865  1.00  0.00     0.160 A 
HETATM    7  C   UNL     1       6.327  27.986  55.153  1.00  0.00     0.096 A 
HETATM    8  C   UNL     1       7.371  25.244  53.048  1.00  0.00     0.221 C 
HETATM    9  C   UNL     1       6.237  25.273  52.005  1.00  0.00     0.066 C 
HETATM   10  H   UNL     1       4.464  27.405  52.961  1.00  0.00     0.161 HD
ENDROOT
BRANCH   7  11
HETATM   11  C   UNL     1       5.605  29.158  55.624  1.00  0.00     0.261 C 
HETATM   12  N   UNL     1       5.818  29.456  56.956  1.00  0.00    -0.323 N 
HETATM   13  H   UNL     1       6.410  28.803  57.457  1.00  0.00     0.169 HD
HETATM   14  O   UNL     1       4.883  29.780  54.854  1.00  0.00    -0.267 OA
BRANCH  12  15
HETATM   15  C   UNL     1       5.293  30.538  57.691  1.00  0.00     0.035 A 
HETATM   16  C   UNL     1       6.034  31.657  58.066  1.00  0.00     0.030 A 
HETATM   17  C   UNL     1       5.444  32.688  58.806  1.00  0.00     0.012 A 
HETATM   18  C   UNL     1       4.101  32.623  59.206  1.00  0.00    -0.030 A 
HETATM   19  C   UNL     1       3.356  31.505  58.811  1.00  0.00     0.012 A 
HETATM   20  C   UNL     1       3.946  30.475  58.062  1.00  0.00     0.030 A 
BRANCH  18  21
HETATM   21  C   UNL     1       3.530  33.770  60.011  1.00  0.00     0.147 C 
HETATM   22  C   UNL     1       4.351  34.226  61.212  1.00  0.00     0.044 C 
BRANCH  21  23
HETATM   23  O   UNL     1       2.235  33.380  60.463  1.00  0.00    -0.391 OA
HETATM   24  H   UNL     1       2.000  32.564  59.992  1.00  0.00     0.210 HD
ENDBRANCH  21  23
ENDBRANCH  18  21
ENDBRANCH  12  15
ENDBRANCH   7  11
BRANCH   1  25
HETATM   25  C   UNL     1       4.879  26.910  50.527  1.00  0.00    -0.035 A 
HETATM   26  C   UNL     1       4.212  28.146  50.439  1.00  0.00     0.010 A 
HETATM   27  C   UNL     1       3.294  28.401  49.418  1.00  0.00     0.007 A 
HETATM   28  C   UNL     1       3.008  27.421  48.464  1.00  0.00    -0.062 A 
HETATM   29  C   UNL     1       2.074  27.709  47.326  1.00  0.00     0.048 C 
HETATM   30  C   UNL     1       3.661  26.187  48.545  1.00  0.00     0.007 A 
HETATM   31  C   UNL     1       4.578  25.931  49.571  1.00  0.00     0.010 A 
ENDBRANCH   1  25
BRANCH   8  32
HETATM   32  C   UNL     1       7.468  23.853  53.643  1.00  0.00     0.409 C 
HETATM   33  F   UNL     1       8.672  23.573  54.179  1.00  0.00    -0.169 F 
HETATM   34  F   UNL     1       6.518  23.627  54.577  1.00  0.00    -0.169 F 
HETATM   35  F   UNL     1       7.270  22.930  52.661  1.00  0.00    -0.169 F 
ENDBRANCH   8  32
TORSDOF 6
ENDMDL
MODEL 9
REMARK VINA RESULT:      -8.4      3.674      6.758
REMARK  6 active torsions:
REMARK  status: ('A' for Active; 'I' for Inactive)
REMARK    1  A    between atoms: C_5  and  C_6 
REMARK    2  A    between atoms: C_12  and  C_13 
REMARK       I    between atoms: C_13  and  N_14 
REMARK    3  A    between atoms: N_14  and  C_15 
REMARK    4  A    between atoms: C_18  and  C_19 
REMARK    5  A    between atoms: C_19  and  O_20 
REMARK    6  A    between atoms: C_25  and  C_26 
ROOT
HETATM    1  C   UNL     1       5.950  30.454  50.054  1.00  0.00     0.118 C 
HETATM    2  N   UNL     1       5.516  30.056  51.405  1.00  0.00    -0.365 N 
HETATM    3  C   UNL     1       5.406  28.719  51.660  1.00  0.00     0.138 A 
HETATM    4  N   UNL     1       5.344  27.807  50.629  1.00  0.00    -0.240 N 
HETATM    5  N   UNL     1       5.317  26.533  51.038  1.00  0.00    -0.181 NA
HETATM    6  C   UNL     1       5.250  26.637  52.367  1.00  0.00     0.160 A 
HETATM    7  C   UNL     1       5.305  27.978  52.824  1.00  0.00     0.096 A 
HETATM    8  C   UNL     1       5.374  28.150  49.218  1.00  0.00     0.221 C 
HETATM    9  C   UNL     1       5.135  29.660  49.027  1.00  0.00     0.066 C 
HETATM   10  H   UNL     1       4.769  30.660  51.760  1.00  0.00     0.161 HD
ENDROOT
BRANCH   7  11
HETATM   11  C   UNL     1       5.296  28.392  54.219  1.00  0.00     0.261 C 
HETATM   12  N   UNL     1       6.504  28.887  54.670  1.00  0.00    -0.323 N 
HETATM   13  H   UNL     1       7.262  28.861  53.997  1.00  0.00     0.169 HD
HETATM   14  O   UNL     1       4.271  28.281  54.882  1.00  0.00    -0.267 OA
BRANCH  12  15
HETATM   15  C   UNL     1       6.803  29.396  55.951  1.00  0.00     0.035 A 
HETATM   16  C   UNL     1       6.055  30.383  56.590  1.00  0.00     0.030 A 
HETATM   17  C   UNL     1       6.422  30.846  57.859  1.00  0.00     0.012 A 
HETATM   18  C   UNL     1       7.554  30.345  58.519  1.00  0.00    -0.030 A 
HETATM   19  C   UNL     1       8.291  29.340  57.880  1.00  0.00     0.012 A 
HETATM   20  C   UNL     1       7.919  28.872  56.611  1.00  0.00     0.030 A 
BRANCH  18  21
HETATM   21  C   UNL     1       7.897  30.895  59.887  1.00  0.00     0.147 C 
HETATM   22  C   UNL     1       8.670  32.209  59.911  1.00  0.00     0.044 C 
BRANCH  21  23
HETATM   23  O   UNL     1       8.656  29.904  60.575  1.00  0.00    -0.391 OA
HETATM   24  H   UNL     1       8.348  29.038  60.264  1.00  0.00     0.210 HD
ENDBRANCH  21  23
ENDBRANCH  18  21
ENDBRANCH  12  15
ENDBRANCH   7  11
BRANCH   1  25
HETATM   25  C   UNL     1       5.897  31.966  49.927  1.00  0.00    -0.035 A 
HETATM   26  C   UNL     1       6.435  32.562  48.772  1.00  0.00     0.010 A 
HETATM   27  C   UNL     1       6.366  33.943  48.572  1.00  0.00     0.007 A 
HETATM   28  C   UNL     1       5.768  34.767  49.529  1.00  0.00    -0.062 A 
HETATM   29  C   UNL     1       5.630  36.242  49.292  1.00  0.00     0.048 C 
HETATM   30  C   UNL     1       5.235  34.185  50.683  1.00  0.00     0.007 A 
HETATM   31  C   UNL     1       5.308  32.802  50.886  1.00  0.00     0.010 A 
ENDBRANCH   1  25
BRANCH   8  32
HETATM   32  C   UNL     1       4.342  27.375  48.423  1.00  0.00     0.409 C 
HETATM   33  F   UNL     1       4.744  26.140  48.065  1.00  0.00    -0.169 F 
HETATM   34  F   UNL     1       3.163  27.272  49.076  1.00  0.00    -0.169 F 
HETATM   35  F   UNL     1       4.081  28.037  47.262  1.00  0.00    -0.169 F 
ENDBRANCH   8  32
TORSDOF 6
ENDMDL
MODEL 10
REMARK VINA RESULT:      -8.4      3.279      4.195
REMARK  6 active torsions:
REMARK  status: ('A' for Active; 'I' for Inactive)
REMARK    1  A    between atoms: C_5  and  C_6 
REMARK    2  A    between atoms: C_12  and  C_13 
REMARK       I    between atoms: C_13  and  N_14 
REMARK    3  A    between atoms: N_14  and  C_15 
REMARK    4  A    between atoms: C_18  and  C_19 
REMARK    5  A    between atoms: C_19  and  O_20 
REMARK    6  A    between atoms: C_25  and  C_26 
ROOT
HETATM    1  C   UNL     1       4.836  26.288  51.465  1.00  0.00     0.118 C 
HETATM    2  N   UNL     1       4.845  27.711  51.849  1.00  0.00    -0.365 N 
HETATM    3  C   UNL     1       4.065  28.563  51.122  1.00  0.00     0.138 A 
HETATM    4  N   UNL     1       3.586  28.195  49.883  1.00  0.00    -0.240 N 
HETATM    5  N   UNL     1       2.774  29.104  49.328  1.00  0.00    -0.181 NA
HETATM    6  C   UNL     1       2.822  30.125  50.186  1.00  0.00     0.160 A 
HETATM    7  C   UNL     1       3.610  29.852  51.333  1.00  0.00     0.096 A 
HETATM    8  C   UNL     1       3.855  26.924  49.234  1.00  0.00     0.221 C 
HETATM    9  C   UNL     1       5.011  26.194  49.945  1.00  0.00     0.066 C 
HETATM   10  H   UNL     1       5.786  28.035  52.092  1.00  0.00     0.161 HD
ENDROOT
BRANCH   7  11
HETATM   11  C   UNL     1       3.807  30.759  52.454  1.00  0.00     0.261 C 
HETATM   12  N   UNL     1       3.282  30.306  53.649  1.00  0.00    -0.323 N 
HETATM   13  H   UNL     1       2.785  29.424  53.596  1.00  0.00     0.169 HD
HETATM   14  O   UNL     1       4.395  31.822  52.283  1.00  0.00    -0.267 OA
BRANCH  12  15
HETATM   15  C   UNL     1       3.341  30.935  54.909  1.00  0.00     0.035 A 
HETATM   16  C   UNL     1       3.053  32.282  55.121  1.00  0.00     0.030 A 
HETATM   17  C   UNL     1       3.144  32.837  56.403  1.00  0.00     0.012 A 
HETATM   18  C   UNL     1       3.540  32.065  57.506  1.00  0.00    -0.030 A 
HETATM   19  C   UNL     1       3.810  30.709  57.290  1.00  0.00     0.012 A 
HETATM   20  C   UNL     1       3.711  30.151  56.006  1.00  0.00     0.030 A 
BRANCH  18  21
HETATM   21  C   UNL     1       3.624  32.732  58.862  1.00  0.00     0.147 C 
HETATM   22  C   UNL     1       3.368  31.839  60.070  1.00  0.00     0.044 C 
BRANCH  21  23
HETATM   23  O   UNL     1       2.684  33.804  58.877  1.00  0.00    -0.391 OA
HETATM   24  H   UNL     1       2.052  33.642  58.159  1.00  0.00     0.210 HD
ENDBRANCH  21  23
ENDBRANCH  18  21
ENDBRANCH  12  15
ENDBRANCH   7  11
BRANCH   1  25
HETATM   25  C   UNL     1       5.845  25.527  52.305  1.00  0.00    -0.035 A 
HETATM   26  C   UNL     1       5.460  25.092  53.586  1.00  0.00     0.010 A 
HETATM   27  C   UNL     1       6.325  24.339  54.384  1.00  0.00     0.007 A 
HETATM   28  C   UNL     1       7.603  24.011  53.927  1.00  0.00    -0.062 A 
HETATM   29  C   UNL     1       8.512  23.146  54.749  1.00  0.00     0.048 C 
HETATM   30  C   UNL     1       7.998  24.443  52.657  1.00  0.00     0.007 A 
HETATM   31  C   UNL     1       7.133  25.201  51.859  1.00  0.00     0.010 A 
ENDBRANCH   1  25
BRANCH   8  32
HETATM   32  C   UNL     1       4.198  27.095  47.768  1.00  0.00     0.409 C 
HETATM   33  F   UNL     1       4.715  28.302  47.467  1.00  0.00    -0.169 F 
HETATM   34  F   UNL     1       5.045  26.140  47.325  1.00  0.00    -0.169 F 
HETATM   35  F   UNL     1       3.063  26.975  47.025  1.00  0.00    -0.169 F 
ENDBRANCH   8  32
TORSDOF 6
ENDMDL
