MODEL 1
REMARK VINA RESULT:      -9.4      0.000      0.000
REMARK  6 active torsions:
REMARK  status: ('A' for Active; 'I' for Inactive)
REMARK    1  A    between atoms: C_7  and  S_8 
REMARK    2  A    between atoms: S_8  and  C_9 
REMARK    3  A    between atoms: C_9  and  C_10 
REMARK    4  A    between atoms: C_18  and  C_19 
REMARK    5  A    between atoms: C_26  and  C_27 
REMARK    6  A    between atoms: C_27  and  O_28 
ROOT
HETATM    1  C   UNL     1       4.118  29.325  54.433  1.00  0.00     0.070 C 
HETATM    2  C   UNL     1       5.087  28.722  55.422  1.00  0.00     0.037 A 
HETATM    3  N   UNL     1       5.398  27.384  55.216  1.00  0.00    -0.192 N 
HETATM    4  C   UNL     1       6.223  26.682  56.014  1.00  0.00     0.726 A 
HETATM    5  N   UNL     1       6.782  27.290  57.103  1.00  0.00    -0.082 N 
HETATM    6  N   UNL     1       7.545  26.428  57.808  1.00  0.00    -0.128 NA
HETATM    7  C   UNL     1       7.459  25.332  57.042  1.00  0.00     0.226 A 
HETATM    8  N   UNL     1       6.639  25.447  55.945  1.00  0.00    -0.035 NA
HETATM    9  C   UNL     1       6.577  28.702  57.451  1.00  0.00     0.203 A 
HETATM   10  C   UNL     1       5.628  29.385  56.474  1.00  0.00     0.070 A 
HETATM   11  H   UNL     1       4.988  26.920  54.408  1.00  0.00     0.184 HD
ENDROOT
BRANCH   7  12
HETATM   12  S   UNL     1       8.358  23.872  57.345  1.00  0.00    -0.083 SA
BRANCH  12  13
HETATM   13  C   UNL     1       9.336  23.722  55.826  1.00  0.00     0.123 C 
BRANCH  13  14
HETATM   14  C   UNL     1       8.803  22.621  54.936  1.00  0.00    -0.027 A 
HETATM   15  C   UNL     1       8.253  22.859  53.667  1.00  0.00     0.041 A 
HETATM   16 CL   UNL     1       8.098  24.455  53.022  1.00  0.00    -0.084 Cl
HETATM   17  C   UNL     1       7.805  21.796  52.875  1.00  0.00     0.024 A 
HETATM   18  C   UNL     1       7.900  20.484  53.337  1.00  0.00     0.002 A 
HETATM   19  C   UNL     1       8.445  20.230  54.592  1.00  0.00     0.001 A 
HETATM   20  C   UNL     1       8.897  21.288  55.384  1.00  0.00     0.009 A 
ENDBRANCH  13  14
ENDBRANCH  12  13
ENDBRANCH   7  12
BRANCH   9  21
HETATM   21  C   UNL     1       7.924  29.415  57.563  1.00  0.00    -0.026 A 
HETATM   22  C   UNL     1       8.190  30.233  58.675  1.00  0.00     0.033 A 
HETATM   23  C   UNL     1       9.408  30.905  58.782  1.00  0.00     0.034 A 
HETATM   24 CL   UNL     1       9.711  31.908  60.146  1.00  0.00    -0.084 Cl
HETATM   25  C   UNL     1      10.378  30.771  57.791  1.00  0.00     0.024 A 
HETATM   26  C   UNL     1      10.127  29.964  56.682  1.00  0.00     0.002 A 
HETATM   27  C   UNL     1       8.907  29.293  56.566  1.00  0.00     0.010 A 
ENDBRANCH   9  21
BRANCH  10  28
HETATM   28  C   UNL     1       5.370  30.821  56.696  1.00  0.00     0.293 C 
HETATM   29  O   UNL     1       5.639  31.702  55.896  1.00  0.00    -0.259 OA
BRANCH  28  30
HETATM   30  O   UNL     1       4.800  30.993  57.915  1.00  0.00    -0.323 OA
HETATM   31  C   UNL     1       3.416  30.634  57.954  1.00  0.00     0.213 C 
ENDBRANCH  28  30
ENDBRANCH  10  28
TORSDOF 6
ENDMDL
MODEL 2
REMARK VINA RESULT:      -9.3      1.322      1.585
REMARK  6 active torsions:
REMARK  status: ('A' for Active; 'I' for Inactive)
REMARK    1  A    between atoms: C_7  and  S_8 
REMARK    2  A    between atoms: S_8  and  C_9 
REMARK    3  A    between atoms: C_9  and  C_10 
REMARK    4  A    between atoms: C_18  and  C_19 
REMARK    5  A    between atoms: C_26  and  C_27 
REMARK    6  A    between atoms: C_27  and  O_28 
ROOT
HETATM    1  C   UNL     1       4.498  30.077  54.773  1.00  0.00     0.070 C 
HETATM    2  C   UNL     1       5.457  29.367  55.698  1.00  0.00     0.037 A 
HETATM    3  N   UNL     1       5.855  28.100  55.289  1.00  0.00    -0.192 N 
HETATM    4  C   UNL     1       6.683  27.316  56.002  1.00  0.00     0.726 A 
HETATM    5  N   UNL     1       7.158  27.759  57.205  1.00  0.00    -0.082 N 
HETATM    6  N   UNL     1       7.938  26.830  57.796  1.00  0.00    -0.128 NA
HETATM    7  C   UNL     1       7.951  25.876  56.855  1.00  0.00     0.226 A 
HETATM    8  N   UNL     1       7.175  26.133  55.750  1.00  0.00    -0.035 NA
HETATM    9  C   UNL     1       6.855  29.080  57.772  1.00  0.00     0.203 A 
HETATM   10  C   UNL     1       5.911  29.868  56.873  1.00  0.00     0.070 A 
HETATM   11  H   UNL     1       5.509  27.759  54.395  1.00  0.00     0.184 HD
ENDROOT
BRANCH   7  12
HETATM   12  S   UNL     1       8.920  24.434  56.958  1.00  0.00    -0.083 SA
BRANCH  12  13
HETATM   13  C   UNL     1       7.683  23.140  56.670  1.00  0.00     0.123 C 
BRANCH  13  14
HETATM   14  C   UNL     1       7.937  22.417  55.366  1.00  0.00    -0.027 A 
HETATM   15  C   UNL     1       8.504  21.135  55.297  1.00  0.00     0.041 A 
HETATM   16 CL   UNL     1       9.004  20.279  56.712  1.00  0.00    -0.084 Cl
HETATM   17  C   UNL     1       8.686  20.504  54.062  1.00  0.00     0.024 A 
HETATM   18  C   UNL     1       8.306  21.140  52.882  1.00  0.00     0.002 A 
HETATM   19  C   UNL     1       7.740  22.411  52.932  1.00  0.00     0.001 A 
HETATM   20  C   UNL     1       7.553  23.043  54.163  1.00  0.00     0.009 A 
ENDBRANCH  13  14
ENDBRANCH  12  13
ENDBRANCH   7  12
BRANCH   9  21
HETATM   21  C   UNL     1       8.151  29.831  58.072  1.00  0.00    -0.026 A 
HETATM   22  C   UNL     1       8.312  30.477  59.311  1.00  0.00     0.033 A 
HETATM   23  C   UNL     1       9.483  31.181  59.592  1.00  0.00     0.034 A 
HETATM   24 CL   UNL     1       9.658  31.973  61.109  1.00  0.00    -0.084 Cl
HETATM   25  C   UNL     1      10.509  31.252  58.652  1.00  0.00     0.024 A 
HETATM   26  C   UNL     1      10.362  30.617  57.419  1.00  0.00     0.002 A 
HETATM   27  C   UNL     1       9.190  29.914  57.128  1.00  0.00     0.010 A 
ENDBRANCH   9  21
BRANCH  10  28
HETATM   28  C   UNL     1       5.559  31.231  57.317  1.00  0.00     0.293 C 
HETATM   29  O   UNL     1       5.857  32.250  56.716  1.00  0.00    -0.259 OA
BRANCH  28  30
HETATM   30  O   UNL     1       4.868  31.161  58.483  1.00  0.00    -0.323 OA
HETATM   31  C   UNL     1       3.470  30.925  58.304  1.00  0.00     0.213 C 
ENDBRANCH  28  30
ENDBRANCH  10  28
TORSDOF 6
ENDMDL
MODEL 3
REMARK VINA RESULT:      -9.0      2.331      3.146
REMARK  6 active torsions:
REMARK  status: ('A' for Active; 'I' for Inactive)
REMARK    1  A    between atoms: C_7  and  S_8 
REMARK    2  A    between atoms: S_8  and  C_9 
REMARK    3  A    between atoms: C_9  and  C_10 
REMARK    4  A    between atoms: C_18  and  C_19 
REMARK    5  A    between atoms: C_26  and  C_27 
REMARK    6  A    between atoms: C_27  and  O_28 
ROOT
HETATM    1  C   UNL     1       3.690  31.600  53.033  1.00  0.00     0.070 C 
HETATM    2  C   UNL     1       4.167  30.260  53.540  1.00  0.00     0.037 A 
HETATM    3  N   UNL     1       4.315  29.272  52.574  1.00  0.00    -0.192 N 
HETATM    4  C   UNL     1       4.706  28.015  52.851  1.00  0.00     0.726 A 
HETATM    5  N   UNL     1       4.959  27.661  54.147  1.00  0.00    -0.082 N 
HETATM    6  N   UNL     1       5.298  26.358  54.241  1.00  0.00    -0.128 NA
HETATM    7  C   UNL     1       5.302  26.005  52.949  1.00  0.00     0.226 A 
HETATM    8  N   UNL     1       4.923  26.992  52.070  1.00  0.00    -0.035 NA
HETATM    9  C   UNL     1       4.873  28.587  55.284  1.00  0.00     0.203 A 
HETATM   10  C   UNL     1       4.423  29.973  54.840  1.00  0.00     0.070 A 
HETATM   11  H   UNL     1       4.131  29.525  51.606  1.00  0.00     0.184 HD
ENDROOT
BRANCH   7  12
HETATM   12  S   UNL     1       5.808  24.440  52.379  1.00  0.00    -0.083 SA
BRANCH  12  13
HETATM   13  C   UNL     1       7.474  24.314  53.085  1.00  0.00     0.123 C 
BRANCH  13  14
HETATM   14  C   UNL     1       7.672  22.991  53.792  1.00  0.00    -0.027 A 
HETATM   15  C   UNL     1       7.545  22.838  55.182  1.00  0.00     0.041 A 
HETATM   16 CL   UNL     1       7.188  24.171  56.220  1.00  0.00    -0.084 Cl
HETATM   17  C   UNL     1       7.709  21.582  55.776  1.00  0.00     0.024 A 
HETATM   18  C   UNL     1       8.000  20.465  54.995  1.00  0.00     0.002 A 
HETATM   19  C   UNL     1       8.127  20.599  53.616  1.00  0.00     0.001 A 
HETATM   20  C   UNL     1       7.961  21.850  53.018  1.00  0.00     0.009 A 
ENDBRANCH  13  14
ENDBRANCH  12  13
ENDBRANCH   7  12
BRANCH   9  21
HETATM   21  C   UNL     1       6.200  28.610  56.041  1.00  0.00    -0.026 A 
HETATM   22  C   UNL     1       7.367  29.044  55.389  1.00  0.00     0.033 A 
HETATM   23  C   UNL     1       8.589  29.054  56.062  1.00  0.00     0.034 A 
HETATM   24 CL   UNL     1      10.009  29.579  55.244  1.00  0.00    -0.084 Cl
HETATM   25  C   UNL     1       8.669  28.639  57.390  1.00  0.00     0.024 A 
HETATM   26  C   UNL     1       7.519  28.206  58.048  1.00  0.00     0.002 A 
HETATM   27  C   UNL     1       6.293  28.187  57.379  1.00  0.00     0.010 A 
ENDBRANCH   9  21
BRANCH  10  28
HETATM   28  C   UNL     1       4.334  31.007  55.890  1.00  0.00     0.293 C 
HETATM   29  O   UNL     1       5.096  31.954  55.992  1.00  0.00    -0.259 OA
BRANCH  28  30
HETATM   30  O   UNL     1       3.286  30.731  56.707  1.00  0.00    -0.323 OA
HETATM   31  C   UNL     1       3.595  30.858  58.096  1.00  0.00     0.213 C 
ENDBRANCH  28  30
ENDBRANCH  10  28
TORSDOF 6
ENDMDL
MODEL 4
REMARK VINA RESULT:      -8.5      5.139      6.839
REMARK  6 active torsions:
REMARK  status: ('A' for Active; 'I' for Inactive)
REMARK    1  A    between atoms: C_7  and  S_8 
REMARK    2  A    between atoms: S_8  and  C_9 
REMARK    3  A    between atoms: C_9  and  C_10 
REMARK    4  A    between atoms: C_18  and  C_19 
REMARK    5  A    between atoms: C_26  and  C_27 
REMARK    6  A    between atoms: C_27  and  O_28 
ROOT
HETATM    1  C   UNL     1       3.814  25.963  47.543  1.00  0.00     0.070 C 
HETATM    2  C   UNL     1       4.142  26.641  48.852  1.00  0.00     0.037 A 
HETATM    3  N   UNL     1       5.047  25.967  49.665  1.00  0.00    -0.192 N 
HETATM    4  C   UNL     1       5.432  26.412  50.874  1.00  0.00     0.726 A 
HETATM    5  N   UNL     1       4.907  27.577  51.360  1.00  0.00    -0.082 N 
HETATM    6  N   UNL     1       5.373  27.846  52.598  1.00  0.00    -0.128 NA
HETATM    7  C   UNL     1       6.237  26.836  52.766  1.00  0.00     0.226 A 
HETATM    8  N   UNL     1       6.283  25.927  51.737  1.00  0.00    -0.035 NA
HETATM    9  C   UNL     1       3.958  28.422  50.622  1.00  0.00     0.203 A 
HETATM   10  C   UNL     1       3.603  27.811  49.272  1.00  0.00     0.070 A 
HETATM   11  H   UNL     1       5.446  25.100  49.313  1.00  0.00     0.184 HD
ENDROOT
BRANCH   7  12
HETATM   12  S   UNL     1       7.291  26.689  54.144  1.00  0.00    -0.083 SA
BRANCH  12  13
HETATM   13  C   UNL     1       6.652  25.187  54.935  1.00  0.00     0.123 C 
BRANCH  13  14
HETATM   14  C   UNL     1       7.506  23.985  54.598  1.00  0.00    -0.027 A 
HETATM   15  C   UNL     1       8.548  23.530  55.422  1.00  0.00     0.041 A 
HETATM   16 CL   UNL     1       8.975  24.338  56.888  1.00  0.00    -0.084 Cl
HETATM   17  C   UNL     1       9.283  22.391  55.075  1.00  0.00     0.024 A 
HETATM   18  C   UNL     1       8.991  21.693  53.904  1.00  0.00     0.002 A 
HETATM   19  C   UNL     1       7.960  22.130  53.077  1.00  0.00     0.001 A 
HETATM   20  C   UNL     1       7.221  23.263  53.422  1.00  0.00     0.009 A 
ENDBRANCH  13  14
ENDBRANCH  12  13
ENDBRANCH   7  12
BRANCH   9  21
HETATM   21  C   UNL     1       4.506  29.843  50.503  1.00  0.00    -0.026 A 
HETATM   22  C   UNL     1       3.825  30.907  51.121  1.00  0.00     0.033 A 
HETATM   23  C   UNL     1       4.303  32.212  51.005  1.00  0.00     0.034 A 
HETATM   24 CL   UNL     1       3.451  33.502  51.760  1.00  0.00    -0.084 Cl
HETATM   25  C   UNL     1       5.462  32.479  50.281  1.00  0.00     0.024 A 
HETATM   26  C   UNL     1       6.147  31.434  49.662  1.00  0.00     0.002 A 
HETATM   27  C   UNL     1       5.671  30.125  49.768  1.00  0.00     0.010 A 
ENDBRANCH   9  21
BRANCH  10  28
HETATM   28  C   UNL     1       2.683  28.587  48.418  1.00  0.00     0.293 C 
HETATM   29  O   UNL     1       3.041  29.375  47.557  1.00  0.00    -0.259 OA
BRANCH  28  30
HETATM   30  O   UNL     1       1.401  28.285  48.744  1.00  0.00    -0.323 OA
HETATM   31  C   UNL     1       0.682  27.635  47.694  1.00  0.00     0.213 C 
ENDBRANCH  28  30
ENDBRANCH  10  28
TORSDOF 6
ENDMDL
MODEL 5
REMARK VINA RESULT:      -8.5      4.548      6.897
REMARK  6 active torsions:
REMARK  status: ('A' for Active; 'I' for Inactive)
REMARK    1  A    between atoms: C_7  and  S_8 
REMARK    2  A    between atoms: S_8  and  C_9 
REMARK    3  A    between atoms: C_9  and  C_10 
REMARK    4  A    between atoms: C_18  and  C_19 
REMARK    5  A    between atoms: C_26  and  C_27 
REMARK    6  A    between atoms: C_27  and  O_28 
ROOT
HETATM    1  C   UNL     1       3.291  31.935  53.078  1.00  0.00     0.070 C 
HETATM    2  C   UNL     1       3.991  30.674  52.631  1.00  0.00     0.037 A 
HETATM    3  N   UNL     1       3.989  29.630  53.548  1.00  0.00    -0.192 N 
HETATM    4  C   UNL     1       4.587  28.446  53.327  1.00  0.00     0.726 A 
HETATM    5  N   UNL     1       5.254  28.240  52.151  1.00  0.00    -0.082 N 
HETATM    6  N   UNL     1       5.823  27.017  52.119  1.00  0.00    -0.128 NA
HETATM    7  C   UNL     1       5.394  26.509  53.282  1.00  0.00     0.226 A 
HETATM    8  N   UNL     1       4.651  27.366  54.057  1.00  0.00    -0.035 NA
HETATM    9  C   UNL     1       5.333  29.227  51.067  1.00  0.00     0.203 A 
HETATM   10  C   UNL     1       4.618  30.521  51.439  1.00  0.00     0.070 A 
HETATM   11  H   UNL     1       3.495  29.772  54.426  1.00  0.00     0.184 HD
ENDROOT
BRANCH   7  12
HETATM   12  S   UNL     1       5.681  24.866  53.780  1.00  0.00    -0.083 SA
BRANCH  12  13
HETATM   13  C   UNL     1       7.487  24.754  53.655  1.00  0.00     0.123 C 
BRANCH  13  14
HETATM   14  C   UNL     1       7.970  23.347  53.926  1.00  0.00    -0.027 A 
HETATM   15  C   UNL     1       8.578  22.964  55.132  1.00  0.00     0.041 A 
HETATM   16 CL   UNL     1       8.866  24.091  56.410  1.00  0.00    -0.084 Cl
HETATM   17  C   UNL     1       8.976  21.638  55.338  1.00  0.00     0.024 A 
HETATM   18  C   UNL     1       8.773  20.680  54.347  1.00  0.00     0.002 A 
HETATM   19  C   UNL     1       8.170  21.042  53.146  1.00  0.00     0.001 A 
HETATM   20  C   UNL     1       7.768  22.363  52.939  1.00  0.00     0.009 A 
ENDBRANCH  13  14
ENDBRANCH  12  13
ENDBRANCH   7  12
BRANCH   9  21
HETATM   21  C   UNL     1       4.813  28.619  49.765  1.00  0.00    -0.026 A 
HETATM   22  C   UNL     1       3.456  28.268  49.653  1.00  0.00     0.033 A 
HETATM   23  C   UNL     1       2.971  27.695  48.477  1.00  0.00     0.034 A 
HETATM   24 CL   UNL     1       1.309  27.265  48.361  1.00  0.00    -0.084 Cl
HETATM   25  C   UNL     1       3.822  27.467  47.398  1.00  0.00     0.024 A 
HETATM   26  C   UNL     1       5.170  27.809  47.497  1.00  0.00     0.002 A 
HETATM   27  C   UNL     1       5.664  28.377  48.673  1.00  0.00     0.010 A 
ENDBRANCH   9  21
BRANCH  10  28
HETATM   28  C   UNL     1       4.596  31.582  50.413  1.00  0.00     0.293 C 
HETATM   29  O   UNL     1       3.624  31.858  49.728  1.00  0.00    -0.259 OA
BRANCH  28  30
HETATM   30  O   UNL     1       5.811  32.184  50.359  1.00  0.00    -0.323 OA
HETATM   31  C   UNL     1       6.281  32.404  49.027  1.00  0.00     0.213 C 
ENDBRANCH  28  30
ENDBRANCH  10  28
TORSDOF 6
ENDMDL
MODEL 6
REMARK VINA RESULT:      -8.4      3.110      4.503
REMARK  6 active torsions:
REMARK  status: ('A' for Active; 'I' for Inactive)
REMARK    1  A    between atoms: C_7  and  S_8 
REMARK    2  A    between atoms: S_8  and  C_9 
REMARK    3  A    between atoms: C_9  and  C_10 
REMARK    4  A    between atoms: C_18  and  C_19 
REMARK    5  A    between atoms: C_26  and  C_27 
REMARK    6  A    between atoms: C_27  and  O_28 
ROOT
HETATM    1  C   UNL     1       3.402  30.322  57.503  1.00  0.00     0.070 C 
HETATM    2  C   UNL     1       4.510  29.561  56.816  1.00  0.00     0.037 A 
HETATM    3  N   UNL     1       5.135  28.588  57.588  1.00  0.00    -0.192 N 
HETATM    4  C   UNL     1       6.157  27.834  57.146  1.00  0.00     0.726 A 
HETATM    5  N   UNL     1       6.637  28.028  55.881  1.00  0.00    -0.082 N 
HETATM    6  N   UNL     1       7.684  27.216  55.624  1.00  0.00    -0.128 NA
HETATM    7  C   UNL     1       7.734  26.504  56.757  1.00  0.00     0.226 A 
HETATM    8  N   UNL     1       6.825  26.871  57.720  1.00  0.00    -0.035 NA
HETATM    9  C   UNL     1       6.078  28.997  54.928  1.00  0.00     0.203 A 
HETATM   10  C   UNL     1       4.929  29.785  55.547  1.00  0.00     0.070 A 
HETATM   11  H   UNL     1       4.786  28.434  58.531  1.00  0.00     0.184 HD
ENDROOT
BRANCH   7  12
HETATM   12  S   UNL     1       8.812  25.160  57.003  1.00  0.00    -0.083 SA
BRANCH  12  13
HETATM   13  C   UNL     1       7.683  23.749  56.843  1.00  0.00     0.123 C 
BRANCH  13  14
HETATM   14  C   UNL     1       7.812  23.095  55.485  1.00  0.00    -0.027 A 
HETATM   15  C   UNL     1       7.981  21.712  55.313  1.00  0.00     0.041 A 
HETATM   16 CL   UNL     1       8.099  20.631  56.656  1.00  0.00    -0.084 Cl
HETATM   17  C   UNL     1       8.062  21.160  54.030  1.00  0.00     0.024 A 
HETATM   18  C   UNL     1       7.975  21.977  52.904  1.00  0.00     0.002 A 
HETATM   19  C   UNL     1       7.805  23.349  53.057  1.00  0.00     0.001 A 
HETATM   20  C   UNL     1       7.720  23.904  54.335  1.00  0.00     0.009 A 
ENDBRANCH  13  14
ENDBRANCH  12  13
ENDBRANCH   7  12
BRANCH   9  21
HETATM   21  C   UNL     1       5.679  28.289  53.634  1.00  0.00    -0.026 A 
HETATM   22  C   UNL     1       5.276  26.942  53.672  1.00  0.00     0.033 A 
HETATM   23  C   UNL     1       4.927  26.278  52.496  1.00  0.00     0.034 A 
HETATM   24 CL   UNL     1       4.444  24.628  52.561  1.00  0.00    -0.084 Cl
HETATM   25  C   UNL     1       4.969  26.939  51.271  1.00  0.00     0.024 A 
HETATM   26  C   UNL     1       5.368  28.274  51.219  1.00  0.00     0.002 A 
HETATM   27  C   UNL     1       5.725  28.944  52.391  1.00  0.00     0.010 A 
ENDBRANCH   9  21
BRANCH  10  28
HETATM   28  C   UNL     1       4.257  30.767  54.674  1.00  0.00     0.293 C 
HETATM   29  O   UNL     1       3.234  30.546  54.047  1.00  0.00    -0.259 OA
BRANCH  28  30
HETATM   30  O   UNL     1       4.954  31.931  54.684  1.00  0.00    -0.323 OA
HETATM   31  C   UNL     1       4.165  33.067  55.047  1.00  0.00     0.213 C 
ENDBRANCH  28  30
ENDBRANCH  10  28
TORSDOF 6
ENDMDL
MODEL 7
REMARK VINA RESULT:      -8.3      4.874      8.047
REMARK  6 active torsions:
REMARK  status: ('A' for Active; 'I' for Inactive)
REMARK    1  A    between atoms: C_7  and  S_8 
REMARK    2  A    between atoms: S_8  and  C_9 
REMARK    3  A    between atoms: C_9  and  C_10 
REMARK    4  A    between atoms: C_18  and  C_19 
REMARK    5  A    between atoms: C_26  and  C_27 
REMARK    6  A    between atoms: C_27  and  O_28 
ROOT
HETATM    1  C   UNL     1       8.237  28.787  56.308  1.00  0.00     0.070 C 
HETATM    2  C   UNL     1       7.483  27.901  55.346  1.00  0.00     0.037 A 
HETATM    3  N   UNL     1       7.147  28.486  54.131  1.00  0.00    -0.192 N 
HETATM    4  C   UNL     1       6.454  27.852  53.169  1.00  0.00     0.726 A 
HETATM    5  N   UNL     1       6.029  26.570  53.380  1.00  0.00    -0.082 N 
HETATM    6  N   UNL     1       5.318  26.110  52.329  1.00  0.00    -0.128 NA
HETATM    7  C   UNL     1       5.417  27.145  51.485  1.00  0.00     0.226 A 
HETATM    8  N   UNL     1       6.089  28.239  51.976  1.00  0.00    -0.035 NA
HETATM    9  C   UNL     1       6.318  25.798  54.596  1.00  0.00     0.203 A 
HETATM   10  C   UNL     1       7.107  26.625  55.605  1.00  0.00     0.070 A 
HETATM   11  H   UNL     1       7.458  29.440  53.962  1.00  0.00     0.184 HD
ENDROOT
BRANCH   7  12
HETATM   12  S   UNL     1       4.809  27.121  49.854  1.00  0.00    -0.083 SA
BRANCH  12  13
HETATM   13  C   UNL     1       3.420  28.281  49.963  1.00  0.00     0.123 C 
BRANCH  13  14
HETATM   14  C   UNL     1       2.470  28.111  48.798  1.00  0.00    -0.027 A 
HETATM   15  C   UNL     1       1.591  29.119  48.372  1.00  0.00     0.041 A 
HETATM   16 CL   UNL     1       1.490  30.645  49.176  1.00  0.00    -0.084 Cl
HETATM   17  C   UNL     1       0.758  28.914  47.267  1.00  0.00     0.024 A 
HETATM   18  C   UNL     1       0.789  27.705  46.574  1.00  0.00     0.002 A 
HETATM   19  C   UNL     1       1.656  26.696  46.982  1.00  0.00     0.001 A 
HETATM   20  C   UNL     1       2.492  26.897  48.082  1.00  0.00     0.009 A 
ENDBRANCH  13  14
ENDBRANCH  12  13
ENDBRANCH   7  12
BRANCH   9  21
HETATM   21  C   UNL     1       7.014  24.488  54.233  1.00  0.00    -0.026 A 
HETATM   22  C   UNL     1       6.951  23.397  55.117  1.00  0.00     0.033 A 
HETATM   23  C   UNL     1       7.597  22.199  54.807  1.00  0.00     0.034 A 
HETATM   24 CL   UNL     1       7.517  20.879  55.907  1.00  0.00    -0.084 Cl
HETATM   25  C   UNL     1       8.307  22.067  53.616  1.00  0.00     0.024 A 
HETATM   26  C   UNL     1       8.378  23.141  52.731  1.00  0.00     0.002 A 
HETATM   27  C   UNL     1       7.740  24.346  53.037  1.00  0.00     0.010 A 
ENDBRANCH   9  21
BRANCH  10  28
HETATM   28  C   UNL     1       7.492  25.946  56.858  1.00  0.00     0.293 C 
HETATM   29  O   UNL     1       6.741  25.766  57.803  1.00  0.00    -0.259 OA
BRANCH  28  30
HETATM   30  O   UNL     1       8.793  25.568  56.786  1.00  0.00    -0.323 OA
HETATM   31  C   UNL     1       9.103  24.430  57.593  1.00  0.00     0.213 C 
ENDBRANCH  28  30
ENDBRANCH  10  28
TORSDOF 6
ENDMDL
MODEL 8
REMARK VINA RESULT:      -8.3      2.091      2.728
REMARK  6 active torsions:
REMARK  status: ('A' for Active; 'I' for Inactive)
REMARK    1  A    between atoms: C_7  and  S_8 
REMARK    2  A    between atoms: S_8  and  C_9 
REMARK    3  A    between atoms: C_9  and  C_10 
REMARK    4  A    between atoms: C_18  and  C_19 
REMARK    5  A    between atoms: C_26  and  C_27 
REMARK    6  A    between atoms: C_27  and  O_28 
ROOT
HETATM    1  C   UNL     1       4.289  32.984  55.626  1.00  0.00     0.070 C 
HETATM    2  C   UNL     1       5.022  31.888  56.360  1.00  0.00     0.037 A 
HETATM    3  N   UNL     1       5.399  30.797  55.586  1.00  0.00    -0.192 N 
HETATM    4  C   UNL     1       6.036  29.720  56.081  1.00  0.00     0.726 A 
HETATM    5  N   UNL     1       6.323  29.664  57.416  1.00  0.00    -0.082 N 
HETATM    6  N   UNL     1       6.924  28.500  57.739  1.00  0.00    -0.128 NA
HETATM    7  C   UNL     1       7.036  27.930  56.532  1.00  0.00     0.226 A 
HETATM    8  N   UNL     1       6.482  28.643  55.495  1.00  0.00    -0.035 NA
HETATM    9  C   UNL     1       6.016  30.739  58.369  1.00  0.00     0.203 A 
HETATM   10  C   UNL     1       5.298  31.898  57.688  1.00  0.00     0.070 A 
HETATM   11  H   UNL     1       5.191  30.827  54.591  1.00  0.00     0.184 HD
ENDROOT
BRANCH   7  12
HETATM   12  S   UNL     1       7.873  26.431  56.248  1.00  0.00    -0.083 SA
BRANCH  12  13
HETATM   13  C   UNL     1       6.573  25.426  55.480  1.00  0.00     0.123 C 
BRANCH  13  14
HETATM   14  C   UNL     1       7.154  24.209  54.793  1.00  0.00    -0.027 A 
HETATM   15  C   UNL     1       7.585  24.217  53.457  1.00  0.00     0.041 A 
HETATM   16 CL   UNL     1       7.449  25.620  52.459  1.00  0.00    -0.084 Cl
HETATM   17  C   UNL     1       8.144  23.069  52.884  1.00  0.00     0.024 A 
HETATM   18  C   UNL     1       8.281  21.902  53.634  1.00  0.00     0.002 A 
HETATM   19  C   UNL     1       7.861  21.878  54.961  1.00  0.00     0.001 A 
HETATM   20  C   UNL     1       7.306  23.023  55.537  1.00  0.00     0.009 A 
ENDBRANCH  13  14
ENDBRANCH  12  13
ENDBRANCH   7  12
BRANCH   9  21
HETATM   21  C   UNL     1       7.287  31.176  59.094  1.00  0.00    -0.026 A 
HETATM   22  C   UNL     1       7.231  31.517  60.457  1.00  0.00     0.033 A 
HETATM   23  C   UNL     1       8.380  31.935  61.128  1.00  0.00     0.034 A 
HETATM   24 CL   UNL     1       8.289  32.357  62.793  1.00  0.00    -0.084 Cl
HETATM   25  C   UNL     1       9.600  32.016  60.459  1.00  0.00     0.024 A 
HETATM   26  C   UNL     1       9.670  31.682  59.107  1.00  0.00     0.002 A 
HETATM   27  C   UNL     1       8.522  31.269  58.427  1.00  0.00     0.010 A 
ENDBRANCH   9  21
BRANCH  10  28
HETATM   28  C   UNL     1       4.967  33.060  58.535  1.00  0.00     0.293 C 
HETATM   29  O   UNL     1       5.428  34.179  58.382  1.00  0.00    -0.259 OA
BRANCH  28  30
HETATM   30  O   UNL     1       4.085  32.682  59.495  1.00  0.00    -0.323 OA
HETATM   31  C   UNL     1       3.130  33.694  59.823  1.00  0.00     0.213 C 
ENDBRANCH  28  30
ENDBRANCH  10  28
TORSDOF 6
ENDMDL
MODEL 9
REMARK VINA RESULT:      -8.0      5.312      9.868
REMARK  6 active torsions:
REMARK  status: ('A' for Active; 'I' for Inactive)
REMARK    1  A    between atoms: C_7  and  S_8 
REMARK    2  A    between atoms: S_8  and  C_9 
REMARK    3  A    between atoms: C_9  and  C_10 
REMARK    4  A    between atoms: C_18  and  C_19 
REMARK    5  A    between atoms: C_26  and  C_27 
REMARK    6  A    between atoms: C_27  and  O_28 
ROOT
HETATM    1  C   UNL     1      10.997  29.814  56.849  1.00  0.00     0.070 C 
HETATM    2  C   UNL     1       9.743  30.135  57.626  1.00  0.00     0.037 A 
HETATM    3  N   UNL     1       9.855  31.176  58.540  1.00  0.00    -0.192 N 
HETATM    4  C   UNL     1       8.847  31.579  59.334  1.00  0.00     0.726 A 
HETATM    5  N   UNL     1       7.643  30.935  59.270  1.00  0.00    -0.082 N 
HETATM    6  N   UNL     1       6.767  31.444  60.161  1.00  0.00    -0.128 NA
HETATM    7  C   UNL     1       7.489  32.446  60.679  1.00  0.00     0.226 A 
HETATM    8  N   UNL     1       8.777  32.545  60.209  1.00  0.00    -0.035 NA
HETATM    9  C   UNL     1       7.349  29.832  58.345  1.00  0.00     0.203 A 
HETATM   10  C   UNL     1       8.567  29.472  57.503  1.00  0.00     0.070 A 
HETATM   11  H   UNL     1      10.746  31.664  58.596  1.00  0.00     0.184 HD
ENDROOT
BRANCH   7  12
HETATM   12  S   UNL     1       6.856  33.601  61.817  1.00  0.00    -0.083 SA
BRANCH  12  13
HETATM   13  C   UNL     1       6.283  32.521  63.156  1.00  0.00     0.123 C 
BRANCH  13  14
HETATM   14  C   UNL     1       5.963  33.315  64.403  1.00  0.00    -0.027 A 
HETATM   15  C   UNL     1       4.708  33.899  64.639  1.00  0.00     0.041 A 
HETATM   16 CL   UNL     1       3.421  33.796  63.492  1.00  0.00    -0.084 Cl
HETATM   17  C   UNL     1       4.460  34.596  65.827  1.00  0.00     0.024 A 
HETATM   18  C   UNL     1       5.457  34.718  66.793  1.00  0.00     0.002 A 
HETATM   19  C   UNL     1       6.706  34.143  66.577  1.00  0.00     0.001 A 
HETATM   20  C   UNL     1       6.956  33.444  65.395  1.00  0.00     0.009 A 
ENDBRANCH  13  14
ENDBRANCH  12  13
ENDBRANCH   7  12
BRANCH   9  21
HETATM   21  C   UNL     1       6.125  30.172  57.497  1.00  0.00    -0.026 A 
HETATM   22  C   UNL     1       6.082  31.387  56.789  1.00  0.00     0.033 A 
HETATM   23  C   UNL     1       4.963  31.719  56.025  1.00  0.00     0.034 A 
HETATM   24 CL   UNL     1       4.926  33.214  55.174  1.00  0.00    -0.084 Cl
HETATM   25  C   UNL     1       3.876  30.852  55.949  1.00  0.00     0.024 A 
HETATM   26  C   UNL     1       3.904  29.645  56.647  1.00  0.00     0.002 A 
HETATM   27  C   UNL     1       5.018  29.308  57.419  1.00  0.00     0.010 A 
ENDBRANCH   9  21
BRANCH  10  28
HETATM   28  C   UNL     1       8.387  28.399  56.506  1.00  0.00     0.293 C 
HETATM   29  O   UNL     1       8.061  28.585  55.345  1.00  0.00    -0.259 OA
BRANCH  28  30
HETATM   30  O   UNL     1       8.637  27.197  57.085  1.00  0.00    -0.323 OA
HETATM   31  C   UNL     1       7.456  26.448  57.379  1.00  0.00     0.213 C 
ENDBRANCH  28  30
ENDBRANCH  10  28
TORSDOF 6
ENDMDL
MODEL 10
REMARK VINA RESULT:      -8.0      2.153      3.014
REMARK  6 active torsions:
REMARK  status: ('A' for Active; 'I' for Inactive)
REMARK    1  A    between atoms: C_7  and  S_8 
REMARK    2  A    between atoms: S_8  and  C_9 
REMARK    3  A    between atoms: C_9  and  C_10 
REMARK    4  A    between atoms: C_18  and  C_19 
REMARK    5  A    between atoms: C_26  and  C_27 
REMARK    6  A    between atoms: C_27  and  O_28 
ROOT
HETATM    1  C   UNL     1       3.825  33.111  55.084  1.00  0.00     0.070 C 
HETATM    2  C   UNL     1       4.422  31.731  55.227  1.00  0.00     0.037 A 
HETATM    3  N   UNL     1       4.389  30.943  54.082  1.00  0.00    -0.192 N 
HETATM    4  C   UNL     1       4.853  29.681  54.037  1.00  0.00     0.726 A 
HETATM    5  N   UNL     1       5.372  29.115  55.167  1.00  0.00    -0.082 N 
HETATM    6  N   UNL     1       5.748  27.838  54.948  1.00  0.00    -0.128 NA
HETATM    7  C   UNL     1       5.495  27.723  53.637  1.00  0.00     0.226 A 
HETATM    8  N   UNL     1       4.926  28.829  53.051  1.00  0.00    -0.035 NA
HETATM    9  C   UNL     1       5.501  29.815  56.453  1.00  0.00     0.203 A 
HETATM   10  C   UNL     1       4.943  31.231  56.374  1.00  0.00     0.070 A 
HETATM   11  H   UNL     1       4.006  31.354  53.234  1.00  0.00     0.184 HD
ENDROOT
BRANCH   7  12
HETATM   12  S   UNL     1       5.905  26.317  52.696  1.00  0.00    -0.083 SA
BRANCH  12  13
HETATM   13  C   UNL     1       5.464  24.974  53.832  1.00  0.00     0.123 C 
BRANCH  13  14
HETATM   14  C   UNL     1       6.665  24.115  54.159  1.00  0.00    -0.027 A 
HETATM   15  C   UNL     1       7.191  23.994  55.455  1.00  0.00     0.041 A 
HETATM   16 CL   UNL     1       6.529  24.859  56.796  1.00  0.00    -0.084 Cl
HETATM   17  C   UNL     1       8.286  23.158  55.703  1.00  0.00     0.024 A 
HETATM   18  C   UNL     1       8.868  22.433  54.664  1.00  0.00     0.002 A 
HETATM   19  C   UNL     1       8.357  22.540  53.374  1.00  0.00     0.001 A 
HETATM   20  C   UNL     1       7.263  23.370  53.124  1.00  0.00     0.009 A 
ENDBRANCH  13  14
ENDBRANCH  12  13
ENDBRANCH   7  12
BRANCH   9  21
HETATM   21  C   UNL     1       6.954  29.778  56.925  1.00  0.00    -0.026 A 
HETATM   22  C   UNL     1       7.256  30.044  58.272  1.00  0.00     0.033 A 
HETATM   23  C   UNL     1       8.579  30.032  58.715  1.00  0.00     0.034 A 
HETATM   24 CL   UNL     1       8.929  30.369  60.365  1.00  0.00    -0.084 Cl
HETATM   25  C   UNL     1       9.617  29.752  57.830  1.00  0.00     0.024 A 
HETATM   26  C   UNL     1       9.332  29.487  56.491  1.00  0.00     0.002 A 
HETATM   27  C   UNL     1       8.010  29.504  56.039  1.00  0.00     0.010 A 
ENDBRANCH   9  21
BRANCH  10  28
HETATM   28  C   UNL     1       5.049  32.052  57.595  1.00  0.00     0.293 C 
HETATM   29  O   UNL     1       5.813  32.995  57.728  1.00  0.00    -0.259 OA
BRANCH  28  30
HETATM   30  O   UNL     1       4.177  31.591  58.526  1.00  0.00    -0.323 OA
HETATM   31  C   UNL     1       3.609  32.622  59.338  1.00  0.00     0.213 C 
ENDBRANCH  28  30
ENDBRANCH  10  28
TORSDOF 6
ENDMDL
