MODEL 1
REMARK VINA RESULT:      -7.8      0.000      0.000
REMARK  5 active torsions:
REMARK  status: ('A' for Active; 'I' for Inactive)
REMARK    1  A    between atoms: C_8  and  N_9 
REMARK       I    between atoms: N_9  and  C_10 
REMARK       I    between atoms: C_10  and  N_11 
REMARK    2  A    between atoms: N_11  and  C_12 
REMARK    3  A    between atoms: C_13  and  O_14 
REMARK    4  A    between atoms: O_14  and  C_15 
REMARK    5  A    between atoms: C_15  and  C_16 
ROOT
HETATM    1  N   UNL     1       6.426  26.402  53.077  1.00  0.00    -0.305 N 
HETATM    2  C   UNL     1       6.364  25.045  53.331  1.00  0.00     0.325 C 
HETATM    3  N   UNL     1       7.625  24.484  53.238  1.00  0.00    -0.306 N 
HETATM    4  O   UNL     1       5.346  24.425  53.611  1.00  0.00    -0.247 OA
HETATM    5  H   UNL     1       7.282  26.856  53.358  1.00  0.00     0.171 HD
HETATM    6  H   UNL     1       8.266  24.944  52.605  1.00  0.00     0.171 HD
ENDROOT
BRANCH   3   7
HETATM    7  C   UNL     1       8.001  23.187  53.646  1.00  0.00     0.070 A 
HETATM    8  C   UNL     1       8.552  23.037  54.931  1.00  0.00     0.098 A 
HETATM    9  C   UNL     1       8.879  21.776  55.429  1.00  0.00     0.081 A 
HETATM   10  C   UNL     1       8.682  20.664  54.622  1.00  0.00     0.119 A 
HETATM   11  F   UNL     1       8.996  19.449  55.090  1.00  0.00    -0.206 F 
HETATM   12  C   UNL     1       8.162  20.790  53.339  1.00  0.00     0.044 A 
HETATM   13  C   UNL     1       7.816  22.053  52.849  1.00  0.00     0.035 A 
BRANCH   8  14
HETATM   14  O   UNL     1       8.741  24.165  55.693  1.00  0.00    -0.340 OA
BRANCH  14  15
HETATM   15  C   UNL     1       7.943  24.115  56.894  1.00  0.00     0.293 C 
BRANCH  15  16
HETATM   16  C   UNL     1       7.152  25.404  57.047  1.00  0.00     0.408 C 
HETATM   17  F   UNL     1       5.828  25.191  56.869  1.00  0.00    -0.169 F 
HETATM   18  F   UNL     1       7.322  25.951  58.270  1.00  0.00    -0.169 F 
HETATM   19  F   UNL     1       7.546  26.320  56.132  1.00  0.00    -0.169 F 
ENDBRANCH  15  16
ENDBRANCH  14  15
ENDBRANCH   8  14
ENDBRANCH   3   7
BRANCH   1  20
HETATM   20  C   UNL     1       5.329  27.225  52.886  1.00  0.00     0.086 A 
HETATM   21  C   UNL     1       4.728  27.400  51.655  1.00  0.00     0.052 A 
HETATM   22  C   UNL     1       5.038  26.880  50.305  1.00  0.00     0.072 C 
HETATM   23  N   UNL     1       3.693  28.267  51.873  1.00  0.00    -0.280 N 
HETATM   24  H   UNL     1       3.038  28.642  51.195  1.00  0.00     0.189 HD
HETATM   25  N   UNL     1       3.551  28.634  53.151  1.00  0.00    -0.177 NA
HETATM   26  C   UNL     1       4.546  28.001  53.788  1.00  0.00     0.079 A 
HETATM   27  C   UNL     1       4.646  28.133  55.264  1.00  0.00     0.075 C 
ENDBRANCH   1  20
TORSDOF 5
ENDMDL
MODEL 2
REMARK VINA RESULT:      -7.7      4.345      6.009
REMARK  5 active torsions:
REMARK  status: ('A' for Active; 'I' for Inactive)
REMARK    1  A    between atoms: C_8  and  N_9 
REMARK       I    between atoms: N_9  and  C_10 
REMARK       I    between atoms: C_10  and  N_11 
REMARK    2  A    between atoms: N_11  and  C_12 
REMARK    3  A    between atoms: C_13  and  O_14 
REMARK    4  A    between atoms: O_14  and  C_15 
REMARK    5  A    between atoms: C_15  and  C_16 
ROOT
HETATM    1  N   UNL     1       8.117  28.920  57.778  1.00  0.00    -0.305 N 
HETATM    2  C   UNL     1       7.715  28.582  56.499  1.00  0.00     0.325 C 
HETATM    3  N   UNL     1       7.286  27.268  56.466  1.00  0.00    -0.306 N 
HETATM    4  O   UNL     1       7.723  29.336  55.535  1.00  0.00    -0.247 OA
HETATM    5  H   UNL     1       7.621  28.455  58.524  1.00  0.00     0.171 HD
HETATM    6  H   UNL     1       7.714  26.647  57.141  1.00  0.00     0.171 HD
ENDROOT
BRANCH   3   7
HETATM    7  C   UNL     1       6.598  26.634  55.410  1.00  0.00     0.070 A 
HETATM    8  C   UNL     1       6.998  25.335  55.053  1.00  0.00     0.098 A 
HETATM    9  C   UNL     1       6.317  24.619  54.068  1.00  0.00     0.081 A 
HETATM   10  C   UNL     1       5.250  25.222  53.416  1.00  0.00     0.119 A 
HETATM   11  F   UNL     1       4.593  24.545  52.467  1.00  0.00    -0.206 F 
HETATM   12  C   UNL     1       4.852  26.516  53.735  1.00  0.00     0.044 A 
HETATM   13  C   UNL     1       5.524  27.224  54.736  1.00  0.00     0.035 A 
BRANCH   8  14
HETATM   14  O   UNL     1       8.066  24.777  55.715  1.00  0.00    -0.340 OA
BRANCH  14  15
HETATM   15  C   UNL     1       7.657  23.620  56.472  1.00  0.00     0.293 C 
BRANCH  15  16
HETATM   16  C   UNL     1       8.332  22.374  55.923  1.00  0.00     0.408 C 
HETATM   17  F   UNL     1       7.482  21.653  55.156  1.00  0.00    -0.169 F 
HETATM   18  F   UNL     1       9.411  22.680  55.171  1.00  0.00    -0.169 F 
HETATM   19  F   UNL     1       8.751  21.574  56.930  1.00  0.00    -0.169 F 
ENDBRANCH  15  16
ENDBRANCH  14  15
ENDBRANCH   8  14
ENDBRANCH   3   7
BRANCH   1  20
HETATM   20  C   UNL     1       8.788  30.082  58.118  1.00  0.00     0.086 A 
HETATM   21  C   UNL     1      10.092  30.334  57.738  1.00  0.00     0.052 A 
HETATM   22  C   UNL     1      11.088  29.538  56.987  1.00  0.00     0.072 C 
HETATM   23  N   UNL     1      10.393  31.565  58.252  1.00  0.00    -0.280 N 
HETATM   24  H   UNL     1      11.270  32.071  58.192  1.00  0.00     0.189 HD
HETATM   25  N   UNL     1       9.377  32.147  58.899  1.00  0.00    -0.177 NA
HETATM   26  C   UNL     1       8.382  31.251  58.823  1.00  0.00     0.079 A 
HETATM   27  C   UNL     1       7.057  31.608  59.390  1.00  0.00     0.075 C 
ENDBRANCH   1  20
TORSDOF 5
ENDMDL
MODEL 3
REMARK VINA RESULT:      -7.7      3.097      7.087
REMARK  5 active torsions:
REMARK  status: ('A' for Active; 'I' for Inactive)
REMARK    1  A    between atoms: C_8  and  N_9 
REMARK       I    between atoms: N_9  and  C_10 
REMARK       I    between atoms: C_10  and  N_11 
REMARK    2  A    between atoms: N_11  and  C_12 
REMARK    3  A    between atoms: C_13  and  O_14 
REMARK    4  A    between atoms: O_14  and  C_15 
REMARK    5  A    between atoms: C_15  and  C_16 
ROOT
HETATM    1  N   UNL     1       7.237  22.636  55.292  1.00  0.00    -0.305 N 
HETATM    2  C   UNL     1       7.803  23.871  55.548  1.00  0.00     0.325 C 
HETATM    3  N   UNL     1       6.863  24.872  55.379  1.00  0.00    -0.306 N 
HETATM    4  O   UNL     1       8.964  24.059  55.889  1.00  0.00    -0.247 OA
HETATM    5  H   UNL     1       6.258  22.554  55.521  1.00  0.00     0.171 HD
HETATM    6  H   UNL     1       6.130  24.678  54.708  1.00  0.00     0.171 HD
ENDROOT
BRANCH   3   7
HETATM    7  C   UNL     1       6.994  26.223  55.762  1.00  0.00     0.070 A 
HETATM    8  C   UNL     1       7.358  27.153  54.772  1.00  0.00     0.098 A 
HETATM    9  C   UNL     1       7.436  28.515  55.060  1.00  0.00     0.081 A 
HETATM   10  C   UNL     1       7.178  28.942  56.356  1.00  0.00     0.119 A 
HETATM   11  F   UNL     1       7.254  30.248  56.644  1.00  0.00    -0.206 F 
HETATM   12  C   UNL     1       6.840  28.038  57.357  1.00  0.00     0.044 A 
HETATM   13  C   UNL     1       6.744  26.675  57.060  1.00  0.00     0.035 A 
BRANCH   8  14
HETATM   14  O   UNL     1       7.616  26.687  53.505  1.00  0.00    -0.340 OA
BRANCH  14  15
HETATM   15  C   UNL     1       6.434  26.750  52.682  1.00  0.00     0.293 C 
BRANCH  15  16
HETATM   16  C   UNL     1       6.325  25.496  51.829  1.00  0.00     0.408 C 
HETATM   17  F   UNL     1       7.547  24.995  51.535  1.00  0.00    -0.169 F 
HETATM   18  F   UNL     1       5.618  24.529  52.451  1.00  0.00    -0.169 F 
HETATM   19  F   UNL     1       5.702  25.767  50.658  1.00  0.00    -0.169 F 
ENDBRANCH  15  16
ENDBRANCH  14  15
ENDBRANCH   8  14
ENDBRANCH   3   7
BRANCH   1  20
HETATM   20  C   UNL     1       7.941  21.451  55.169  1.00  0.00     0.086 A 
HETATM   21  C   UNL     1       8.457  20.769  56.253  1.00  0.00     0.052 A 
HETATM   22  C   UNL     1       8.472  21.059  57.704  1.00  0.00     0.072 C 
HETATM   23  N   UNL     1       9.068  19.662  55.733  1.00  0.00    -0.280 N 
HETATM   24  H   UNL     1       9.575  18.936  56.229  1.00  0.00     0.189 HD
HETATM   25  N   UNL     1       8.955  19.551  54.405  1.00  0.00    -0.177 NA
HETATM   26  C   UNL     1       8.262  20.640  54.042  1.00  0.00     0.079 A 
HETATM   27  C   UNL     1       7.889  20.805  52.614  1.00  0.00     0.075 C 
ENDBRANCH   1  20
TORSDOF 5
ENDMDL
MODEL 4
REMARK VINA RESULT:      -7.6      1.797      2.858
REMARK  5 active torsions:
REMARK  status: ('A' for Active; 'I' for Inactive)
REMARK    1  A    between atoms: C_8  and  N_9 
REMARK       I    between atoms: N_9  and  C_10 
REMARK       I    between atoms: C_10  and  N_11 
REMARK    2  A    between atoms: N_11  and  C_12 
REMARK    3  A    between atoms: C_13  and  O_14 
REMARK    4  A    between atoms: O_14  and  C_15 
REMARK    5  A    between atoms: C_15  and  C_16 
ROOT
HETATM    1  N   UNL     1       5.834  26.762  50.987  1.00  0.00    -0.305 N 
HETATM    2  C   UNL     1       5.880  25.634  51.785  1.00  0.00     0.325 C 
HETATM    3  N   UNL     1       7.193  25.280  52.035  1.00  0.00    -0.306 N 
HETATM    4  O   UNL     1       4.904  25.038  52.222  1.00  0.00    -0.247 OA
HETATM    5  H   UNL     1       6.593  27.414  51.116  1.00  0.00     0.171 HD
HETATM    6  H   UNL     1       7.861  25.532  51.317  1.00  0.00     0.171 HD
ENDROOT
BRANCH   3   7
HETATM    7  C   UNL     1       7.645  24.334  52.979  1.00  0.00     0.070 A 
HETATM    8  C   UNL     1       7.792  24.757  54.312  1.00  0.00     0.098 A 
HETATM    9  C   UNL     1       8.164  23.861  55.313  1.00  0.00     0.081 A 
HETATM   10  C   UNL     1       8.420  22.540  54.970  1.00  0.00     0.119 A 
HETATM   11  F   UNL     1       8.782  21.671  55.923  1.00  0.00    -0.206 F 
HETATM   12  C   UNL     1       8.305  22.104  53.654  1.00  0.00     0.044 A 
HETATM   13  C   UNL     1       7.913  23.001  52.656  1.00  0.00     0.035 A 
BRANCH   8  14
HETATM   14  O   UNL     1       7.539  26.075  54.608  1.00  0.00    -0.340 OA
BRANCH  14  15
HETATM   15  C   UNL     1       7.114  26.224  55.977  1.00  0.00     0.293 C 
BRANCH  15  16
HETATM   16  C   UNL     1       5.599  26.317  56.046  1.00  0.00     0.408 C 
HETATM   17  F   UNL     1       5.078  26.719  54.864  1.00  0.00    -0.169 F 
HETATM   18  F   UNL     1       5.040  25.129  56.363  1.00  0.00    -0.169 F 
HETATM   19  F   UNL     1       5.216  27.211  56.987  1.00  0.00    -0.169 F 
ENDBRANCH  15  16
ENDBRANCH  14  15
ENDBRANCH   8  14
ENDBRANCH   3   7
BRANCH   1  20
HETATM   20  C   UNL     1       4.692  27.261  50.384  1.00  0.00     0.086 A 
HETATM   21  C   UNL     1       3.823  28.124  51.021  1.00  0.00     0.052 A 
HETATM   22  C   UNL     1       3.795  28.689  52.388  1.00  0.00     0.072 C 
HETATM   23  N   UNL     1       2.837  28.391  50.111  1.00  0.00    -0.280 N 
HETATM   24  H   UNL     1       2.015  28.972  50.232  1.00  0.00     0.189 HD
HETATM   25  N   UNL     1       3.020  27.803  48.924  1.00  0.00    -0.177 NA
HETATM   26  C   UNL     1       4.157  27.107  49.073  1.00  0.00     0.079 A 
HETATM   27  C   UNL     1       4.702  26.374  47.902  1.00  0.00     0.075 C 
ENDBRANCH   1  20
TORSDOF 5
ENDMDL
MODEL 5
REMARK VINA RESULT:      -7.6      1.842      2.179
REMARK  5 active torsions:
REMARK  status: ('A' for Active; 'I' for Inactive)
REMARK    1  A    between atoms: C_8  and  N_9 
REMARK       I    between atoms: N_9  and  C_10 
REMARK       I    between atoms: C_10  and  N_11 
REMARK    2  A    between atoms: N_11  and  C_12 
REMARK    3  A    between atoms: C_13  and  O_14 
REMARK    4  A    between atoms: O_14  and  C_15 
REMARK    5  A    between atoms: C_15  and  C_16 
ROOT
HETATM    1  N   UNL     1       5.084  25.594  51.540  1.00  0.00    -0.305 N 
HETATM    2  C   UNL     1       6.276  25.193  52.114  1.00  0.00     0.325 C 
HETATM    3  N   UNL     1       6.050  24.177  53.025  1.00  0.00    -0.306 N 
HETATM    4  O   UNL     1       7.378  25.658  51.851  1.00  0.00    -0.247 OA
HETATM    5  H   UNL     1       4.390  24.869  51.435  1.00  0.00     0.171 HD
HETATM    6  H   UNL     1       5.142  24.182  53.473  1.00  0.00     0.171 HD
ENDROOT
BRANCH   3   7
HETATM    7  C   UNL     1       7.026  23.364  53.638  1.00  0.00     0.070 A 
HETATM    8  C   UNL     1       7.231  23.514  55.020  1.00  0.00     0.098 A 
HETATM    9  C   UNL     1       8.126  22.695  55.707  1.00  0.00     0.081 A 
HETATM   10  C   UNL     1       8.844  21.741  54.997  1.00  0.00     0.119 A 
HETATM   11  F   UNL     1       9.709  20.952  55.646  1.00  0.00    -0.206 F 
HETATM   12  C   UNL     1       8.677  21.591  53.624  1.00  0.00     0.044 A 
HETATM   13  C   UNL     1       7.763  22.401  52.942  1.00  0.00     0.035 A 
BRANCH   8  14
HETATM   14  O   UNL     1       6.508  24.476  55.684  1.00  0.00    -0.340 OA
BRANCH  14  15
HETATM   15  C   UNL     1       7.364  25.545  56.136  1.00  0.00     0.293 C 
BRANCH  15  16
HETATM   16  C   UNL     1       6.943  26.857  55.495  1.00  0.00     0.408 C 
HETATM   17  F   UNL     1       5.705  26.766  54.957  1.00  0.00    -0.169 F 
HETATM   18  F   UNL     1       6.933  27.868  56.390  1.00  0.00    -0.169 F 
HETATM   19  F   UNL     1       7.796  27.200  54.503  1.00  0.00    -0.169 F 
ENDBRANCH  15  16
ENDBRANCH  14  15
ENDBRANCH   8  14
ENDBRANCH   3   7
BRANCH   1  20
HETATM   20  C   UNL     1       4.923  26.717  50.747  1.00  0.00     0.086 A 
HETATM   21  C   UNL     1       4.342  26.675  49.496  1.00  0.00     0.052 A 
HETATM   22  C   UNL     1       3.813  25.564  48.673  1.00  0.00     0.072 C 
HETATM   23  N   UNL     1       4.358  27.964  49.039  1.00  0.00    -0.280 N 
HETATM   24  H   UNL     1       4.031  28.316  48.146  1.00  0.00     0.189 HD
HETATM   25  N   UNL     1       4.866  28.842  49.911  1.00  0.00    -0.177 NA
HETATM   26  C   UNL     1       5.215  28.094  50.967  1.00  0.00     0.079 A 
HETATM   27  C   UNL     1       5.760  28.770  52.171  1.00  0.00     0.075 C 
ENDBRANCH   1  20
TORSDOF 5
ENDMDL
MODEL 6
REMARK VINA RESULT:      -7.5      7.824     10.613
REMARK  5 active torsions:
REMARK  status: ('A' for Active; 'I' for Inactive)
REMARK    1  A    between atoms: C_8  and  N_9 
REMARK       I    between atoms: N_9  and  C_10 
REMARK       I    between atoms: C_10  and  N_11 
REMARK    2  A    between atoms: N_11  and  C_12 
REMARK    3  A    between atoms: C_13  and  O_14 
REMARK    4  A    between atoms: O_14  and  C_15 
REMARK    5  A    between atoms: C_15  and  C_16 
ROOT
HETATM    1  N   UNL     1       8.229  29.798  58.730  1.00  0.00    -0.305 N 
HETATM    2  C   UNL     1       8.104  31.009  59.385  1.00  0.00     0.325 C 
HETATM    3  N   UNL     1       7.441  30.836  60.586  1.00  0.00    -0.306 N 
HETATM    4  O   UNL     1       8.528  32.081  58.973  1.00  0.00    -0.247 OA
HETATM    5  H   UNL     1       8.319  28.990  59.328  1.00  0.00     0.171 HD
HETATM    6  H   UNL     1       6.781  30.068  60.618  1.00  0.00     0.171 HD
ENDROOT
BRANCH   3   7
HETATM    7  C   UNL     1       7.323  31.781  61.626  1.00  0.00     0.070 A 
HETATM    8  C   UNL     1       6.202  32.631  61.616  1.00  0.00     0.098 A 
HETATM    9  C   UNL     1       5.981  33.540  62.650  1.00  0.00     0.081 A 
HETATM   10  C   UNL     1       6.907  33.620  63.683  1.00  0.00     0.119 A 
HETATM   11  F   UNL     1       6.706  34.492  64.678  1.00  0.00    -0.206 F 
HETATM   12  C   UNL     1       8.035  32.807  63.701  1.00  0.00     0.044 A 
HETATM   13  C   UNL     1       8.244  31.883  62.672  1.00  0.00     0.035 A 
BRANCH   8  14
HETATM   14  O   UNL     1       5.316  32.527  60.571  1.00  0.00    -0.340 OA
BRANCH  14  15
HETATM   15  C   UNL     1       3.955  32.625  61.036  1.00  0.00     0.293 C 
BRANCH  15  16
HETATM   16  C   UNL     1       3.205  33.677  60.236  1.00  0.00     0.408 C 
HETATM   17  F   UNL     1       3.808  34.885  60.326  1.00  0.00    -0.169 F 
HETATM   18  F   UNL     1       3.128  33.349  58.928  1.00  0.00    -0.169 F 
HETATM   19  F   UNL     1       1.940  33.817  60.696  1.00  0.00    -0.169 F 
ENDBRANCH  15  16
ENDBRANCH  14  15
ENDBRANCH   8  14
ENDBRANCH   3   7
BRANCH   1  20
HETATM   20  C   UNL     1       8.655  29.643  57.421  1.00  0.00     0.086 A 
HETATM   21  C   UNL     1       7.789  29.391  56.376  1.00  0.00     0.052 A 
HETATM   22  C   UNL     1       6.325  29.182  56.315  1.00  0.00     0.072 C 
HETATM   23  N   UNL     1       8.575  29.310  55.260  1.00  0.00    -0.280 N 
HETATM   24  H   UNL     1       8.289  29.116  54.306  1.00  0.00     0.189 HD
HETATM   25  N   UNL     1       9.873  29.530  55.492  1.00  0.00    -0.177 NA
HETATM   26  C   UNL     1       9.940  29.739  56.815  1.00  0.00     0.079 A 
HETATM   27  C   UNL     1      11.252  30.089  57.416  1.00  0.00     0.075 C 
ENDBRANCH   1  20
TORSDOF 5
ENDMDL
MODEL 7
REMARK VINA RESULT:      -7.5      2.743      6.552
REMARK  5 active torsions:
REMARK  status: ('A' for Active; 'I' for Inactive)
REMARK    1  A    between atoms: C_8  and  N_9 
REMARK       I    between atoms: N_9  and  C_10 
REMARK       I    between atoms: C_10  and  N_11 
REMARK    2  A    between atoms: N_11  and  C_12 
REMARK    3  A    between atoms: C_13  and  O_14 
REMARK    4  A    between atoms: O_14  and  C_15 
REMARK    5  A    between atoms: C_15  and  C_16 
ROOT
HETATM    1  N   UNL     1       7.134  22.604  54.998  1.00  0.00    -0.305 N 
HETATM    2  C   UNL     1       7.240  23.596  54.041  1.00  0.00     0.325 C 
HETATM    3  N   UNL     1       6.159  24.454  54.121  1.00  0.00    -0.306 N 
HETATM    4  O   UNL     1       8.162  23.711  53.243  1.00  0.00    -0.247 OA
HETATM    5  H   UNL     1       6.676  22.877  55.854  1.00  0.00     0.171 HD
HETATM    6  H   UNL     1       5.299  24.048  54.468  1.00  0.00     0.171 HD
ENDROOT
BRANCH   3   7
HETATM    7  C   UNL     1       6.024  25.701  53.474  1.00  0.00     0.070 A 
HETATM    8  C   UNL     1       6.603  26.825  54.089  1.00  0.00     0.098 A 
HETATM    9  C   UNL     1       6.573  28.075  53.473  1.00  0.00     0.081 A 
HETATM   10  C   UNL     1       5.931  28.205  52.248  1.00  0.00     0.119 A 
HETATM   11  F   UNL     1       5.893  29.402  51.650  1.00  0.00    -0.206 F 
HETATM   12  C   UNL     1       5.330  27.113  51.633  1.00  0.00     0.044 A 
HETATM   13  C   UNL     1       5.379  25.856  52.244  1.00  0.00     0.035 A 
BRANCH   8  14
HETATM   14  O   UNL     1       7.220  26.656  55.306  1.00  0.00    -0.340 OA
BRANCH  14  15
HETATM   15  C   UNL     1       7.513  27.928  55.917  1.00  0.00     0.293 C 
BRANCH  15  16
HETATM   16  C   UNL     1       8.336  27.723  57.178  1.00  0.00     0.408 C 
HETATM   17  F   UNL     1       9.552  28.306  57.071  1.00  0.00    -0.169 F 
HETATM   18  F   UNL     1       7.722  28.242  58.264  1.00  0.00    -0.169 F 
HETATM   19  F   UNL     1       8.534  26.405  57.412  1.00  0.00    -0.169 F 
ENDBRANCH  15  16
ENDBRANCH  14  15
ENDBRANCH   8  14
ENDBRANCH   3   7
BRANCH   1  20
HETATM   20  C   UNL     1       7.931  21.474  55.061  1.00  0.00     0.086 A 
HETATM   21  C   UNL     1       8.463  20.995  56.242  1.00  0.00     0.052 A 
HETATM   22  C   UNL     1       8.409  21.488  57.636  1.00  0.00     0.072 C 
HETATM   23  N   UNL     1       9.174  19.879  55.900  1.00  0.00    -0.280 N 
HETATM   24  H   UNL     1       9.718  19.274  56.505  1.00  0.00     0.189 HD
HETATM   25  N   UNL     1       9.112  19.573  54.599  1.00  0.00    -0.177 NA
HETATM   26  C   UNL     1       8.350  20.541  54.069  1.00  0.00     0.079 A 
HETATM   27  C   UNL     1       8.012  20.471  52.625  1.00  0.00     0.075 C 
ENDBRANCH   1  20
TORSDOF 5
ENDMDL
MODEL 8
REMARK VINA RESULT:      -7.4      1.822      2.830
REMARK  5 active torsions:
REMARK  status: ('A' for Active; 'I' for Inactive)
REMARK    1  A    between atoms: C_8  and  N_9 
REMARK       I    between atoms: N_9  and  C_10 
REMARK       I    between atoms: C_10  and  N_11 
REMARK    2  A    between atoms: N_11  and  C_12 
REMARK    3  A    between atoms: C_13  and  O_14 
REMARK    4  A    between atoms: O_14  and  C_15 
REMARK    5  A    between atoms: C_15  and  C_16 
ROOT
HETATM    1  N   UNL     1       3.876  27.192  53.309  1.00  0.00    -0.305 N 
HETATM    2  C   UNL     1       5.167  26.719  53.455  1.00  0.00     0.325 C 
HETATM    3  N   UNL     1       5.150  25.433  53.963  1.00  0.00    -0.306 N 
HETATM    4  O   UNL     1       6.183  27.339  53.166  1.00  0.00    -0.247 OA
HETATM    5  H   UNL     1       3.182  26.494  53.088  1.00  0.00     0.171 HD
HETATM    6  H   UNL     1       4.359  25.203  54.551  1.00  0.00     0.171 HD
ENDROOT
BRANCH   3   7
HETATM    7  C   UNL     1       6.241  24.543  54.037  1.00  0.00     0.070 A 
HETATM    8  C   UNL     1       6.700  24.172  55.313  1.00  0.00     0.098 A 
HETATM    9  C   UNL     1       7.726  23.241  55.466  1.00  0.00     0.081 A 
HETATM   10  C   UNL     1       8.318  22.703  54.330  1.00  0.00     0.119 A 
HETATM   11  F   UNL     1       9.307  21.811  54.465  1.00  0.00    -0.206 F 
HETATM   12  C   UNL     1       7.898  23.073  53.057  1.00  0.00     0.044 A 
HETATM   13  C   UNL     1       6.855  23.993  52.908  1.00  0.00     0.035 A 
BRANCH   8  14
HETATM   14  O   UNL     1       6.094  24.735  56.411  1.00  0.00    -0.340 OA
BRANCH  14  15
HETATM   15  C   UNL     1       7.062  25.393  57.254  1.00  0.00     0.293 C 
BRANCH  15  16
HETATM   16  C   UNL     1       7.089  26.882  56.954  1.00  0.00     0.408 C 
HETATM   17  F   UNL     1       7.868  27.153  55.881  1.00  0.00    -0.169 F 
HETATM   18  F   UNL     1       5.852  27.362  56.699  1.00  0.00    -0.169 F 
HETATM   19  F   UNL     1       7.586  27.574  58.005  1.00  0.00    -0.169 F 
ENDBRANCH  15  16
ENDBRANCH  14  15
ENDBRANCH   8  14
ENDBRANCH   3   7
BRANCH   1  20
HETATM   20  C   UNL     1       3.539  28.504  53.023  1.00  0.00     0.086 A 
HETATM   21  C   UNL     1       3.558  29.508  53.971  1.00  0.00     0.052 A 
HETATM   22  C   UNL     1       3.856  29.510  55.421  1.00  0.00     0.072 C 
HETATM   23  N   UNL     1       3.175  30.643  53.313  1.00  0.00    -0.280 N 
HETATM   24  H   UNL     1       3.055  31.576  53.692  1.00  0.00     0.189 HD
HETATM   25  N   UNL     1       2.949  30.463  52.007  1.00  0.00    -0.177 NA
HETATM   26  C   UNL     1       3.171  29.155  51.811  1.00  0.00     0.079 A 
HETATM   27  C   UNL     1       3.075  28.615  50.431  1.00  0.00     0.075 C 
ENDBRANCH   1  20
TORSDOF 5
ENDMDL
MODEL 9
REMARK VINA RESULT:      -7.4      4.076      5.428
REMARK  5 active torsions:
REMARK  status: ('A' for Active; 'I' for Inactive)
REMARK    1  A    between atoms: C_8  and  N_9 
REMARK       I    between atoms: N_9  and  C_10 
REMARK       I    between atoms: C_10  and  N_11 
REMARK    2  A    between atoms: N_11  and  C_12 
REMARK    3  A    between atoms: C_13  and  O_14 
REMARK    4  A    between atoms: O_14  and  C_15 
REMARK    5  A    between atoms: C_15  and  C_16 
ROOT
HETATM    1  N   UNL     1       8.121  28.808  56.301  1.00  0.00    -0.305 N 
HETATM    2  C   UNL     1       8.039  27.457  56.582  1.00  0.00     0.325 C 
HETATM    3  N   UNL     1       7.522  26.774  55.497  1.00  0.00    -0.306 N 
HETATM    4  O   UNL     1       8.385  26.933  57.633  1.00  0.00    -0.247 OA
HETATM    5  H   UNL     1       8.300  29.038  55.335  1.00  0.00     0.171 HD
HETATM    6  H   UNL     1       6.891  27.301  54.905  1.00  0.00     0.171 HD
ENDROOT
BRANCH   3   7
HETATM    7  C   UNL     1       7.497  25.375  55.317  1.00  0.00     0.070 A 
HETATM    8  C   UNL     1       7.541  24.882  54.001  1.00  0.00     0.098 A 
HETATM    9  C   UNL     1       7.594  23.512  53.749  1.00  0.00     0.081 A 
HETATM   10  C   UNL     1       7.571  22.631  54.822  1.00  0.00     0.119 A 
HETATM   11  F   UNL     1       7.617  21.313  54.590  1.00  0.00    -0.206 F 
HETATM   12  C   UNL     1       7.502  23.094  56.131  1.00  0.00     0.044 A 
HETATM   13  C   UNL     1       7.469  24.470  56.381  1.00  0.00     0.035 A 
BRANCH   8  14
HETATM   14  O   UNL     1       7.553  25.788  52.967  1.00  0.00    -0.340 OA
BRANCH  14  15
HETATM   15  C   UNL     1       6.955  25.226  51.782  1.00  0.00     0.293 C 
BRANCH  15  16
HETATM   16  C   UNL     1       5.489  25.618  51.700  1.00  0.00     0.408 C 
HETATM   17  F   UNL     1       4.687  24.603  52.096  1.00  0.00    -0.169 F 
HETATM   18  F   UNL     1       5.216  26.690  52.476  1.00  0.00    -0.169 F 
HETATM   19  F   UNL     1       5.149  25.937  50.430  1.00  0.00    -0.169 F 
ENDBRANCH  15  16
ENDBRANCH  14  15
ENDBRANCH   8  14
ENDBRANCH   3   7
BRANCH   1  20
HETATM   20  C   UNL     1       8.399  29.797  57.229  1.00  0.00     0.086 A 
HETATM   21  C   UNL     1       9.685  30.183  57.552  1.00  0.00     0.052 A 
HETATM   22  C   UNL     1      11.014  29.705  57.113  1.00  0.00     0.072 C 
HETATM   23  N   UNL     1       9.548  31.172  58.486  1.00  0.00    -0.280 N 
HETATM   24  H   UNL     1      10.279  31.683  58.969  1.00  0.00     0.189 HD
HETATM   25  N   UNL     1       8.277  31.485  58.764  1.00  0.00    -0.177 NA
HETATM   26  C   UNL     1       7.558  30.652  57.998  1.00  0.00     0.079 A 
HETATM   27  C   UNL     1       6.078  30.776  58.005  1.00  0.00     0.075 C 
ENDBRANCH   1  20
TORSDOF 5
ENDMDL
MODEL 10
REMARK VINA RESULT:      -7.4      2.443      6.204
REMARK  5 active torsions:
REMARK  status: ('A' for Active; 'I' for Inactive)
REMARK    1  A    between atoms: C_8  and  N_9 
REMARK       I    between atoms: N_9  and  C_10 
REMARK       I    between atoms: C_10  and  N_11 
REMARK    2  A    between atoms: N_11  and  C_12 
REMARK    3  A    between atoms: C_13  and  O_14 
REMARK    4  A    between atoms: O_14  and  C_15 
REMARK    5  A    between atoms: C_15  and  C_16 
ROOT
HETATM    1  N   UNL     1       8.248  23.429  53.742  1.00  0.00    -0.305 N 
HETATM    2  C   UNL     1       7.155  24.267  53.623  1.00  0.00     0.325 C 
HETATM    3  N   UNL     1       7.468  25.348  52.819  1.00  0.00    -0.306 N 
HETATM    4  O   UNL     1       6.062  24.081  54.142  1.00  0.00    -0.247 OA
HETATM    5  H   UNL     1       8.854  23.392  52.937  1.00  0.00     0.171 HD
HETATM    6  H   UNL     1       8.441  25.629  52.818  1.00  0.00     0.171 HD
ENDROOT
BRANCH   3   7
HETATM    7  C   UNL     1       6.564  26.288  52.283  1.00  0.00     0.070 A 
HETATM    8  C   UNL     1       6.516  27.563  52.874  1.00  0.00     0.098 A 
HETATM    9  C   UNL     1       5.700  28.566  52.354  1.00  0.00     0.081 A 
HETATM   10  C   UNL     1       4.903  28.279  51.254  1.00  0.00     0.119 A 
HETATM   11  F   UNL     1       4.112  29.234  50.748  1.00  0.00    -0.206 F 
HETATM   12  C   UNL     1       4.914  27.019  50.668  1.00  0.00     0.044 A 
HETATM   13  C   UNL     1       5.748  26.020  51.180  1.00  0.00     0.035 A 
BRANCH   8  14
HETATM   14  O   UNL     1       7.313  27.803  53.968  1.00  0.00    -0.340 OA
BRANCH  14  15
HETATM   15  C   UNL     1       6.518  28.133  55.124  1.00  0.00     0.293 C 
BRANCH  15  16
HETATM   16  C   UNL     1       6.784  27.138  56.242  1.00  0.00     0.408 C 
HETATM   17  F   UNL     1       6.904  27.762  57.437  1.00  0.00    -0.169 F 
HETATM   18  F   UNL     1       5.790  26.229  56.348  1.00  0.00    -0.169 F 
HETATM   19  F   UNL     1       7.933  26.461  56.017  1.00  0.00    -0.169 F 
ENDBRANCH  15  16
ENDBRANCH  14  15
ENDBRANCH   8  14
ENDBRANCH   3   7
BRANCH   1  20
HETATM   20  C   UNL     1       8.344  22.372  54.632  1.00  0.00     0.086 A 
HETATM   21  C   UNL     1       8.421  21.055  54.227  1.00  0.00     0.052 A 
HETATM   22  C   UNL     1       8.382  20.413  52.894  1.00  0.00     0.072 C 
HETATM   23  N   UNL     1       8.509  20.321  55.377  1.00  0.00    -0.280 N 
HETATM   24  H   UNL     1       8.562  19.313  55.475  1.00  0.00     0.189 HD
HETATM   25  N   UNL     1       8.536  21.059  56.492  1.00  0.00    -0.177 NA
HETATM   26  C   UNL     1       8.439  22.323  56.053  1.00  0.00     0.079 A 
HETATM   27  C   UNL     1       8.509  23.429  57.041  1.00  0.00     0.075 C 
ENDBRANCH   1  20
TORSDOF 5
ENDMDL
