MODEL 1
REMARK VINA RESULT:     -10.9      0.000      0.000
REMARK  6 active torsions:
REMARK  status: ('A' for Active; 'I' for Inactive)
REMARK    1  A    between atoms: N_9  and  C_10 
REMARK    2  A    between atoms: C_10  and  C_11 
REMARK       I    between atoms: C_11  and  N_12 
REMARK    3  A    between atoms: N_12  and  C_13 
REMARK    4  A    between atoms: C_14  and  C_15 
REMARK       I    between atoms: C_15  and  N_16 
REMARK    5  A    between atoms: N_16  and  C_17 
REMARK    6  A    between atoms: C_17  and  C_18 
ROOT
HETATM    1  C   UNL     1       7.333  29.547  57.603  1.00  0.00     0.240 C 
HETATM    2  N   UNL     1       7.351  30.857  58.060  1.00  0.00    -0.325 N 
HETATM    3  O   UNL     1       7.841  28.578  58.152  1.00  0.00    -0.271 OA
HETATM    4  H   UNL     1       7.031  31.556  57.400  1.00  0.00     0.169 HD
ENDROOT
BRANCH   1   5
HETATM    5  C   UNL     1       6.554  29.404  56.291  1.00  0.00     0.240 C 
BRANCH   5   6
HETATM    6  N   UNL     1       6.379  28.019  55.922  1.00  0.00    -0.259 N 
HETATM    7  C   UNL     1       5.220  27.333  56.109  1.00  0.00     0.326 C 
HETATM    8  N   UNL     1       5.313  26.127  55.468  1.00  0.00    -0.320 N 
HETATM    9  O   UNL     1       4.228  27.720  56.705  1.00  0.00    -0.247 OA
HETATM   10  C   UNL     1       6.472  26.044  54.602  1.00  0.00     0.144 C 
HETATM   11  H   UNL     1       4.561  25.454  55.501  1.00  0.00     0.165 HD
HETATM   12  C   UNL     1       7.324  24.825  54.900  1.00  0.00    -0.014 A 
HETATM   13  C   UNL     1       7.157  27.379  54.991  1.00  0.00     0.261 C 
HETATM   14  C   UNL     1       5.986  26.140  53.141  1.00  0.00     0.047 C 
HETATM   15  C   UNL     1       7.769  23.972  53.868  1.00  0.00    -0.049 A 
HETATM   16  C   UNL     1       7.711  24.533  56.222  1.00  0.00     0.011 A 
HETATM   17  C   UNL     1       8.534  22.837  54.179  1.00  0.00     0.007 A 
HETATM   18  C   UNL     1       7.408  24.219  52.423  1.00  0.00     0.039 C 
HETATM   19  C   UNL     1       8.890  22.558  55.497  1.00  0.00     0.001 A 
HETATM   20  C   UNL     1       8.482  23.409  56.517  1.00  0.00     0.001 A 
HETATM   21  C   UNL     1       7.048  25.674  52.154  1.00  0.00     0.008 C 
HETATM   22  O   UNL     1       8.168  27.842  54.474  1.00  0.00    -0.270 OA
ENDBRANCH   5   6
ENDBRANCH   1   5
BRANCH   2  23
HETATM   23  C   UNL     1       7.924  31.384  59.241  1.00  0.00     0.050 A 
HETATM   24  C   UNL     1       7.270  31.933  60.354  1.00  0.00     0.058 A 
HETATM   25  C   UNL     1       8.026  32.320  61.482  1.00  0.00     0.019 A 
HETATM   26  C   UNL     1       9.415  32.210  61.499  1.00  0.00     0.001 A 
HETATM   27  C   UNL     1      10.072  31.722  60.381  1.00  0.00     0.002 A 
HETATM   28  C   UNL     1       9.334  31.320  59.264  1.00  0.00     0.030 A 
BRANCH  24  29
HETATM   29  C   UNL     1       5.834  32.291  60.456  1.00  0.00     0.254 C 
HETATM   30  N   UNL     1       5.197  31.969  61.638  1.00  0.00    -0.351 N 
HETATM   31  H   UNL     1       5.754  31.755  62.458  1.00  0.00     0.163 HD
HETATM   32  O   UNL     1       5.253  32.731  59.468  1.00  0.00    -0.268 OA
BRANCH  30  33
HETATM   33  C   UNL     1       3.841  32.420  61.838  1.00  0.00     0.187 C 
BRANCH  33  34
HETATM   34  C   UNL     1       3.768  33.272  63.049  1.00  0.00     0.070 A 
HETATM   35  O   UNL     1       4.569  32.924  64.097  1.00  0.00    -0.325 OA
HETATM   36  C   UNL     1       4.391  33.858  65.066  1.00  0.00     0.142 A 
HETATM   37  C   UNL     1       3.474  34.799  64.661  1.00  0.00     0.027 A 
HETATM   38  C   UNL     1       3.070  34.421  63.358  1.00  0.00     0.036 A 
ENDBRANCH  33  34
ENDBRANCH  30  33
ENDBRANCH  24  29
ENDBRANCH   2  23
TORSDOF 6
ENDMDL
MODEL 2
REMARK VINA RESULT:     -10.5      2.038      3.142
REMARK  6 active torsions:
REMARK  status: ('A' for Active; 'I' for Inactive)
REMARK    1  A    between atoms: N_9  and  C_10 
REMARK    2  A    between atoms: C_10  and  C_11 
REMARK       I    between atoms: C_11  and  N_12 
REMARK    3  A    between atoms: N_12  and  C_13 
REMARK    4  A    between atoms: C_14  and  C_15 
REMARK       I    between atoms: C_15  and  N_16 
REMARK    5  A    between atoms: N_16  and  C_17 
REMARK    6  A    between atoms: C_17  and  C_18 
ROOT
HETATM    1  C   UNL     1       7.027  28.379  57.332  1.00  0.00     0.240 C 
HETATM    2  N   UNL     1       5.883  28.923  57.897  1.00  0.00    -0.325 N 
HETATM    3  O   UNL     1       7.787  28.935  56.549  1.00  0.00    -0.271 OA
HETATM    4  H   UNL     1       5.283  28.270  58.386  1.00  0.00     0.169 HD
ENDROOT
BRANCH   1   5
HETATM    5  C   UNL     1       7.289  26.950  57.819  1.00  0.00     0.240 C 
BRANCH   5   6
HETATM    6  N   UNL     1       6.880  25.969  56.842  1.00  0.00    -0.259 N 
HETATM    7  C   UNL     1       5.581  25.644  56.603  1.00  0.00     0.326 C 
HETATM    8  N   UNL     1       5.523  24.850  55.489  1.00  0.00    -0.320 N 
HETATM    9  O   UNL     1       4.605  26.018  57.233  1.00  0.00    -0.247 OA
HETATM   10  C   UNL     1       6.782  24.801  54.774  1.00  0.00     0.144 C 
HETATM   11  H   UNL     1       4.646  24.480  55.152  1.00  0.00     0.165 HD
HETATM   12  C   UNL     1       7.254  23.378  54.543  1.00  0.00    -0.014 A 
HETATM   13  C   UNL     1       7.662  25.581  55.784  1.00  0.00     0.261 C 
HETATM   14  C   UNL     1       6.635  25.640  53.487  1.00  0.00     0.047 C 
HETATM   15  C   UNL     1       7.691  22.949  53.271  1.00  0.00    -0.049 A 
HETATM   16  C   UNL     1       7.290  22.458  55.607  1.00  0.00     0.011 A 
HETATM   17  C   UNL     1       8.097  21.618  53.084  1.00  0.00     0.007 A 
HETATM   18  C   UNL     1       7.694  23.874  52.079  1.00  0.00     0.039 C 
HETATM   19  C   UNL     1       8.107  20.720  54.149  1.00  0.00     0.001 A 
HETATM   20  C   UNL     1       7.708  21.142  55.411  1.00  0.00     0.001 A 
HETATM   21  C   UNL     1       7.739  25.342  52.482  1.00  0.00     0.008 C 
HETATM   22  O   UNL     1       8.834  25.897  55.617  1.00  0.00    -0.270 OA
ENDBRANCH   5   6
ENDBRANCH   1   5
BRANCH   2  23
HETATM   23  C   UNL     1       5.334  30.217  57.735  1.00  0.00     0.050 A 
HETATM   24  C   UNL     1       5.854  31.443  58.175  1.00  0.00     0.058 A 
HETATM   25  C   UNL     1       5.195  32.643  57.827  1.00  0.00     0.019 A 
HETATM   26  C   UNL     1       4.012  32.634  57.091  1.00  0.00     0.001 A 
HETATM   27  C   UNL     1       3.463  31.423  56.701  1.00  0.00     0.002 A 
HETATM   28  C   UNL     1       4.114  30.230  57.025  1.00  0.00     0.030 A 
BRANCH  24  29
HETATM   29  C   UNL     1       6.990  31.645  59.108  1.00  0.00     0.254 C 
HETATM   30  N   UNL     1       6.690  31.670  60.455  1.00  0.00    -0.351 N 
HETATM   31  H   UNL     1       5.798  31.301  60.771  1.00  0.00     0.163 HD
HETATM   32  O   UNL     1       8.101  31.904  58.654  1.00  0.00    -0.268 OA
BRANCH  30  33
HETATM   33  C   UNL     1       7.773  31.724  61.406  1.00  0.00     0.187 C 
BRANCH  33  34
HETATM   34  C   UNL     1       7.376  32.543  62.576  1.00  0.00     0.070 A 
HETATM   35  O   UNL     1       6.177  33.189  62.498  1.00  0.00    -0.325 OA
HETATM   36  C   UNL     1       5.986  33.824  63.682  1.00  0.00     0.142 A 
HETATM   37  C   UNL     1       7.054  33.608  64.520  1.00  0.00     0.027 A 
HETATM   38  C   UNL     1       7.954  32.781  63.806  1.00  0.00     0.036 A 
ENDBRANCH  33  34
ENDBRANCH  30  33
ENDBRANCH  24  29
ENDBRANCH   2  23
TORSDOF 6
ENDMDL
MODEL 3
REMARK VINA RESULT:     -10.5      1.962      4.441
REMARK  6 active torsions:
REMARK  status: ('A' for Active; 'I' for Inactive)
REMARK    1  A    between atoms: N_9  and  C_10 
REMARK    2  A    between atoms: C_10  and  C_11 
REMARK       I    between atoms: C_11  and  N_12 
REMARK    3  A    between atoms: N_12  and  C_13 
REMARK    4  A    between atoms: C_14  and  C_15 
REMARK       I    between atoms: C_15  and  N_16 
REMARK    5  A    between atoms: N_16  and  C_17 
REMARK    6  A    between atoms: C_17  and  C_18 
ROOT
HETATM    1  C   UNL     1       6.032  30.024  57.140  1.00  0.00     0.240 C 
HETATM    2  N   UNL     1       5.542  31.310  57.316  1.00  0.00    -0.325 N 
HETATM    3  O   UNL     1       6.260  29.205  58.020  1.00  0.00    -0.271 OA
HETATM    4  H   UNL     1       5.573  31.907  56.499  1.00  0.00     0.169 HD
ENDROOT
BRANCH   1   5
HETATM    5  C   UNL     1       6.250  29.687  55.661  1.00  0.00     0.240 C 
BRANCH   5   6
HETATM    6  N   UNL     1       6.124  28.271  55.411  1.00  0.00    -0.259 N 
HETATM    7  C   UNL     1       4.951  27.591  55.518  1.00  0.00     0.326 C 
HETATM    8  N   UNL     1       5.125  26.329  55.016  1.00  0.00    -0.320 N 
HETATM    9  O   UNL     1       3.892  28.022  55.944  1.00  0.00    -0.247 OA
HETATM   10  C   UNL     1       6.384  26.177  54.315  1.00  0.00     0.144 C 
HETATM   11  H   UNL     1       4.375  25.653  55.021  1.00  0.00     0.165 HD
HETATM   12  C   UNL     1       7.192  25.004  54.837  1.00  0.00    -0.014 A 
HETATM   13  C   UNL     1       7.014  27.553  54.653  1.00  0.00     0.261 C 
HETATM   14  C   UNL     1       6.086  26.123  52.802  1.00  0.00     0.047 C 
HETATM   15  C   UNL     1       7.764  24.060  53.957  1.00  0.00    -0.049 A 
HETATM   16  C   UNL     1       7.409  24.848  56.218  1.00  0.00     0.011 A 
HETATM   17  C   UNL     1       8.484  22.971  54.473  1.00  0.00     0.007 A 
HETATM   18  C   UNL     1       7.588  24.160  52.462  1.00  0.00     0.039 C 
HETATM   19  C   UNL     1       8.671  22.827  55.845  1.00  0.00     0.001 A 
HETATM   20  C   UNL     1       8.138  23.769  56.718  1.00  0.00     0.001 A 
HETATM   21  C   UNL     1       7.264  25.577  52.007  1.00  0.00     0.008 C 
HETATM   22  O   UNL     1       8.081  27.976  54.224  1.00  0.00    -0.270 OA
ENDBRANCH   5   6
ENDBRANCH   1   5
BRANCH   2  23
HETATM   23  C   UNL     1       5.176  31.970  58.512  1.00  0.00     0.050 A 
HETATM   24  C   UNL     1       6.008  32.406  59.555  1.00  0.00     0.058 A 
HETATM   25  C   UNL     1       5.453  33.135  60.629  1.00  0.00     0.019 A 
HETATM   26  C   UNL     1       4.086  33.395  60.700  1.00  0.00     0.001 A 
HETATM   27  C   UNL     1       3.250  32.918  59.703  1.00  0.00     0.002 A 
HETATM   28  C   UNL     1       3.790  32.209  58.627  1.00  0.00     0.030 A 
BRANCH  24  29
HETATM   29  C   UNL     1       7.443  32.077  59.745  1.00  0.00     0.254 C 
HETATM   30  N   UNL     1       7.745  30.760  60.026  1.00  0.00    -0.351 N 
HETATM   31  H   UNL     1       7.052  30.042  59.839  1.00  0.00     0.163 HD
HETATM   32  O   UNL     1       8.269  32.985  59.773  1.00  0.00    -0.268 OA
BRANCH  30  33
HETATM   33  C   UNL     1       9.131  30.364  60.083  1.00  0.00     0.187 C 
BRANCH  33  34
HETATM   34  C   UNL     1       9.650  30.151  58.711  1.00  0.00     0.070 A 
HETATM   35  O   UNL     1       9.271  29.004  58.079  1.00  0.00    -0.325 OA
HETATM   36  C   UNL     1       9.804  29.038  56.831  1.00  0.00     0.142 A 
HETATM   37  C   UNL     1      10.534  30.188  56.654  1.00  0.00     0.027 A 
HETATM   38  C   UNL     1      10.438  30.909  57.868  1.00  0.00     0.036 A 
ENDBRANCH  33  34
ENDBRANCH  30  33
ENDBRANCH  24  29
ENDBRANCH   2  23
TORSDOF 6
ENDMDL
MODEL 4
REMARK VINA RESULT:     -10.3      3.187      5.437
REMARK  6 active torsions:
REMARK  status: ('A' for Active; 'I' for Inactive)
REMARK    1  A    between atoms: N_9  and  C_10 
REMARK    2  A    between atoms: C_10  and  C_11 
REMARK       I    between atoms: C_11  and  N_12 
REMARK    3  A    between atoms: N_12  and  C_13 
REMARK    4  A    between atoms: C_14  and  C_15 
REMARK       I    between atoms: C_15  and  N_16 
REMARK    5  A    between atoms: N_16  and  C_17 
REMARK    6  A    between atoms: C_17  and  C_18 
ROOT
HETATM    1  C   UNL     1       4.767  27.457  53.088  1.00  0.00     0.240 C 
HETATM    2  N   UNL     1       4.313  27.972  54.294  1.00  0.00    -0.325 N 
HETATM    3  O   UNL     1       5.216  28.098  52.146  1.00  0.00    -0.271 OA
HETATM    4  H   UNL     1       3.819  27.319  54.890  1.00  0.00     0.169 HD
ENDROOT
BRANCH   1   5
HETATM    5  C   UNL     1       4.676  25.928  53.042  1.00  0.00     0.240 C 
BRANCH   5   6
HETATM    6  N   UNL     1       5.869  25.306  53.566  1.00  0.00    -0.259 N 
HETATM    7  C   UNL     1       7.064  25.310  52.918  1.00  0.00     0.326 C 
HETATM    8  N   UNL     1       8.026  24.829  53.765  1.00  0.00    -0.320 N 
HETATM    9  O   UNL     1       7.282  25.711  51.786  1.00  0.00    -0.247 OA
HETATM   10  C   UNL     1       7.555  24.702  55.129  1.00  0.00     0.144 C 
HETATM   11  H   UNL     1       8.987  24.731  53.469  1.00  0.00     0.165 HD
HETATM   12  C   UNL     1       7.782  23.309  55.686  1.00  0.00    -0.014 A 
HETATM   13  C   UNL     1       6.058  25.032  54.897  1.00  0.00     0.261 C 
HETATM   14  C   UNL     1       8.191  25.833  55.964  1.00  0.00     0.047 C 
HETATM   15  C   UNL     1       8.367  23.114  56.955  1.00  0.00    -0.049 A 
HETATM   16  C   UNL     1       7.386  22.176  54.951  1.00  0.00     0.011 A 
HETATM   17  C   UNL     1       8.587  21.812  57.431  1.00  0.00     0.007 A 
HETATM   18  C   UNL     1       8.810  24.275  57.812  1.00  0.00     0.039 C 
HETATM   19  C   UNL     1       8.204  20.705  56.678  1.00  0.00     0.001 A 
HETATM   20  C   UNL     1       7.599  20.887  55.440  1.00  0.00     0.001 A 
HETATM   21  C   UNL     1       8.086  25.568  57.460  1.00  0.00     0.008 C 
HETATM   22  O   UNL     1       5.205  25.140  55.770  1.00  0.00    -0.270 OA
ENDBRANCH   5   6
ENDBRANCH   1   5
BRANCH   2  23
HETATM   23  C   UNL     1       4.275  29.315  54.734  1.00  0.00     0.050 A 
HETATM   24  C   UNL     1       5.010  29.913  55.769  1.00  0.00     0.058 A 
HETATM   25  C   UNL     1       4.894  31.303  55.991  1.00  0.00     0.019 A 
HETATM   26  C   UNL     1       4.031  32.090  55.232  1.00  0.00     0.001 A 
HETATM   27  C   UNL     1       3.260  31.496  54.245  1.00  0.00     0.002 A 
HETATM   28  C   UNL     1       3.377  30.125  54.005  1.00  0.00     0.030 A 
BRANCH  24  29
HETATM   29  C   UNL     1       5.836  29.221  56.789  1.00  0.00     0.254 C 
HETATM   30  N   UNL     1       7.028  29.824  57.135  1.00  0.00    -0.351 N 
HETATM   31  H   UNL     1       7.175  30.800  56.901  1.00  0.00     0.163 HD
HETATM   32  O   UNL     1       5.499  28.106  57.179  1.00  0.00    -0.268 OA
BRANCH  30  33
HETATM   33  C   UNL     1       7.799  29.264  58.218  1.00  0.00     0.187 C 
BRANCH  33  34
HETATM   34  C   UNL     1       8.153  30.329  59.187  1.00  0.00     0.070 A 
HETATM   35  O   UNL     1       8.969  29.975  60.221  1.00  0.00    -0.325 OA
HETATM   36  C   UNL     1       9.211  31.098  60.944  1.00  0.00     0.142 A 
HETATM   37  C   UNL     1       8.550  32.171  60.397  1.00  0.00     0.027 A 
HETATM   38  C   UNL     1       7.865  31.676  59.261  1.00  0.00     0.036 A 
ENDBRANCH  33  34
ENDBRANCH  30  33
ENDBRANCH  24  29
ENDBRANCH   2  23
TORSDOF 6
ENDMDL
MODEL 5
REMARK VINA RESULT:     -10.2      3.737      5.675
REMARK  6 active torsions:
REMARK  status: ('A' for Active; 'I' for Inactive)
REMARK    1  A    between atoms: N_9  and  C_10 
REMARK    2  A    between atoms: C_10  and  C_11 
REMARK       I    between atoms: C_11  and  N_12 
REMARK    3  A    between atoms: N_12  and  C_13 
REMARK    4  A    between atoms: C_14  and  C_15 
REMARK       I    between atoms: C_15  and  N_16 
REMARK    5  A    between atoms: N_16  and  C_17 
REMARK    6  A    between atoms: C_17  and  C_18 
ROOT
HETATM    1  C   UNL     1       4.091  28.687  54.778  1.00  0.00     0.240 C 
HETATM    2  N   UNL     1       4.348  29.905  54.166  1.00  0.00    -0.325 N 
HETATM    3  O   UNL     1       3.764  28.513  55.945  1.00  0.00    -0.271 OA
HETATM    4  H   UNL     1       4.769  29.852  53.246  1.00  0.00     0.169 HD
ENDROOT
BRANCH   1   5
HETATM    5  C   UNL     1       4.232  27.510  53.806  1.00  0.00     0.240 C 
BRANCH   5   6
HETATM    6  N   UNL     1       5.531  26.888  53.906  1.00  0.00    -0.259 N 
HETATM    7  C   UNL     1       6.670  27.444  53.413  1.00  0.00     0.326 C 
HETATM    8  N   UNL     1       7.742  26.715  53.851  1.00  0.00    -0.320 N 
HETATM    9  O   UNL     1       6.756  28.451  52.729  1.00  0.00    -0.247 OA
HETATM   10  C   UNL     1       7.382  25.756  54.876  1.00  0.00     0.144 C 
HETATM   11  H   UNL     1       8.686  26.951  53.579  1.00  0.00     0.165 HD
HETATM   12  C   UNL     1       7.836  24.350  54.528  1.00  0.00    -0.014 A 
HETATM   13  C   UNL     1       5.843  25.929  54.836  1.00  0.00     0.261 C 
HETATM   14  C   UNL     1       7.909  26.279  56.228  1.00  0.00     0.047 C 
HETATM   15  C   UNL     1       8.523  23.550  55.466  1.00  0.00    -0.049 A 
HETATM   16  C   UNL     1       7.554  23.804  53.262  1.00  0.00     0.011 A 
HETATM   17  C   UNL     1       8.952  22.263  55.104  1.00  0.00     0.007 A 
HETATM   18  C   UNL     1       8.856  24.055  56.848  1.00  0.00     0.039 C 
HETATM   19  C   UNL     1       8.678  21.750  53.839  1.00  0.00     0.001 A 
HETATM   20  C   UNL     1       7.974  22.519  52.920  1.00  0.00     0.001 A 
HETATM   21  C   UNL     1       7.939  25.188  57.290  1.00  0.00     0.008 C 
HETATM   22  O   UNL     1       5.041  25.384  55.586  1.00  0.00    -0.270 OA
ENDBRANCH   5   6
ENDBRANCH   1   5
BRANCH   2  23
HETATM   23  C   UNL     1       4.281  31.209  54.709  1.00  0.00     0.050 A 
HETATM   24  C   UNL     1       4.867  31.691  55.889  1.00  0.00     0.058 A 
HETATM   25  C   UNL     1       4.758  33.062  56.210  1.00  0.00     0.019 A 
HETATM   26  C   UNL     1       4.043  33.942  55.400  1.00  0.00     0.001 A 
HETATM   27  C   UNL     1       3.414  33.462  54.263  1.00  0.00     0.002 A 
HETATM   28  C   UNL     1       3.528  32.111  53.926  1.00  0.00     0.030 A 
BRANCH  24  29
HETATM   29  C   UNL     1       5.509  30.886  56.957  1.00  0.00     0.254 C 
HETATM   30  N   UNL     1       6.630  30.163  56.600  1.00  0.00    -0.351 N 
HETATM   31  H   UNL     1       7.117  30.396  55.741  1.00  0.00     0.163 HD
HETATM   32  O   UNL     1       4.961  30.794  58.052  1.00  0.00    -0.268 OA
BRANCH  30  33
HETATM   33  C   UNL     1       7.368  29.476  57.632  1.00  0.00     0.187 C 
BRANCH  33  34
HETATM   34  C   UNL     1       8.811  29.800  57.518  1.00  0.00     0.070 A 
HETATM   35  O   UNL     1       9.231  30.956  58.107  1.00  0.00    -0.325 OA
HETATM   36  C   UNL     1      10.575  31.028  57.936  1.00  0.00     0.142 A 
HETATM   37  C   UNL     1      11.027  29.938  57.232  1.00  0.00     0.027 A 
HETATM   38  C   UNL     1       9.888  29.143  56.960  1.00  0.00     0.036 A 
ENDBRANCH  33  34
ENDBRANCH  30  33
ENDBRANCH  24  29
ENDBRANCH   2  23
TORSDOF 6
ENDMDL
MODEL 6
REMARK VINA RESULT:     -10.2      2.371      4.555
REMARK  6 active torsions:
REMARK  status: ('A' for Active; 'I' for Inactive)
REMARK    1  A    between atoms: N_9  and  C_10 
REMARK    2  A    between atoms: C_10  and  C_11 
REMARK       I    between atoms: C_11  and  N_12 
REMARK    3  A    between atoms: N_12  and  C_13 
REMARK    4  A    between atoms: C_14  and  C_15 
REMARK       I    between atoms: C_15  and  N_16 
REMARK    5  A    between atoms: N_16  and  C_17 
REMARK    6  A    between atoms: C_17  and  C_18 
ROOT
HETATM    1  C   UNL     1       4.090  28.672  55.121  1.00  0.00     0.240 C 
HETATM    2  N   UNL     1       4.384  29.960  54.696  1.00  0.00    -0.325 N 
HETATM    3  O   UNL     1       3.715  28.342  56.238  1.00  0.00    -0.271 OA
HETATM    4  H   UNL     1       4.842  30.030  53.796  1.00  0.00     0.169 HD
ENDROOT
BRANCH   1   5
HETATM    5  C   UNL     1       4.259  27.641  53.999  1.00  0.00     0.240 C 
BRANCH   5   6
HETATM    6  N   UNL     1       5.553  27.003  54.050  1.00  0.00    -0.259 N 
HETATM    7  C   UNL     1       6.688  27.566  53.557  1.00  0.00     0.326 C 
HETATM    8  N   UNL     1       7.761  26.810  53.946  1.00  0.00    -0.320 N 
HETATM    9  O   UNL     1       6.771  28.598  52.909  1.00  0.00    -0.247 OA
HETATM   10  C   UNL     1       7.410  25.817  54.941  1.00  0.00     0.144 C 
HETATM   11  H   UNL     1       8.701  27.047  53.665  1.00  0.00     0.165 HD
HETATM   12  C   UNL     1       7.843  24.421  54.533  1.00  0.00    -0.014 A 
HETATM   13  C   UNL     1       5.872  26.007  54.938  1.00  0.00     0.261 C 
HETATM   14  C   UNL     1       7.968  26.284  56.302  1.00  0.00     0.047 C 
HETATM   15  C   UNL     1       8.539  23.579  55.426  1.00  0.00    -0.049 A 
HETATM   16  C   UNL     1       7.531  23.925  53.253  1.00  0.00     0.011 A 
HETATM   17  C   UNL     1       8.948  22.303  55.009  1.00  0.00     0.007 A 
HETATM   18  C   UNL     1       8.904  24.029  56.820  1.00  0.00     0.039 C 
HETATM   19  C   UNL     1       8.644  21.840  53.731  1.00  0.00     0.001 A 
HETATM   20  C   UNL     1       7.931  22.650  52.855  1.00  0.00     0.001 A 
HETATM   21  C   UNL     1       8.007  25.154  57.322  1.00  0.00     0.008 C 
HETATM   22  O   UNL     1       5.079  25.442  55.683  1.00  0.00    -0.270 OA
ENDBRANCH   5   6
ENDBRANCH   1   5
BRANCH   2  23
HETATM   23  C   UNL     1       4.309  31.176  55.414  1.00  0.00     0.050 A 
HETATM   24  C   UNL     1       5.184  31.662  56.397  1.00  0.00     0.058 A 
HETATM   25  C   UNL     1       4.983  32.953  56.931  1.00  0.00     0.019 A 
HETATM   26  C   UNL     1       3.905  33.743  56.534  1.00  0.00     0.001 A 
HETATM   27  C   UNL     1       3.004  33.246  55.606  1.00  0.00     0.002 A 
HETATM   28  C   UNL     1       3.202  31.977  55.058  1.00  0.00     0.030 A 
BRANCH  24  29
HETATM   29  C   UNL     1       6.272  30.910  57.070  1.00  0.00     0.254 C 
HETATM   30  N   UNL     1       6.697  31.394  58.291  1.00  0.00    -0.351 N 
HETATM   31  H   UNL     1       6.110  32.051  58.795  1.00  0.00     0.163 HD
HETATM   32  O   UNL     1       6.824  29.989  56.474  1.00  0.00    -0.268 OA
BRANCH  30  33
HETATM   33  C   UNL     1       7.653  30.623  59.048  1.00  0.00     0.187 C 
BRANCH  33  34
HETATM   34  C   UNL     1       7.911  31.279  60.351  1.00  0.00     0.070 A 
HETATM   35  O   UNL     1       7.043  32.262  60.729  1.00  0.00    -0.325 OA
HETATM   36  C   UNL     1       7.425  32.681  61.963  1.00  0.00     0.142 A 
HETATM   37  C   UNL     1       8.537  31.991  62.381  1.00  0.00     0.027 A 
HETATM   38  C   UNL     1       8.854  31.085  61.340  1.00  0.00     0.036 A 
ENDBRANCH  33  34
ENDBRANCH  30  33
ENDBRANCH  24  29
ENDBRANCH   2  23
TORSDOF 6
ENDMDL
MODEL 7
REMARK VINA RESULT:     -10.1      1.499      1.992
REMARK  6 active torsions:
REMARK  status: ('A' for Active; 'I' for Inactive)
REMARK    1  A    between atoms: N_9  and  C_10 
REMARK    2  A    between atoms: C_10  and  C_11 
REMARK       I    between atoms: C_11  and  N_12 
REMARK    3  A    between atoms: N_12  and  C_13 
REMARK    4  A    between atoms: C_14  and  C_15 
REMARK       I    between atoms: C_15  and  N_16 
REMARK    5  A    between atoms: N_16  and  C_17 
REMARK    6  A    between atoms: C_17  and  C_18 
ROOT
HETATM    1  C   UNL     1       7.330  29.621  57.578  1.00  0.00     0.240 C 
HETATM    2  N   UNL     1       7.249  30.928  58.036  1.00  0.00    -0.325 N 
HETATM    3  O   UNL     1       7.799  28.666  58.182  1.00  0.00    -0.271 OA
HETATM    4  H   UNL     1       6.988  31.620  57.344  1.00  0.00     0.169 HD
ENDROOT
BRANCH   1   5
HETATM    5  C   UNL     1       6.723  29.460  56.180  1.00  0.00     0.240 C 
BRANCH   5   6
HETATM    6  N   UNL     1       6.498  28.073  55.851  1.00  0.00    -0.259 N 
HETATM    7  C   UNL     1       5.302  27.447  56.012  1.00  0.00     0.326 C 
HETATM    8  N   UNL     1       5.364  26.216  55.417  1.00  0.00    -0.320 N 
HETATM    9  O   UNL     1       4.306  27.900  56.553  1.00  0.00    -0.247 OA
HETATM   10  C   UNL     1       6.552  26.050  54.604  1.00  0.00     0.144 C 
HETATM   11  H   UNL     1       4.581  25.579  55.442  1.00  0.00     0.165 HD
HETATM   12  C   UNL     1       7.333  24.804  54.979  1.00  0.00    -0.014 A 
HETATM   13  C   UNL     1       7.283  27.365  54.976  1.00  0.00     0.261 C 
HETATM   14  C   UNL     1       6.130  26.115  53.121  1.00  0.00     0.047 C 
HETATM   15  C   UNL     1       7.779  23.896  53.995  1.00  0.00    -0.049 A 
HETATM   16  C   UNL     1       7.652  24.542  56.324  1.00  0.00     0.011 A 
HETATM   17  C   UNL     1       8.477  22.739  54.377  1.00  0.00     0.007 A 
HETATM   18  C   UNL     1       7.488  24.107  52.530  1.00  0.00     0.039 C 
HETATM   19  C   UNL     1       8.766  22.492  55.717  1.00  0.00     0.001 A 
HETATM   20  C   UNL     1       8.358  23.396  56.690  1.00  0.00     0.001 A 
HETATM   21  C   UNL     1       7.208  25.567  52.196  1.00  0.00     0.008 C 
HETATM   22  O   UNL     1       8.334  27.763  54.486  1.00  0.00    -0.270 OA
ENDBRANCH   5   6
ENDBRANCH   1   5
BRANCH   2  23
HETATM   23  C   UNL     1       7.654  31.465  59.280  1.00  0.00     0.050 A 
HETATM   24  C   UNL     1       6.849  31.950  60.322  1.00  0.00     0.058 A 
HETATM   25  C   UNL     1       7.451  32.361  61.532  1.00  0.00     0.019 A 
HETATM   26  C   UNL     1       8.834  32.338  61.699  1.00  0.00     0.001 A 
HETATM   27  C   UNL     1       9.639  31.915  60.653  1.00  0.00     0.002 A 
HETATM   28  C   UNL     1       9.055  31.490  59.457  1.00  0.00     0.030 A 
BRANCH  24  29
HETATM   29  C   UNL     1       5.391  32.216  60.271  1.00  0.00     0.254 C 
HETATM   30  N   UNL     1       4.844  32.890  61.344  1.00  0.00    -0.351 N 
HETATM   31  H   UNL     1       5.458  33.395  61.975  1.00  0.00     0.163 HD
HETATM   32  O   UNL     1       4.723  31.727  59.363  1.00  0.00    -0.268 OA
BRANCH  30  33
HETATM   33  C   UNL     1       3.461  33.293  61.278  1.00  0.00     0.187 C 
BRANCH  33  34
HETATM   34  C   UNL     1       3.303  34.391  60.295  1.00  0.00     0.070 A 
HETATM   35  O   UNL     1       2.375  34.208  59.311  1.00  0.00    -0.325 OA
HETATM   36  C   UNL     1       2.353  35.343  58.566  1.00  0.00     0.142 A 
HETATM   37  C   UNL     1       3.264  36.251  59.048  1.00  0.00     0.027 A 
HETATM   38  C   UNL     1       3.880  35.638  60.165  1.00  0.00     0.036 A 
ENDBRANCH  33  34
ENDBRANCH  30  33
ENDBRANCH  24  29
ENDBRANCH   2  23
TORSDOF 6
ENDMDL
MODEL 8
REMARK VINA RESULT:     -10.1      1.866     10.157
REMARK  6 active torsions:
REMARK  status: ('A' for Active; 'I' for Inactive)
REMARK    1  A    between atoms: N_9  and  C_10 
REMARK    2  A    between atoms: C_10  and  C_11 
REMARK       I    between atoms: C_11  and  N_12 
REMARK    3  A    between atoms: N_12  and  C_13 
REMARK    4  A    between atoms: C_14  and  C_15 
REMARK       I    between atoms: C_15  and  N_16 
REMARK    5  A    between atoms: N_16  and  C_17 
REMARK    6  A    between atoms: C_17  and  C_18 
ROOT
HETATM    1  C   UNL     1       5.143  31.130  57.803  1.00  0.00     0.240 C 
HETATM    2  N   UNL     1       6.166  30.515  58.510  1.00  0.00    -0.325 N 
HETATM    3  O   UNL     1       5.113  31.337  56.597  1.00  0.00    -0.271 OA
HETATM    4  H   UNL     1       6.101  30.580  59.519  1.00  0.00     0.169 HD
ENDROOT
BRANCH   1   5
HETATM    5  C   UNL     1       3.973  31.528  58.709  1.00  0.00     0.240 C 
BRANCH   5   6
HETATM    6  N   UNL     1       4.376  32.481  59.716  1.00  0.00    -0.259 N 
HETATM    7  C   UNL     1       4.768  33.752  59.431  1.00  0.00     0.326 C 
HETATM    8  N   UNL     1       4.878  34.452  60.603  1.00  0.00    -0.320 N 
HETATM    9  O   UNL     1       4.954  34.230  58.324  1.00  0.00    -0.247 OA
HETATM   10  C   UNL     1       4.322  33.736  61.734  1.00  0.00     0.144 C 
HETATM   11  H   UNL     1       5.179  35.416  60.614  1.00  0.00     0.165 HD
HETATM   12  C   UNL     1       5.314  33.611  62.875  1.00  0.00    -0.014 A 
HETATM   13  C   UNL     1       4.019  32.386  61.037  1.00  0.00     0.261 C 
HETATM   14  C   UNL     1       2.989  34.410  62.119  1.00  0.00     0.047 C 
HETATM   15  C   UNL     1       4.947  33.923  64.202  1.00  0.00    -0.049 A 
HETATM   16  C   UNL     1       6.623  33.153  62.635  1.00  0.00     0.011 A 
HETATM   17  C   UNL     1       5.895  33.822  65.232  1.00  0.00     0.007 A 
HETATM   18  C   UNL     1       3.561  34.411  64.548  1.00  0.00     0.039 C 
HETATM   19  C   UNL     1       7.190  33.383  64.967  1.00  0.00     0.001 A 
HETATM   20  C   UNL     1       7.552  33.044  63.669  1.00  0.00     0.001 A 
HETATM   21  C   UNL     1       2.524  34.002  63.511  1.00  0.00     0.008 C 
HETATM   22  O   UNL     1       3.451  31.427  61.549  1.00  0.00    -0.270 OA
ENDBRANCH   5   6
ENDBRANCH   1   5
BRANCH   2  23
HETATM   23  C   UNL     1       7.381  29.973  58.032  1.00  0.00     0.050 A 
HETATM   24  C   UNL     1       7.568  28.874  57.180  1.00  0.00     0.058 A 
HETATM   25  C   UNL     1       8.870  28.547  56.742  1.00  0.00     0.019 A 
HETATM   26  C   UNL     1       9.983  29.266  57.173  1.00  0.00     0.001 A 
HETATM   27  C   UNL     1       9.812  30.317  58.060  1.00  0.00     0.002 A 
HETATM   28  C   UNL     1       8.527  30.660  58.488  1.00  0.00     0.030 A 
BRANCH  24  29
HETATM   29  C   UNL     1       6.540  27.889  56.759  1.00  0.00     0.254 C 
HETATM   30  N   UNL     1       6.812  27.158  55.620  1.00  0.00    -0.351 N 
HETATM   31  H   UNL     1       7.764  27.117  55.273  1.00  0.00     0.163 HD
HETATM   32  O   UNL     1       5.464  27.856  57.348  1.00  0.00    -0.268 OA
BRANCH  30  33
HETATM   33  C   UNL     1       5.911  26.094  55.249  1.00  0.00     0.187 C 
BRANCH  33  34
HETATM   34  C   UNL     1       6.660  25.019  54.555  1.00  0.00     0.070 A 
HETATM   35  O   UNL     1       7.797  24.570  55.162  1.00  0.00    -0.325 OA
HETATM   36  C   UNL     1       8.286  23.560  54.398  1.00  0.00     0.142 A 
HETATM   37  C   UNL     1       7.487  23.361  53.298  1.00  0.00     0.027 A 
HETATM   38  C   UNL     1       6.436  24.303  53.397  1.00  0.00     0.036 A 
ENDBRANCH  33  34
ENDBRANCH  30  33
ENDBRANCH  24  29
ENDBRANCH   2  23
TORSDOF 6
ENDMDL
MODEL 9
REMARK VINA RESULT:      -9.8      4.754      8.875
REMARK  6 active torsions:
REMARK  status: ('A' for Active; 'I' for Inactive)
REMARK    1  A    between atoms: N_9  and  C_10 
REMARK    2  A    between atoms: C_10  and  C_11 
REMARK       I    between atoms: C_11  and  N_12 
REMARK    3  A    between atoms: N_12  and  C_13 
REMARK    4  A    between atoms: C_14  and  C_15 
REMARK       I    between atoms: C_15  and  N_16 
REMARK    5  A    between atoms: N_16  and  C_17 
REMARK    6  A    between atoms: C_17  and  C_18 
ROOT
HETATM    1  C   UNL     1       5.768  26.501  52.074  1.00  0.00     0.240 C 
HETATM    2  N   UNL     1       6.738  26.203  53.020  1.00  0.00    -0.325 N 
HETATM    3  O   UNL     1       5.037  25.700  51.506  1.00  0.00    -0.271 OA
HETATM    4  H   UNL     1       7.363  26.963  53.259  1.00  0.00     0.169 HD
ENDROOT
BRANCH   1   5
HETATM    5  C   UNL     1       5.664  28.006  51.805  1.00  0.00     0.240 C 
BRANCH   5   6
HETATM    6  N   UNL     1       4.365  28.369  51.293  1.00  0.00    -0.259 N 
HETATM    7  C   UNL     1       3.256  28.482  52.072  1.00  0.00     0.326 C 
HETATM    8  N   UNL     1       2.250  29.040  51.329  1.00  0.00    -0.320 N 
HETATM    9  O   UNL     1       3.156  28.185  53.251  1.00  0.00    -0.247 OA
HETATM   10  C   UNL     1       2.717  29.559  50.059  1.00  0.00     0.144 C 
HETATM   11  H   UNL     1       1.330  29.191  51.717  1.00  0.00     0.165 HD
HETATM   12  C   UNL     1       1.925  29.008  48.889  1.00  0.00    -0.014 A 
HETATM   13  C   UNL     1       4.176  29.038  50.110  1.00  0.00     0.261 C 
HETATM   14  C   UNL     1       2.734  31.100  50.149  1.00  0.00     0.047 C 
HETATM   15  C   UNL     1       1.417  29.859  47.883  1.00  0.00    -0.049 A 
HETATM   16  C   UNL     1       1.701  27.624  48.769  1.00  0.00     0.011 A 
HETATM   17  C   UNL     1       0.666  29.321  46.827  1.00  0.00     0.007 A 
HETATM   18  C   UNL     1       1.621  31.353  47.930  1.00  0.00     0.039 C 
HETATM   19  C   UNL     1       0.442  27.949  46.739  1.00  0.00     0.001 A 
HETATM   20  C   UNL     1       0.964  27.100  47.707  1.00  0.00     0.001 A 
HETATM   21  C   UNL     1       2.824  31.751  48.775  1.00  0.00     0.008 C 
HETATM   22  O   UNL     1       5.051  29.276  49.284  1.00  0.00    -0.270 OA
ENDBRANCH   5   6
ENDBRANCH   1   5
BRANCH   2  23
HETATM   23  C   UNL     1       7.103  24.949  53.562  1.00  0.00     0.050 A 
HETATM   24  C   UNL     1       6.961  24.499  54.884  1.00  0.00     0.058 A 
HETATM   25  C   UNL     1       7.304  23.167  55.204  1.00  0.00     0.019 A 
HETATM   26  C   UNL     1       7.823  22.300  54.245  1.00  0.00     0.001 A 
HETATM   27  C   UNL     1       8.018  22.755  52.951  1.00  0.00     0.002 A 
HETATM   28  C   UNL     1       7.668  24.066  52.617  1.00  0.00     0.030 A 
BRANCH  24  29
HETATM   29  C   UNL     1       6.599  25.315  56.068  1.00  0.00     0.254 C 
HETATM   30  N   UNL     1       7.567  26.174  56.549  1.00  0.00    -0.351 N 
HETATM   31  H   UNL     1       8.357  26.412  55.957  1.00  0.00     0.163 HD
HETATM   32  O   UNL     1       5.531  25.108  56.637  1.00  0.00    -0.268 OA
BRANCH  30  33
HETATM   33  C   UNL     1       7.219  27.087  57.610  1.00  0.00     0.187 C 
BRANCH  33  34
HETATM   34  C   UNL     1       8.128  28.257  57.587  1.00  0.00     0.070 A 
HETATM   35  O   UNL     1       8.108  29.075  58.679  1.00  0.00    -0.325 OA
HETATM   36  C   UNL     1       9.045  30.036  58.478  1.00  0.00     0.142 A 
HETATM   37  C   UNL     1       9.662  29.857  57.263  1.00  0.00     0.027 A 
HETATM   38  C   UNL     1       9.070  28.708  56.685  1.00  0.00     0.036 A 
ENDBRANCH  33  34
ENDBRANCH  30  33
ENDBRANCH  24  29
ENDBRANCH   2  23
TORSDOF 6
ENDMDL
MODEL 10
REMARK VINA RESULT:      -9.5      4.660      8.542
REMARK  6 active torsions:
REMARK  status: ('A' for Active; 'I' for Inactive)
REMARK    1  A    between atoms: N_9  and  C_10 
REMARK    2  A    between atoms: C_10  and  C_11 
REMARK       I    between atoms: C_11  and  N_12 
REMARK    3  A    between atoms: N_12  and  C_13 
REMARK    4  A    between atoms: C_14  and  C_15 
REMARK       I    between atoms: C_15  and  N_16 
REMARK    5  A    between atoms: N_16  and  C_17 
REMARK    6  A    between atoms: C_17  and  C_18 
ROOT
HETATM    1  C   UNL     1       5.679  26.646  53.569  1.00  0.00     0.240 C 
HETATM    2  N   UNL     1       5.697  25.267  53.715  1.00  0.00    -0.325 N 
HETATM    3  O   UNL     1       6.613  27.412  53.769  1.00  0.00    -0.271 OA
HETATM    4  H   UNL     1       4.794  24.810  53.672  1.00  0.00     0.169 HD
ENDROOT
BRANCH   1   5
HETATM    5  C   UNL     1       4.319  27.158  53.082  1.00  0.00     0.240 C 
BRANCH   5   6
HETATM    6  N   UNL     1       4.409  27.749  51.768  1.00  0.00    -0.259 N 
HETATM    7  C   UNL     1       4.874  27.084  50.677  1.00  0.00     0.326 C 
HETATM    8  N   UNL     1       4.635  27.843  49.563  1.00  0.00    -0.320 N 
HETATM    9  O   UNL     1       5.385  25.976  50.657  1.00  0.00    -0.247 OA
HETATM   10  C   UNL     1       3.763  28.969  49.833  1.00  0.00     0.144 C 
HETATM   11  H   UNL     1       4.924  27.537  48.645  1.00  0.00     0.165 HD
HETATM   12  C   UNL     1       4.369  30.283  49.377  1.00  0.00    -0.014 A 
HETATM   13  C   UNL     1       3.673  28.838  51.375  1.00  0.00     0.261 C 
HETATM   14  C   UNL     1       2.379  28.661  49.224  1.00  0.00     0.047 C 
HETATM   15  C   UNL     1       3.624  31.206  48.612  1.00  0.00    -0.049 A 
HETATM   16  C   UNL     1       5.687  30.622  49.735  1.00  0.00     0.011 A 
HETATM   17  C   UNL     1       4.222  32.402  48.184  1.00  0.00     0.007 A 
HETATM   18  C   UNL     1       2.202  30.926  48.194  1.00  0.00     0.039 C 
HETATM   19  C   UNL     1       5.535  32.708  48.535  1.00  0.00     0.001 A 
HETATM   20  C   UNL     1       6.266  31.819  49.315  1.00  0.00     0.001 A 
HETATM   21  C   UNL     1       1.518  29.910  49.100  1.00  0.00     0.008 C 
HETATM   22  O   UNL     1       2.974  29.523  52.112  1.00  0.00    -0.270 OA
ENDBRANCH   5   6
ENDBRANCH   1   5
BRANCH   2  23
HETATM   23  C   UNL     1       6.766  24.423  54.098  1.00  0.00     0.050 A 
HETATM   24  C   UNL     1       7.391  24.327  55.351  1.00  0.00     0.058 A 
HETATM   25  C   UNL     1       8.386  23.346  55.556  1.00  0.00     0.019 A 
HETATM   26  C   UNL     1       8.795  22.499  54.529  1.00  0.00     0.001 A 
HETATM   27  C   UNL     1       8.221  22.627  53.274  1.00  0.00     0.002 A 
HETATM   28  C   UNL     1       7.224  23.582  53.061  1.00  0.00     0.030 A 
BRANCH  24  29
HETATM   29  C   UNL     1       7.223  25.246  56.503  1.00  0.00     0.254 C 
HETATM   30  N   UNL     1       7.968  26.408  56.484  1.00  0.00    -0.351 N 
HETATM   31  H   UNL     1       8.381  26.717  55.611  1.00  0.00     0.163 HD
HETATM   32  O   UNL     1       6.545  24.888  57.463  1.00  0.00    -0.268 OA
BRANCH  30  33
HETATM   33  C   UNL     1       7.737  27.395  57.510  1.00  0.00     0.187 C 
BRANCH  33  34
HETATM   34  C   UNL     1       6.796  28.427  57.012  1.00  0.00     0.070 A 
HETATM   35  O   UNL     1       5.465  28.140  57.098  1.00  0.00    -0.325 OA
HETATM   36  C   UNL     1       4.790  29.228  56.649  1.00  0.00     0.142 A 
HETATM   37  C   UNL     1       5.669  30.211  56.261  1.00  0.00     0.027 A 
HETATM   38  C   UNL     1       6.966  29.695  56.495  1.00  0.00     0.036 A 
ENDBRANCH  33  34
ENDBRANCH  30  33
ENDBRANCH  24  29
ENDBRANCH   2  23
TORSDOF 6
ENDMDL
