MODEL 1
REMARK VINA RESULT:      -9.3      0.000      0.000
REMARK  9 active torsions:
REMARK  status: ('A' for Active; 'I' for Inactive)
REMARK    1  A    between atoms: C_6  and  S_7 
REMARK    2  A    between atoms: S_7  and  C_8 
REMARK    3  A    between atoms: C_8  and  C_9 
REMARK       I    between atoms: C_9  and  N_10 
REMARK    4  A    between atoms: N_10  and  N_11 
REMARK    5  A    between atoms: N_11  and  C_12 
REMARK    6  A    between atoms: C_12  and  N_13 
REMARK    7  A    between atoms: N_13  and  C_14 
REMARK    8  A    between atoms: C_17  and  O_18 
REMARK    9  A    between atoms: O_18  and  C_19 
ROOT
HETATM    1  C   UNL     1       6.536  28.161  57.218  1.00  0.00     0.245 C 
HETATM    2  N   UNL     1       7.567  28.730  57.956  1.00  0.00    -0.267 N 
HETATM    3  O   UNL     1       5.370  28.555  57.241  1.00  0.00    -0.271 OA
HETATM    4  H   UNL     1       8.504  28.664  57.558  1.00  0.00     0.190 HD
ENDROOT
BRANCH   2   5
HETATM    5  N   UNL     1       7.294  29.927  58.629  1.00  0.00    -0.274 N 
HETATM    6  H   UNL     1       6.369  30.316  58.483  1.00  0.00     0.189 HD
BRANCH   5   7
HETATM    7  C   UNL     1       8.202  30.537  59.455  1.00  0.00     0.191 C 
HETATM    8  S   UNL     1       9.539  31.410  58.942  1.00  0.00    -0.039 SA
BRANCH   7   9
HETATM    9  N   UNL     1       7.935  30.521  60.798  1.00  0.00    -0.332 N 
HETATM   10  H   UNL     1       7.987  29.589  61.197  1.00  0.00     0.168 HD
BRANCH   9  11
HETATM   11  C   UNL     1       7.605  31.562  61.687  1.00  0.00     0.034 A 
HETATM   12  C   UNL     1       8.339  31.867  62.832  1.00  0.00     0.032 A 
HETATM   13  C   UNL     1       7.915  32.888  63.690  1.00  0.00     0.039 A 
HETATM   14  C   UNL     1       6.774  33.638  63.400  1.00  0.00     0.075 A 
HETATM   15  C   UNL     1       6.072  33.375  62.224  1.00  0.00     0.039 A 
HETATM   16  C   UNL     1       6.497  32.352  61.367  1.00  0.00     0.032 A 
BRANCH  14  17
HETATM   17  O   UNL     1       6.458  34.579  64.340  1.00  0.00    -0.290 OA
BRANCH  17  18
HETATM   18  C   UNL     1       5.784  34.128  65.502  1.00  0.00     0.505 C 
HETATM   19  F   UNL     1       4.981  33.083  65.180  1.00  0.00    -0.184 F 
HETATM   20  F   UNL     1       6.723  33.647  66.353  1.00  0.00    -0.184 F 
ENDBRANCH  17  18
ENDBRANCH  14  17
ENDBRANCH   9  11
ENDBRANCH   7   9
ENDBRANCH   5   7
ENDBRANCH   2   5
BRANCH   1  21
HETATM   21  C   UNL     1       6.997  26.999  56.354  1.00  0.00     0.187 C 
BRANCH  21  22
HETATM   22  S   UNL     1       7.921  25.784  57.335  1.00  0.00    -0.083 SA
BRANCH  22  23
HETATM   23  C   UNL     1       7.997  24.464  56.230  1.00  0.00     0.168 A 
HETATM   24  N   UNL     1       7.963  24.511  54.920  1.00  0.00    -0.223 NA
HETATM   25  C   UNL     1       7.974  23.189  54.531  1.00  0.00     0.086 A 
HETATM   26  C   UNL     1       8.026  22.340  55.634  1.00  0.00     0.063 A 
HETATM   27  C   UNL     1       7.931  22.632  53.244  1.00  0.00     0.034 A 
HETATM   28  C   UNL     1       8.034  20.948  55.535  1.00  0.00     0.032 A 
HETATM   29  N   UNL     1       8.053  23.190  56.710  1.00  0.00    -0.333 N 
HETATM   30  C   UNL     1       7.986  20.413  54.243  1.00  0.00     0.002 A 
HETATM   31  C   UNL     1       7.936  21.236  53.116  1.00  0.00     0.002 A 
HETATM   32  H   UNL     1       8.073  22.933  57.685  1.00  0.00     0.168 HD
ENDBRANCH  22  23
ENDBRANCH  21  22
ENDBRANCH   1  21
TORSDOF 9
ENDMDL
MODEL 2
REMARK VINA RESULT:      -9.2      5.504     11.675
REMARK  9 active torsions:
REMARK  status: ('A' for Active; 'I' for Inactive)
REMARK    1  A    between atoms: C_6  and  S_7 
REMARK    2  A    between atoms: S_7  and  C_8 
REMARK    3  A    between atoms: C_8  and  C_9 
REMARK       I    between atoms: C_9  and  N_10 
REMARK    4  A    between atoms: N_10  and  N_11 
REMARK    5  A    between atoms: N_11  and  C_12 
REMARK    6  A    between atoms: C_12  and  N_13 
REMARK    7  A    between atoms: N_13  and  C_14 
REMARK    8  A    between atoms: C_17  and  O_18 
REMARK    9  A    between atoms: O_18  and  C_19 
ROOT
HETATM    1  C   UNL     1       7.426  28.101  57.804  1.00  0.00     0.245 C 
HETATM    2  N   UNL     1       6.108  28.206  57.375  1.00  0.00    -0.267 N 
HETATM    3  O   UNL     1       8.070  27.052  57.811  1.00  0.00    -0.271 OA
HETATM    4  H   UNL     1       5.824  29.103  56.983  1.00  0.00     0.190 HD
ENDROOT
BRANCH   2   5
HETATM    5  N   UNL     1       5.541  27.085  56.755  1.00  0.00    -0.274 N 
HETATM    6  H   UNL     1       5.158  26.382  57.376  1.00  0.00     0.189 HD
BRANCH   5   7
HETATM    7  C   UNL     1       5.481  26.944  55.393  1.00  0.00     0.191 C 
HETATM    8  S   UNL     1       5.729  28.176  54.283  1.00  0.00    -0.039 SA
BRANCH   7   9
HETATM    9  N   UNL     1       5.312  25.676  54.902  1.00  0.00    -0.332 N 
HETATM   10  H   UNL     1       4.337  25.444  54.746  1.00  0.00     0.168 HD
BRANCH   9  11
HETATM   11  C   UNL     1       6.250  24.673  54.594  1.00  0.00     0.034 A 
HETATM   12  C   UNL     1       6.903  23.899  55.552  1.00  0.00     0.032 A 
HETATM   13  C   UNL     1       7.859  22.954  55.164  1.00  0.00     0.039 A 
HETATM   14  C   UNL     1       8.152  22.745  53.815  1.00  0.00     0.075 A 
HETATM   15  C   UNL     1       7.457  23.475  52.851  1.00  0.00     0.039 A 
HETATM   16  C   UNL     1       6.501  24.422  53.241  1.00  0.00     0.032 A 
BRANCH  14  17
HETATM   17  O   UNL     1       9.127  21.817  53.582  1.00  0.00    -0.290 OA
BRANCH  17  18
HETATM   18  C   UNL     1       8.705  20.534  53.151  1.00  0.00     0.505 C 
HETATM   19  F   UNL     1       9.195  19.592  53.995  1.00  0.00    -0.184 F 
HETATM   20  F   UNL     1       7.354  20.493  53.268  1.00  0.00    -0.184 F 
ENDBRANCH  17  18
ENDBRANCH  14  17
ENDBRANCH   9  11
ENDBRANCH   7   9
ENDBRANCH   5   7
ENDBRANCH   2   5
BRANCH   1  21
HETATM   21  C   UNL     1       8.010  29.431  58.252  1.00  0.00     0.187 C 
BRANCH  21  22
HETATM   22  S   UNL     1       6.811  30.775  58.034  1.00  0.00    -0.083 SA
BRANCH  22  23
HETATM   23  C   UNL     1       6.852  31.505  59.595  1.00  0.00     0.168 A 
HETATM   24  N   UNL     1       6.249  32.603  59.983  1.00  0.00    -0.223 NA
HETATM   25  C   UNL     1       6.671  32.782  61.283  1.00  0.00     0.086 A 
HETATM   26  C   UNL     1       7.536  31.762  61.676  1.00  0.00     0.063 A 
HETATM   27  C   UNL     1       6.365  33.804  62.192  1.00  0.00     0.034 A 
HETATM   28  C   UNL     1       8.127  31.698  62.939  1.00  0.00     0.032 A 
HETATM   29  N   UNL     1       7.620  30.951  60.574  1.00  0.00    -0.333 N 
HETATM   30  C   UNL     1       7.812  32.730  63.829  1.00  0.00     0.002 A 
HETATM   31  C   UNL     1       6.948  33.765  63.467  1.00  0.00     0.002 A 
HETATM   32  H   UNL     1       8.175  30.114  60.478  1.00  0.00     0.168 HD
ENDBRANCH  22  23
ENDBRANCH  21  22
ENDBRANCH   1  21
TORSDOF 9
ENDMDL
MODEL 3
REMARK VINA RESULT:      -9.2      5.087     10.955
REMARK  9 active torsions:
REMARK  status: ('A' for Active; 'I' for Inactive)
REMARK    1  A    between atoms: C_6  and  S_7 
REMARK    2  A    between atoms: S_7  and  C_8 
REMARK    3  A    between atoms: C_8  and  C_9 
REMARK       I    between atoms: C_9  and  N_10 
REMARK    4  A    between atoms: N_10  and  N_11 
REMARK    5  A    between atoms: N_11  and  C_12 
REMARK    6  A    between atoms: C_12  and  N_13 
REMARK    7  A    between atoms: N_13  and  C_14 
REMARK    8  A    between atoms: C_17  and  O_18 
REMARK    9  A    between atoms: O_18  and  C_19 
ROOT
HETATM    1  C   UNL     1       5.217  27.003  56.459  1.00  0.00     0.245 C 
HETATM    2  N   UNL     1       4.923  27.294  55.132  1.00  0.00    -0.267 N 
HETATM    3  O   UNL     1       5.245  25.865  56.928  1.00  0.00    -0.271 OA
HETATM    4  H   UNL     1       5.350  28.134  54.742  1.00  0.00     0.190 HD
ENDROOT
BRANCH   2   5
HETATM    5  N   UNL     1       4.824  26.216  54.243  1.00  0.00    -0.274 N 
HETATM    6  H   UNL     1       4.134  25.512  54.477  1.00  0.00     0.189 HD
BRANCH   5   7
HETATM    7  C   UNL     1       5.589  26.116  53.110  1.00  0.00     0.191 C 
HETATM    8  S   UNL     1       5.082  26.523  51.564  1.00  0.00    -0.039 SA
BRANCH   7   9
HETATM    9  N   UNL     1       6.902  25.760  53.271  1.00  0.00    -0.332 N 
HETATM   10  H   UNL     1       7.544  26.470  52.933  1.00  0.00     0.168 HD
BRANCH   9  11
HETATM   11  C   UNL     1       7.484  24.598  53.810  1.00  0.00     0.034 A 
HETATM   12  C   UNL     1       7.911  24.485  55.132  1.00  0.00     0.032 A 
HETATM   13  C   UNL     1       8.526  23.309  55.577  1.00  0.00     0.039 A 
HETATM   14  C   UNL     1       8.693  22.221  54.719  1.00  0.00     0.075 A 
HETATM   15  C   UNL     1       8.212  22.309  53.413  1.00  0.00     0.039 A 
HETATM   16  C   UNL     1       7.598  23.487  52.968  1.00  0.00     0.032 A 
BRANCH  14  17
HETATM   17  O   UNL     1       9.336  21.152  55.276  1.00  0.00    -0.290 OA
BRANCH  17  18
HETATM   18  C   UNL     1       8.565  20.291  56.095  1.00  0.00     0.505 C 
HETATM   19  F   UNL     1       8.527  20.785  57.358  1.00  0.00    -0.184 F 
HETATM   20  F   UNL     1       7.291  20.323  55.629  1.00  0.00    -0.184 F 
ENDBRANCH  17  18
ENDBRANCH  14  17
ENDBRANCH   9  11
ENDBRANCH   7   9
ENDBRANCH   5   7
ENDBRANCH   2   5
BRANCH   1  21
HETATM   21  C   UNL     1       5.523  28.243  57.282  1.00  0.00     0.187 C 
BRANCH  21  22
HETATM   22  S   UNL     1       7.072  29.018  56.741  1.00  0.00    -0.083 SA
BRANCH  22  23
HETATM   23  C   UNL     1       7.514  29.888  58.161  1.00  0.00     0.168 A 
HETATM   24  N   UNL     1       8.551  29.681  58.938  1.00  0.00    -0.223 NA
HETATM   25  C   UNL     1       8.395  30.590  59.963  1.00  0.00     0.086 A 
HETATM   26  C   UNL     1       7.245  31.357  59.784  1.00  0.00     0.063 A 
HETATM   27  C   UNL     1       9.193  30.811  61.094  1.00  0.00     0.034 A 
HETATM   28  C   UNL     1       6.833  32.346  60.679  1.00  0.00     0.032 A 
HETATM   29  N   UNL     1       6.710  30.891  58.611  1.00  0.00    -0.333 N 
HETATM   30  C   UNL     1       7.641  32.548  61.803  1.00  0.00     0.002 A 
HETATM   31  C   UNL     1       8.800  31.798  62.010  1.00  0.00     0.002 A 
HETATM   32  H   UNL     1       5.857  31.199  58.169  1.00  0.00     0.168 HD
ENDBRANCH  22  23
ENDBRANCH  21  22
ENDBRANCH   1  21
TORSDOF 9
ENDMDL
MODEL 4
REMARK VINA RESULT:      -9.2      5.529      6.564
REMARK  9 active torsions:
REMARK  status: ('A' for Active; 'I' for Inactive)
REMARK    1  A    between atoms: C_6  and  S_7 
REMARK    2  A    between atoms: S_7  and  C_8 
REMARK    3  A    between atoms: C_8  and  C_9 
REMARK       I    between atoms: C_9  and  N_10 
REMARK    4  A    between atoms: N_10  and  N_11 
REMARK    5  A    between atoms: N_11  and  C_12 
REMARK    6  A    between atoms: C_12  and  N_13 
REMARK    7  A    between atoms: N_13  and  C_14 
REMARK    8  A    between atoms: C_17  and  O_18 
REMARK    9  A    between atoms: O_18  and  C_19 
ROOT
HETATM    1  C   UNL     1       5.200  26.492  51.944  1.00  0.00     0.245 C 
HETATM    2  N   UNL     1       4.251  26.382  52.954  1.00  0.00    -0.267 N 
HETATM    3  O   UNL     1       5.347  27.490  51.239  1.00  0.00    -0.271 OA
HETATM    4  H   UNL     1       4.485  25.771  53.737  1.00  0.00     0.190 HD
ENDROOT
BRANCH   2   5
HETATM    5  N   UNL     1       3.540  27.538  53.299  1.00  0.00    -0.274 N 
HETATM    6  H   UNL     1       2.654  27.670  52.826  1.00  0.00     0.189 HD
BRANCH   5   7
HETATM    7  C   UNL     1       3.990  28.433  54.235  1.00  0.00     0.191 C 
HETATM    8  S   UNL     1       3.731  30.089  54.188  1.00  0.00    -0.039 SA
BRANCH   7   9
HETATM    9  N   UNL     1       4.604  27.921  55.347  1.00  0.00    -0.332 N 
HETATM   10  H   UNL     1       4.015  27.269  55.854  1.00  0.00     0.168 HD
BRANCH   9  11
HETATM   11  C   UNL     1       5.884  28.153  55.884  1.00  0.00     0.034 A 
HETATM   12  C   UNL     1       6.170  28.127  57.249  1.00  0.00     0.032 A 
HETATM   13  C   UNL     1       7.460  28.417  57.704  1.00  0.00     0.039 A 
HETATM   14  C   UNL     1       8.489  28.704  56.805  1.00  0.00     0.075 A 
HETATM   15  C   UNL     1       8.221  28.671  55.437  1.00  0.00     0.039 A 
HETATM   16  C   UNL     1       6.927  28.382  54.982  1.00  0.00     0.032 A 
BRANCH  14  17
HETATM   17  O   UNL     1       9.688  29.000  57.389  1.00  0.00    -0.290 OA
BRANCH  17  18
HETATM   18  C   UNL     1      10.549  29.878  56.684  1.00  0.00     0.505 C 
HETATM   19  F   UNL     1      10.440  31.127  57.200  1.00  0.00    -0.184 F 
HETATM   20  F   UNL     1      11.821  29.472  56.921  1.00  0.00    -0.184 F 
ENDBRANCH  17  18
ENDBRANCH  14  17
ENDBRANCH   9  11
ENDBRANCH   7   9
ENDBRANCH   5   7
ENDBRANCH   2   5
BRANCH   1  21
HETATM   21  C   UNL     1       6.064  25.250  51.806  1.00  0.00     0.187 C 
BRANCH  21  22
HETATM   22  S   UNL     1       7.719  25.527  52.495  1.00  0.00    -0.083 SA
BRANCH  22  23
HETATM   23  C   UNL     1       7.909  24.116  53.465  1.00  0.00     0.168 A 
HETATM   24  N   UNL     1       8.061  24.051  54.766  1.00  0.00    -0.223 NA
HETATM   25  C   UNL     1       8.246  22.710  55.022  1.00  0.00     0.086 A 
HETATM   26  C   UNL     1       8.193  21.962  53.847  1.00  0.00     0.063 A 
HETATM   27  C   UNL     1       8.478  22.052  56.238  1.00  0.00     0.034 A 
HETATM   28  C   UNL     1       8.362  20.577  53.807  1.00  0.00     0.032 A 
HETATM   29  N   UNL     1       7.961  22.893  52.867  1.00  0.00    -0.333 N 
HETATM   30  C   UNL     1       8.597  19.941  55.031  1.00  0.00     0.002 A 
HETATM   31  C   UNL     1       8.653  20.661  56.226  1.00  0.00     0.002 A 
HETATM   32  H   UNL     1       7.880  22.723  51.876  1.00  0.00     0.168 HD
ENDBRANCH  22  23
ENDBRANCH  21  22
ENDBRANCH   1  21
TORSDOF 9
ENDMDL
MODEL 5
REMARK VINA RESULT:      -9.0      5.547     11.460
REMARK  9 active torsions:
REMARK  status: ('A' for Active; 'I' for Inactive)
REMARK    1  A    between atoms: C_6  and  S_7 
REMARK    2  A    between atoms: S_7  and  C_8 
REMARK    3  A    between atoms: C_8  and  C_9 
REMARK       I    between atoms: C_9  and  N_10 
REMARK    4  A    between atoms: N_10  and  N_11 
REMARK    5  A    between atoms: N_11  and  C_12 
REMARK    6  A    between atoms: C_12  and  N_13 
REMARK    7  A    between atoms: N_13  and  C_14 
REMARK    8  A    between atoms: C_17  and  O_18 
REMARK    9  A    between atoms: O_18  and  C_19 
ROOT
HETATM    1  C   UNL     1       5.088  29.576  56.504  1.00  0.00     0.245 C 
HETATM    2  N   UNL     1       4.391  29.094  55.402  1.00  0.00    -0.267 N 
HETATM    3  O   UNL     1       5.541  28.865  57.401  1.00  0.00    -0.271 OA
HETATM    4  H   UNL     1       4.460  29.639  54.543  1.00  0.00     0.190 HD
ENDROOT
BRANCH   2   5
HETATM    5  N   UNL     1       4.354  27.705  55.219  1.00  0.00    -0.274 N 
HETATM    6  H   UNL     1       3.592  27.219  55.677  1.00  0.00     0.189 HD
BRANCH   5   7
HETATM    7  C   UNL     1       5.272  27.035  54.453  1.00  0.00     0.191 C 
HETATM    8  S   UNL     1       6.516  27.754  53.588  1.00  0.00    -0.039 SA
BRANCH   7   9
HETATM    9  N   UNL     1       5.234  25.666  54.486  1.00  0.00    -0.332 N 
HETATM   10  H   UNL     1       4.317  25.306  54.725  1.00  0.00     0.168 HD
BRANCH   9  11
HETATM   11  C   UNL     1       6.239  24.708  54.253  1.00  0.00     0.034 A 
HETATM   12  C   UNL     1       6.627  24.283  52.983  1.00  0.00     0.032 A 
HETATM   13  C   UNL     1       7.602  23.290  52.839  1.00  0.00     0.039 A 
HETATM   14  C   UNL     1       8.225  22.731  53.956  1.00  0.00     0.075 A 
HETATM   15  C   UNL     1       7.882  23.197  55.225  1.00  0.00     0.039 A 
HETATM   16  C   UNL     1       6.905  24.191  55.368  1.00  0.00     0.032 A 
BRANCH  14  17
HETATM   17  O   UNL     1       9.132  21.750  53.670  1.00  0.00    -0.290 OA
BRANCH  17  18
HETATM   18  C   UNL     1       8.637  20.427  53.561  1.00  0.00     0.505 C 
HETATM   19  F   UNL     1       7.481  20.319  54.262  1.00  0.00    -0.184 F 
HETATM   20  F   UNL     1       8.319  20.221  52.258  1.00  0.00    -0.184 F 
ENDBRANCH  17  18
ENDBRANCH  14  17
ENDBRANCH   9  11
ENDBRANCH   7   9
ENDBRANCH   5   7
ENDBRANCH   2   5
BRANCH   1  21
HETATM   21  C   UNL     1       5.255  31.086  56.483  1.00  0.00     0.187 C 
BRANCH  21  22
HETATM   22  S   UNL     1       4.497  31.845  57.946  1.00  0.00    -0.083 SA
BRANCH  22  23
HETATM   23  C   UNL     1       5.857  31.954  58.998  1.00  0.00     0.168 A 
HETATM   24  N   UNL     1       7.127  31.973  58.669  1.00  0.00    -0.223 NA
HETATM   25  C   UNL     1       7.792  31.989  59.876  1.00  0.00     0.086 A 
HETATM   26  C   UNL     1       6.896  31.990  60.944  1.00  0.00     0.063 A 
HETATM   27  C   UNL     1       9.168  31.993  60.142  1.00  0.00     0.034 A 
HETATM   28  C   UNL     1       7.293  31.991  62.282  1.00  0.00     0.032 A 
HETATM   29  N   UNL     1       5.662  31.981  60.346  1.00  0.00    -0.333 N 
HETATM   30  C   UNL     1       8.671  31.990  62.525  1.00  0.00     0.002 A 
HETATM   31  C   UNL     1       9.595  31.992  61.477  1.00  0.00     0.002 A 
HETATM   32  H   UNL     1       4.765  31.960  60.807  1.00  0.00     0.168 HD
ENDBRANCH  22  23
ENDBRANCH  21  22
ENDBRANCH   1  21
TORSDOF 9
ENDMDL
MODEL 6
REMARK VINA RESULT:      -8.9      4.959     11.269
REMARK  9 active torsions:
REMARK  status: ('A' for Active; 'I' for Inactive)
REMARK    1  A    between atoms: C_6  and  S_7 
REMARK    2  A    between atoms: S_7  and  C_8 
REMARK    3  A    between atoms: C_8  and  C_9 
REMARK       I    between atoms: C_9  and  N_10 
REMARK    4  A    between atoms: N_10  and  N_11 
REMARK    5  A    between atoms: N_11  and  C_12 
REMARK    6  A    between atoms: C_12  and  N_13 
REMARK    7  A    between atoms: N_13  and  C_14 
REMARK    8  A    between atoms: C_17  and  O_18 
REMARK    9  A    between atoms: O_18  and  C_19 
ROOT
HETATM    1  C   UNL     1       8.445  28.751  56.890  1.00  0.00     0.245 C 
HETATM    2  N   UNL     1       8.078  29.361  55.696  1.00  0.00    -0.267 N 
HETATM    3  O   UNL     1       8.697  27.551  57.005  1.00  0.00    -0.271 OA
HETATM    4  H   UNL     1       8.330  30.344  55.589  1.00  0.00     0.190 HD
ENDROOT
BRANCH   2   5
HETATM    5  N   UNL     1       8.170  28.597  54.526  1.00  0.00    -0.274 N 
HETATM    6  H   UNL     1       9.082  28.572  54.085  1.00  0.00     0.189 HD
BRANCH   5   7
HETATM    7  C   UNL     1       7.107  27.901  54.011  1.00  0.00     0.191 C 
HETATM    8  S   UNL     1       5.528  28.461  53.948  1.00  0.00    -0.039 SA
BRANCH   7   9
HETATM    9  N   UNL     1       7.378  26.704  53.404  1.00  0.00    -0.332 N 
HETATM   10  H   UNL     1       7.585  26.804  52.415  1.00  0.00     0.168 HD
BRANCH   9  11
HETATM   11  C   UNL     1       7.409  25.394  53.917  1.00  0.00     0.034 A 
HETATM   12  C   UNL     1       6.951  25.047  55.188  1.00  0.00     0.032 A 
HETATM   13  C   UNL     1       7.063  23.728  55.642  1.00  0.00     0.039 A 
HETATM   14  C   UNL     1       7.601  22.733  54.824  1.00  0.00     0.075 A 
HETATM   15  C   UNL     1       8.004  23.065  53.531  1.00  0.00     0.039 A 
HETATM   16  C   UNL     1       7.893  24.386  53.078  1.00  0.00     0.032 A 
BRANCH  14  17
HETATM   17  O   UNL     1       7.679  21.500  55.406  1.00  0.00    -0.290 OA
BRANCH  17  18
HETATM   18  C   UNL     1       8.728  21.292  56.337  1.00  0.00     0.505 C 
HETATM   19  F   UNL     1       8.208  20.862  57.513  1.00  0.00    -0.184 F 
HETATM   20  F   UNL     1       9.495  20.279  55.861  1.00  0.00    -0.184 F 
ENDBRANCH  17  18
ENDBRANCH  14  17
ENDBRANCH   9  11
ENDBRANCH   7   9
ENDBRANCH   5   7
ENDBRANCH   2   5
BRANCH   1  21
HETATM   21  C   UNL     1       8.524  29.725  58.053  1.00  0.00     0.187 C 
BRANCH  21  22
HETATM   22  S   UNL     1       7.036  30.760  58.138  1.00  0.00    -0.083 SA
BRANCH  22  23
HETATM   23  C   UNL     1       7.219  31.465  59.700  1.00  0.00     0.168 A 
HETATM   24  N   UNL     1       8.041  31.100  60.654  1.00  0.00    -0.223 NA
HETATM   25  C   UNL     1       7.731  31.932  61.708  1.00  0.00     0.086 A 
HETATM   26  C   UNL     1       6.708  32.815  61.368  1.00  0.00     0.063 A 
HETATM   27  C   UNL     1       8.275  31.984  62.999  1.00  0.00     0.034 A 
HETATM   28  C   UNL     1       6.183  33.761  62.250  1.00  0.00     0.032 A 
HETATM   29  N   UNL     1       6.411  32.499  60.068  1.00  0.00    -0.333 N 
HETATM   30  C   UNL     1       6.737  33.794  63.534  1.00  0.00     0.002 A 
HETATM   31  C   UNL     1       7.765  32.924  63.906  1.00  0.00     0.002 A 
HETATM   32  H   UNL     1       5.701  32.920  59.488  1.00  0.00     0.168 HD
ENDBRANCH  22  23
ENDBRANCH  21  22
ENDBRANCH   1  21
TORSDOF 9
ENDMDL
MODEL 7
REMARK VINA RESULT:      -8.9      1.569      1.778
REMARK  9 active torsions:
REMARK  status: ('A' for Active; 'I' for Inactive)
REMARK    1  A    between atoms: C_6  and  S_7 
REMARK    2  A    between atoms: S_7  and  C_8 
REMARK    3  A    between atoms: C_8  and  C_9 
REMARK       I    between atoms: C_9  and  N_10 
REMARK    4  A    between atoms: N_10  and  N_11 
REMARK    5  A    between atoms: N_11  and  C_12 
REMARK    6  A    between atoms: C_12  and  N_13 
REMARK    7  A    between atoms: N_13  and  C_14 
REMARK    8  A    between atoms: C_17  and  O_18 
REMARK    9  A    between atoms: O_18  and  C_19 
ROOT
HETATM    1  C   UNL     1       7.394  27.357  57.355  1.00  0.00     0.245 C 
HETATM    2  N   UNL     1       7.546  28.738  57.373  1.00  0.00    -0.267 N 
HETATM    3  O   UNL     1       7.965  26.588  58.128  1.00  0.00    -0.271 OA
HETATM    4  H   UNL     1       6.751  29.290  57.051  1.00  0.00     0.190 HD
ENDROOT
BRANCH   2   5
HETATM    5  N   UNL     1       8.255  29.295  58.444  1.00  0.00    -0.274 N 
HETATM    6  H   UNL     1       7.948  29.018  59.369  1.00  0.00     0.189 HD
BRANCH   5   7
HETATM    7  C   UNL     1       9.316  30.145  58.268  1.00  0.00     0.191 C 
HETATM    8  S   UNL     1      10.532  29.948  57.130  1.00  0.00    -0.039 SA
BRANCH   7   9
HETATM    9  N   UNL     1       9.323  31.299  59.006  1.00  0.00    -0.332 N 
HETATM   10  H   UNL     1       9.905  32.022  58.597  1.00  0.00     0.168 HD
BRANCH   9  11
HETATM   11  C   UNL     1       8.673  31.629  60.210  1.00  0.00     0.034 A 
HETATM   12  C   UNL     1       9.110  31.214  61.468  1.00  0.00     0.032 A 
HETATM   13  C   UNL     1       8.378  31.545  62.613  1.00  0.00     0.039 A 
HETATM   14  C   UNL     1       7.220  32.320  62.523  1.00  0.00     0.075 A 
HETATM   15  C   UNL     1       6.814  32.787  61.274  1.00  0.00     0.039 A 
HETATM   16  C   UNL     1       7.547  32.453  60.127  1.00  0.00     0.032 A 
BRANCH  14  17
HETATM   17  O   UNL     1       6.589  32.539  63.715  1.00  0.00    -0.290 OA
BRANCH  17  18
HETATM   18  C   UNL     1       7.371  33.072  64.770  1.00  0.00     0.505 C 
HETATM   19  F   UNL     1       7.979  34.209  64.350  1.00  0.00    -0.184 F 
HETATM   20  F   UNL     1       6.519  33.434  65.761  1.00  0.00    -0.184 F 
ENDBRANCH  17  18
ENDBRANCH  14  17
ENDBRANCH   9  11
ENDBRANCH   7   9
ENDBRANCH   5   7
ENDBRANCH   2   5
BRANCH   1  21
HETATM   21  C   UNL     1       6.426  26.881  56.284  1.00  0.00     0.187 C 
BRANCH  21  22
HETATM   22  S   UNL     1       7.231  26.823  54.659  1.00  0.00    -0.083 SA
BRANCH  22  23
HETATM   23  C   UNL     1       7.503  25.129  54.492  1.00  0.00     0.168 A 
HETATM   24  N   UNL     1       7.651  24.446  53.382  1.00  0.00    -0.223 NA
HETATM   25  C   UNL     1       7.760  23.137  53.799  1.00  0.00     0.086 A 
HETATM   26  C   UNL     1       7.682  23.044  55.187  1.00  0.00     0.063 A 
HETATM   27  C   UNL     1       7.915  21.966  53.045  1.00  0.00     0.034 A 
HETATM   28  C   UNL     1       7.749  21.835  55.882  1.00  0.00     0.032 A 
HETATM   29  N   UNL     1       7.532  24.341  55.603  1.00  0.00    -0.333 N 
HETATM   30  C   UNL     1       7.900  20.678  55.111  1.00  0.00     0.002 A 
HETATM   31  C   UNL     1       7.983  20.737  53.718  1.00  0.00     0.002 A 
HETATM   32  H   UNL     1       7.423  24.666  56.552  1.00  0.00     0.168 HD
ENDBRANCH  22  23
ENDBRANCH  21  22
ENDBRANCH   1  21
TORSDOF 9
ENDMDL
MODEL 8
REMARK VINA RESULT:      -8.7      2.221      3.026
REMARK  9 active torsions:
REMARK  status: ('A' for Active; 'I' for Inactive)
REMARK    1  A    between atoms: C_6  and  S_7 
REMARK    2  A    between atoms: S_7  and  C_8 
REMARK    3  A    between atoms: C_8  and  C_9 
REMARK       I    between atoms: C_9  and  N_10 
REMARK    4  A    between atoms: N_10  and  N_11 
REMARK    5  A    between atoms: N_11  and  C_12 
REMARK    6  A    between atoms: C_12  and  N_13 
REMARK    7  A    between atoms: N_13  and  C_14 
REMARK    8  A    between atoms: C_17  and  O_18 
REMARK    9  A    between atoms: O_18  and  C_19 
ROOT
HETATM    1  C   UNL     1       9.005  29.937  58.199  1.00  0.00     0.245 C 
HETATM    2  N   UNL     1       8.116  29.685  59.237  1.00  0.00    -0.267 N 
HETATM    3  O   UNL     1       9.793  30.883  58.177  1.00  0.00    -0.271 OA
HETATM    4  H   UNL     1       7.860  28.711  59.393  1.00  0.00     0.190 HD
ENDROOT
BRANCH   2   5
HETATM    5  N   UNL     1       8.248  30.455  60.400  1.00  0.00    -0.274 N 
HETATM    6  H   UNL     1       9.126  30.358  60.898  1.00  0.00     0.189 HD
BRANCH   5   7
HETATM    7  C   UNL     1       7.269  31.308  60.839  1.00  0.00     0.191 C 
HETATM    8  S   UNL     1       6.468  32.429  59.883  1.00  0.00    -0.039 SA
BRANCH   7   9
HETATM    9  N   UNL     1       6.840  31.157  62.131  1.00  0.00    -0.332 N 
HETATM   10  H   UNL     1       6.658  30.188  62.372  1.00  0.00     0.168 HD
BRANCH   9  11
HETATM   11  C   UNL     1       6.613  32.105  63.145  1.00  0.00     0.034 A 
HETATM   12  C   UNL     1       7.629  32.776  63.824  1.00  0.00     0.032 A 
HETATM   13  C   UNL     1       7.319  33.669  64.855  1.00  0.00     0.039 A 
HETATM   14  C   UNL     1       5.992  33.930  65.201  1.00  0.00     0.075 A 
HETATM   15  C   UNL     1       4.971  33.307  64.484  1.00  0.00     0.039 A 
HETATM   16  C   UNL     1       5.283  32.411  63.452  1.00  0.00     0.032 A 
BRANCH  14  17
HETATM   17  O   UNL     1       5.836  34.797  66.245  1.00  0.00    -0.290 OA
BRANCH  17  18
HETATM   18  C   UNL     1       5.395  34.250  67.476  1.00  0.00     0.505 C 
HETATM   19  F   UNL     1       5.793  35.052  68.494  1.00  0.00    -0.184 F 
HETATM   20  F   UNL     1       4.038  34.280  67.467  1.00  0.00    -0.184 F 
ENDBRANCH  17  18
ENDBRANCH  14  17
ENDBRANCH   9  11
ENDBRANCH   7   9
ENDBRANCH   5   7
ENDBRANCH   2   5
BRANCH   1  21
HETATM   21  C   UNL     1       8.923  28.907  57.086  1.00  0.00     0.187 C 
BRANCH  21  22
HETATM   22  S   UNL     1       7.308  28.968  56.260  1.00  0.00    -0.083 SA
BRANCH  22  23
HETATM   23  C   UNL     1       7.302  27.450  55.444  1.00  0.00     0.168 A 
HETATM   24  N   UNL     1       7.094  26.262  55.960  1.00  0.00    -0.223 NA
HETATM   25  C   UNL     1       7.277  25.395  54.905  1.00  0.00     0.086 A 
HETATM   26  C   UNL     1       7.591  26.085  53.735  1.00  0.00     0.063 A 
HETATM   27  C   UNL     1       7.202  23.995  54.871  1.00  0.00     0.034 A 
HETATM   28  C   UNL     1       7.843  25.457  52.515  1.00  0.00     0.032 A 
HETATM   29  N   UNL     1       7.586  27.403  54.113  1.00  0.00    -0.333 N 
HETATM   30  C   UNL     1       7.767  24.060  52.503  1.00  0.00     0.002 A 
HETATM   31  C   UNL     1       7.452  23.339  53.657  1.00  0.00     0.002 A 
HETATM   32  H   UNL     1       7.790  28.201  53.530  1.00  0.00     0.168 HD
ENDBRANCH  22  23
ENDBRANCH  21  22
ENDBRANCH   1  21
TORSDOF 9
ENDMDL
MODEL 9
REMARK VINA RESULT:      -8.5      5.602     11.755
REMARK  9 active torsions:
REMARK  status: ('A' for Active; 'I' for Inactive)
REMARK    1  A    between atoms: C_6  and  S_7 
REMARK    2  A    between atoms: S_7  and  C_8 
REMARK    3  A    between atoms: C_8  and  C_9 
REMARK       I    between atoms: C_9  and  N_10 
REMARK    4  A    between atoms: N_10  and  N_11 
REMARK    5  A    between atoms: N_11  and  C_12 
REMARK    6  A    between atoms: C_12  and  N_13 
REMARK    7  A    between atoms: N_13  and  C_14 
REMARK    8  A    between atoms: C_17  and  O_18 
REMARK    9  A    between atoms: O_18  and  C_19 
ROOT
HETATM    1  C   UNL     1       6.350  30.523  57.173  1.00  0.00     0.245 C 
HETATM    2  N   UNL     1       6.287  30.234  55.815  1.00  0.00    -0.267 N 
HETATM    3  O   UNL     1       6.845  29.777  58.018  1.00  0.00    -0.271 OA
HETATM    4  H   UNL     1       6.299  31.030  55.177  1.00  0.00     0.190 HD
ENDROOT
BRANCH   2   5
HETATM    5  N   UNL     1       6.982  29.105  55.364  1.00  0.00    -0.274 N 
HETATM    6  H   UNL     1       7.927  28.999  55.712  1.00  0.00     0.189 HD
BRANCH   5   7
HETATM    7  C   UNL     1       6.423  28.179  54.522  1.00  0.00     0.191 C 
HETATM    8  S   UNL     1       4.812  28.147  54.056  1.00  0.00    -0.039 SA
BRANCH   7   9
HETATM    9  N   UNL     1       7.269  27.277  53.932  1.00  0.00    -0.332 N 
HETATM   10  H   UNL     1       7.921  27.715  53.290  1.00  0.00     0.168 HD
BRANCH   9  11
HETATM   11  C   UNL     1       7.370  25.880  54.068  1.00  0.00     0.034 A 
HETATM   12  C   UNL     1       7.030  25.186  55.228  1.00  0.00     0.032 A 
HETATM   13  C   UNL     1       7.206  23.800  55.298  1.00  0.00     0.039 A 
HETATM   14  C   UNL     1       7.692  23.084  54.202  1.00  0.00     0.075 A 
HETATM   15  C   UNL     1       7.976  23.767  53.020  1.00  0.00     0.039 A 
HETATM   16  C   UNL     1       7.800  25.156  52.952  1.00  0.00     0.032 A 
BRANCH  14  17
HETATM   17  O   UNL     1       7.845  21.744  54.421  1.00  0.00    -0.290 OA
BRANCH  17  18
HETATM   18  C   UNL     1       8.345  20.969  53.345  1.00  0.00     0.505 C 
HETATM   19  F   UNL     1       9.071  19.934  53.835  1.00  0.00    -0.184 F 
HETATM   20  F   UNL     1       7.278  20.425  52.708  1.00  0.00    -0.184 F 
ENDBRANCH  17  18
ENDBRANCH  14  17
ENDBRANCH   9  11
ENDBRANCH   7   9
ENDBRANCH   5   7
ENDBRANCH   2   5
BRANCH   1  21
HETATM   21  C   UNL     1       5.758  31.880  57.518  1.00  0.00     0.187 C 
BRANCH  21  22
HETATM   22  S   UNL     1       4.386  31.711  58.693  1.00  0.00    -0.083 SA
BRANCH  22  23
HETATM   23  C   UNL     1       5.160  32.164  60.164  1.00  0.00     0.168 A 
HETATM   24  N   UNL     1       4.810  33.117  60.995  1.00  0.00    -0.223 NA
HETATM   25  C   UNL     1       5.797  33.111  61.956  1.00  0.00     0.086 A 
HETATM   26  C   UNL     1       6.749  32.127  61.694  1.00  0.00     0.063 A 
HETATM   27  C   UNL     1       5.956  33.929  63.084  1.00  0.00     0.034 A 
HETATM   28  C   UNL     1       7.868  31.906  62.497  1.00  0.00     0.032 A 
HETATM   29  N   UNL     1       6.303  31.528  60.544  1.00  0.00    -0.333 N 
HETATM   30  C   UNL     1       8.010  32.735  63.615  1.00  0.00     0.002 A 
HETATM   31  C   UNL     1       7.073  33.729  63.906  1.00  0.00     0.002 A 
HETATM   32  H   UNL     1       6.749  30.777  60.040  1.00  0.00     0.168 HD
ENDBRANCH  22  23
ENDBRANCH  21  22
ENDBRANCH   1  21
TORSDOF 9
ENDMDL
MODEL 10
REMARK VINA RESULT:      -8.4      3.646      4.618
REMARK  9 active torsions:
REMARK  status: ('A' for Active; 'I' for Inactive)
REMARK    1  A    between atoms: C_6  and  S_7 
REMARK    2  A    between atoms: S_7  and  C_8 
REMARK    3  A    between atoms: C_8  and  C_9 
REMARK       I    between atoms: C_9  and  N_10 
REMARK    4  A    between atoms: N_10  and  N_11 
REMARK    5  A    between atoms: N_11  and  C_12 
REMARK    6  A    between atoms: C_12  and  N_13 
REMARK    7  A    between atoms: N_13  and  C_14 
REMARK    8  A    between atoms: C_17  and  O_18 
REMARK    9  A    between atoms: O_18  and  C_19 
ROOT
HETATM    1  C   UNL     1       6.580  27.049  53.622  1.00  0.00     0.245 C 
HETATM    2  N   UNL     1       6.636  28.438  53.596  1.00  0.00    -0.267 N 
HETATM    3  O   UNL     1       5.606  26.403  54.007  1.00  0.00    -0.271 OA
HETATM    4  H   UNL     1       7.232  28.858  52.883  1.00  0.00     0.190 HD
ENDROOT
BRANCH   2   5
HETATM    5  N   UNL     1       5.451  29.136  53.861  1.00  0.00    -0.274 N 
HETATM    6  H   UNL     1       4.861  29.327  53.060  1.00  0.00     0.189 HD
BRANCH   5   7
HETATM    7  C   UNL     1       5.086  29.523  55.125  1.00  0.00     0.191 C 
HETATM    8  S   UNL     1       3.903  28.785  56.056  1.00  0.00    -0.039 SA
BRANCH   7   9
HETATM    9  N   UNL     1       5.819  30.521  55.709  1.00  0.00    -0.332 N 
HETATM   10  H   UNL     1       5.821  31.376  55.163  1.00  0.00     0.168 HD
BRANCH   9  11
HETATM   11  C   UNL     1       6.553  30.546  56.910  1.00  0.00     0.034 A 
HETATM   12  C   UNL     1       7.606  29.678  57.195  1.00  0.00     0.032 A 
HETATM   13  C   UNL     1       8.253  29.736  58.434  1.00  0.00     0.039 A 
HETATM   14  C   UNL     1       7.881  30.682  59.391  1.00  0.00     0.075 A 
HETATM   15  C   UNL     1       6.869  31.591  59.086  1.00  0.00     0.039 A 
HETATM   16  C   UNL     1       6.221  31.531  57.846  1.00  0.00     0.032 A 
BRANCH  14  17
HETATM   17  O   UNL     1       8.575  30.604  60.566  1.00  0.00    -0.290 OA
BRANCH  17  18
HETATM   18  C   UNL     1       9.312  31.750  60.955  1.00  0.00     0.505 C 
HETATM   19  F   UNL     1      10.198  31.408  61.923  1.00  0.00    -0.184 F 
HETATM   20  F   UNL     1      10.044  32.144  59.883  1.00  0.00    -0.184 F 
ENDBRANCH  17  18
ENDBRANCH  14  17
ENDBRANCH   9  11
ENDBRANCH   7   9
ENDBRANCH   5   7
ENDBRANCH   2   5
BRANCH   1  21
HETATM   21  C   UNL     1       7.850  26.396  53.104  1.00  0.00     0.187 C 
BRANCH  21  22
HETATM   22  S   UNL     1       7.467  24.954  52.072  1.00  0.00    -0.083 SA
BRANCH  22  23
HETATM   23  C   UNL     1       7.766  23.671  53.183  1.00  0.00     0.168 A 
HETATM   24  N   UNL     1       7.787  22.383  52.935  1.00  0.00    -0.223 NA
HETATM   25  C   UNL     1       7.990  21.802  54.168  1.00  0.00     0.086 A 
HETATM   26  C   UNL     1       8.100  22.767  55.168  1.00  0.00     0.063 A 
HETATM   27  C   UNL     1       8.079  20.447  54.517  1.00  0.00     0.034 A 
HETATM   28  C   UNL     1       8.295  22.461  56.515  1.00  0.00     0.032 A 
HETATM   29  N   UNL     1       7.966  23.957  54.500  1.00  0.00    -0.333 N 
HETATM   30  C   UNL     1       8.378  21.103  56.842  1.00  0.00     0.002 A 
HETATM   31  C   UNL     1       8.273  20.111  55.864  1.00  0.00     0.002 A 
HETATM   32  H   UNL     1       7.974  24.882  54.903  1.00  0.00     0.168 HD
ENDBRANCH  22  23
ENDBRANCH  21  22
ENDBRANCH   1  21
TORSDOF 9
ENDMDL
