MODEL 1
REMARK VINA RESULT:      -9.9      0.000      0.000
REMARK  8 active torsions:
REMARK  status: ('A' for Active; 'I' for Inactive)
REMARK    1  A    between atoms: C_5  and  C_6 
REMARK    2  A    between atoms: C_6  and  N_7 
REMARK       I    between atoms: N_7  and  C_8 
REMARK    3  A    between atoms: C_8  and  C_9 
REMARK    4  A    between atoms: N_12  and  C_13 
REMARK    5  A    between atoms: C_13  and  C_14 
REMARK       I    between atoms: C_14  and  N_15 
REMARK    6  A    between atoms: N_15  and  C_16 
REMARK    7  A    between atoms: C_20  and  O_21 
REMARK    8  A    between atoms: C_26  and  N_27 
ROOT
HETATM    1  C   UNL     1       8.245  28.573  56.673  1.00  0.00     0.186 A 
HETATM    2  N   UNL     1       7.485  28.510  57.824  1.00  0.00    -0.150 NA
HETATM    3  N   UNL     1       8.097  29.210  58.767  1.00  0.00     0.007 NA
HETATM    4  N   UNL     1       9.226  29.717  58.226  1.00  0.00    -0.248 N 
HETATM    5  C   UNL     1       9.375  29.337  56.917  1.00  0.00     0.151 A 
ENDROOT
BRANCH   4   6
HETATM    6  C   UNL     1       9.984  30.689  58.977  1.00  0.00     0.251 C 
BRANCH   6   7
HETATM    7  C   UNL     1       9.049  31.620  59.722  1.00  0.00     0.241 C 
HETATM    8  N   UNL     1       8.669  31.141  60.968  1.00  0.00    -0.326 N 
HETATM    9  H   UNL     1       9.022  30.219  61.224  1.00  0.00     0.169 HD
HETATM   10  O   UNL     1       8.732  32.700  59.233  1.00  0.00    -0.271 OA
BRANCH   8  11
HETATM   11  C   UNL     1       7.772  31.721  61.886  1.00  0.00     0.036 A 
HETATM   12  C   UNL     1       6.398  31.829  61.684  1.00  0.00     0.056 A 
HETATM   13  C   UNL     1       5.586  32.410  62.666  1.00  0.00     0.069 A 
HETATM   14 CL   UNL     1       3.884  32.502  62.357  1.00  0.00    -0.081 Cl
HETATM   15  C   UNL     1       6.132  32.905  63.861  1.00  0.00     0.090 A 
HETATM   16  C   UNL     1       7.509  32.788  64.061  1.00  0.00     0.041 A 
HETATM   17  C   UNL     1       8.319  32.202  63.082  1.00  0.00     0.032 A 
BRANCH  15  18
HETATM   18  O   UNL     1       5.265  33.459  64.764  1.00  0.00    -0.354 OA
HETATM   19  C   UNL     1       5.134  34.874  64.768  1.00  0.00     0.210 C 
ENDBRANCH  15  18
ENDBRANCH   8  11
ENDBRANCH   6   7
ENDBRANCH   4   6
BRANCH   5  20
HETATM   20  N   UNL     1      10.409  29.714  56.132  1.00  0.00    -0.382 N 
HETATM   21  H   UNL     1      10.573  29.364  55.190  1.00  0.00     0.157 HD
HETATM   22  H   UNL     1      11.262  30.065  56.578  1.00  0.00     0.157 HD
ENDBRANCH   5  20
BRANCH   1  23
HETATM   23  C   UNL     1       7.829  27.974  55.412  1.00  0.00     0.275 C 
HETATM   24  N   UNL     1       7.025  26.867  55.566  1.00  0.00    -0.351 N 
HETATM   25  H   UNL     1       6.755  26.613  56.510  1.00  0.00     0.163 HD
HETATM   26  O   UNL     1       8.134  28.443  54.318  1.00  0.00    -0.266 OA
BRANCH  24  27
HETATM   27  C   UNL     1       6.350  26.240  54.458  1.00  0.00     0.161 C 
BRANCH  27  28
HETATM   28  C   UNL     1       6.920  24.872  54.174  1.00  0.00    -0.041 A 
HETATM   29  C   UNL     1       6.991  23.902  55.184  1.00  0.00     0.009 A 
HETATM   30  C   UNL     1       7.506  22.631  54.920  1.00  0.00     0.007 A 
HETATM   31  C   UNL     1       7.960  22.303  53.638  1.00  0.00    -0.062 A 
HETATM   32  C   UNL     1       8.479  20.929  53.335  1.00  0.00     0.048 C 
HETATM   33  C   UNL     1       7.875  23.262  52.622  1.00  0.00     0.007 A 
HETATM   34  C   UNL     1       7.364  24.536  52.888  1.00  0.00     0.009 A 
ENDBRANCH  27  28
ENDBRANCH  24  27
ENDBRANCH   1  23
TORSDOF 8
ENDMDL
MODEL 2
REMARK VINA RESULT:      -9.8      1.242      1.748
REMARK  8 active torsions:
REMARK  status: ('A' for Active; 'I' for Inactive)
REMARK    1  A    between atoms: C_5  and  C_6 
REMARK    2  A    between atoms: C_6  and  N_7 
REMARK       I    between atoms: N_7  and  C_8 
REMARK    3  A    between atoms: C_8  and  C_9 
REMARK    4  A    between atoms: N_12  and  C_13 
REMARK    5  A    between atoms: C_13  and  C_14 
REMARK       I    between atoms: C_14  and  N_15 
REMARK    6  A    between atoms: N_15  and  C_16 
REMARK    7  A    between atoms: C_20  and  O_21 
REMARK    8  A    between atoms: C_26  and  N_27 
ROOT
HETATM    1  C   UNL     1       8.147  28.722  56.442  1.00  0.00     0.186 A 
HETATM    2  N   UNL     1       7.184  28.729  57.431  1.00  0.00    -0.150 NA
HETATM    3  N   UNL     1       7.632  29.451  58.446  1.00  0.00     0.007 NA
HETATM    4  N   UNL     1       8.859  29.905  58.108  1.00  0.00    -0.248 N 
HETATM    5  C   UNL     1       9.237  29.465  56.866  1.00  0.00     0.151 A 
ENDROOT
BRANCH   4   6
HETATM    6  C   UNL     1       9.497  30.887  58.952  1.00  0.00     0.251 C 
BRANCH   6   7
HETATM    7  C   UNL     1       8.845  30.904  60.320  1.00  0.00     0.241 C 
HETATM    8  N   UNL     1       7.831  31.846  60.437  1.00  0.00    -0.326 N 
HETATM    9  H   UNL     1       7.666  32.435  59.622  1.00  0.00     0.169 HD
HETATM   10  O   UNL     1       9.195  30.106  61.183  1.00  0.00    -0.271 OA
BRANCH   8  11
HETATM   11  C   UNL     1       7.067  32.163  61.577  1.00  0.00     0.036 A 
HETATM   12  C   UNL     1       7.585  32.726  62.741  1.00  0.00     0.056 A 
HETATM   13  C   UNL     1       6.739  33.020  63.817  1.00  0.00     0.069 A 
HETATM   14 CL   UNL     1       7.445  33.730  65.231  1.00  0.00    -0.081 Cl
HETATM   15  C   UNL     1       5.364  32.745  63.756  1.00  0.00     0.090 A 
HETATM   16  C   UNL     1       4.848  32.187  62.585  1.00  0.00     0.041 A 
HETATM   17  C   UNL     1       5.694  31.900  61.507  1.00  0.00     0.032 A 
BRANCH  15  18
HETATM   18  O   UNL     1       4.611  33.063  64.856  1.00  0.00    -0.354 OA
HETATM   19  C   UNL     1       3.840  34.256  64.802  1.00  0.00     0.210 C 
ENDBRANCH  15  18
ENDBRANCH   8  11
ENDBRANCH   6   7
ENDBRANCH   4   6
BRANCH   5  20
HETATM   20  N   UNL     1      10.412  29.780  56.275  1.00  0.00    -0.382 N 
HETATM   21  H   UNL     1      10.564  29.795  55.269  1.00  0.00     0.157 HD
HETATM   22  H   UNL     1      11.279  29.647  56.805  1.00  0.00     0.157 HD
ENDBRANCH   5  20
BRANCH   1  23
HETATM   23  C   UNL     1       7.954  28.081  55.148  1.00  0.00     0.275 C 
HETATM   24  N   UNL     1       7.212  26.922  55.213  1.00  0.00    -0.351 N 
HETATM   25  H   UNL     1       6.830  26.662  56.115  1.00  0.00     0.163 HD
HETATM   26  O   UNL     1       8.377  28.556  54.098  1.00  0.00    -0.266 OA
BRANCH  24  27
HETATM   27  C   UNL     1       6.743  26.237  54.035  1.00  0.00     0.161 C 
BRANCH  27  28
HETATM   28  C   UNL     1       7.108  24.773  54.072  1.00  0.00    -0.041 A 
HETATM   29  C   UNL     1       7.500  24.103  52.904  1.00  0.00     0.009 A 
HETATM   30  C   UNL     1       7.851  22.752  52.939  1.00  0.00     0.007 A 
HETATM   31  C   UNL     1       7.819  22.042  54.144  1.00  0.00    -0.062 A 
HETATM   32  C   UNL     1       8.230  20.601  54.198  1.00  0.00     0.048 C 
HETATM   33  C   UNL     1       7.445  22.711  55.315  1.00  0.00     0.007 A 
HETATM   34  C   UNL     1       7.089  24.062  55.279  1.00  0.00     0.009 A 
ENDBRANCH  27  28
ENDBRANCH  24  27
ENDBRANCH   1  23
TORSDOF 8
ENDMDL
MODEL 3
REMARK VINA RESULT:      -9.8      3.077     10.922
REMARK  8 active torsions:
REMARK  status: ('A' for Active; 'I' for Inactive)
REMARK    1  A    between atoms: C_5  and  C_6 
REMARK    2  A    between atoms: C_6  and  N_7 
REMARK       I    between atoms: N_7  and  C_8 
REMARK    3  A    between atoms: C_8  and  C_9 
REMARK    4  A    between atoms: N_12  and  C_13 
REMARK    5  A    between atoms: C_13  and  C_14 
REMARK       I    between atoms: C_14  and  N_15 
REMARK    6  A    between atoms: N_15  and  C_16 
REMARK    7  A    between atoms: C_20  and  O_21 
REMARK    8  A    between atoms: C_26  and  N_27 
ROOT
HETATM    1  C   UNL     1       7.872  30.131  58.754  1.00  0.00     0.186 A 
HETATM    2  N   UNL     1       8.586  28.962  58.584  1.00  0.00    -0.150 NA
HETATM    3  N   UNL     1       7.974  28.227  57.667  1.00  0.00     0.007 NA
HETATM    4  N   UNL     1       6.890  28.920  57.254  1.00  0.00    -0.248 N 
HETATM    5  C   UNL     1       6.770  30.115  57.913  1.00  0.00     0.151 A 
ENDROOT
BRANCH   4   6
HETATM    6  C   UNL     1       6.150  28.440  56.110  1.00  0.00     0.251 C 
BRANCH   6   7
HETATM    7  C   UNL     1       6.135  26.925  56.095  1.00  0.00     0.241 C 
HETATM    8  N   UNL     1       7.218  26.368  55.428  1.00  0.00    -0.326 N 
HETATM    9  H   UNL     1       7.870  27.024  55.000  1.00  0.00     0.169 HD
HETATM   10  O   UNL     1       5.245  26.308  56.673  1.00  0.00    -0.271 OA
BRANCH   8  11
HETATM   11  C   UNL     1       7.479  25.006  55.180  1.00  0.00     0.036 A 
HETATM   12  C   UNL     1       7.775  24.068  56.166  1.00  0.00     0.056 A 
HETATM   13  C   UNL     1       8.003  22.731  55.818  1.00  0.00     0.069 A 
HETATM   14 CL   UNL     1       8.355  21.613  57.094  1.00  0.00    -0.081 Cl
HETATM   15  C   UNL     1       7.953  22.309  54.481  1.00  0.00     0.090 A 
HETATM   16  C   UNL     1       7.649  23.252  53.497  1.00  0.00     0.041 A 
HETATM   17  C   UNL     1       7.414  24.586  53.846  1.00  0.00     0.032 A 
BRANCH  15  18
HETATM   18  O   UNL     1       8.191  20.983  54.232  1.00  0.00    -0.354 OA
HETATM   19  C   UNL     1       7.946  20.507  52.915  1.00  0.00     0.210 C 
ENDBRANCH  15  18
ENDBRANCH   8  11
ENDBRANCH   6   7
ENDBRANCH   4   6
BRANCH   5  20
HETATM   20  N   UNL     1       5.783  31.011  57.685  1.00  0.00    -0.382 N 
HETATM   21  H   UNL     1       4.896  30.788  57.238  1.00  0.00     0.157 HD
HETATM   22  H   UNL     1       6.029  32.002  57.604  1.00  0.00     0.157 HD
ENDBRANCH   5  20
BRANCH   1  23
HETATM   23  C   UNL     1       8.304  31.206  59.637  1.00  0.00     0.275 C 
HETATM   24  N   UNL     1       8.196  30.897  60.974  1.00  0.00    -0.351 N 
HETATM   25  H   UNL     1       7.894  29.960  61.215  1.00  0.00     0.163 HD
HETATM   26  O   UNL     1       8.761  32.267  59.221  1.00  0.00    -0.266 OA
BRANCH  24  27
HETATM   27  C   UNL     1       8.744  31.737  62.009  1.00  0.00     0.161 C 
BRANCH  27  28
HETATM   28  C   UNL     1       7.658  32.282  62.904  1.00  0.00    -0.041 A 
HETATM   29  C   UNL     1       6.309  32.007  62.639  1.00  0.00     0.009 A 
HETATM   30  C   UNL     1       5.303  32.500  63.473  1.00  0.00     0.007 A 
HETATM   31  C   UNL     1       5.625  33.276  64.591  1.00  0.00    -0.062 A 
HETATM   32  C   UNL     1       4.554  33.777  65.513  1.00  0.00     0.048 C 
HETATM   33  C   UNL     1       6.971  33.539  64.869  1.00  0.00     0.007 A 
HETATM   34  C   UNL     1       7.979  33.049  64.031  1.00  0.00     0.009 A 
ENDBRANCH  27  28
ENDBRANCH  24  27
ENDBRANCH   1  23
TORSDOF 8
ENDMDL
MODEL 4
REMARK VINA RESULT:      -9.3      1.658      2.230
REMARK  8 active torsions:
REMARK  status: ('A' for Active; 'I' for Inactive)
REMARK    1  A    between atoms: C_5  and  C_6 
REMARK    2  A    between atoms: C_6  and  N_7 
REMARK       I    between atoms: N_7  and  C_8 
REMARK    3  A    between atoms: C_8  and  C_9 
REMARK    4  A    between atoms: N_12  and  C_13 
REMARK    5  A    between atoms: C_13  and  C_14 
REMARK       I    between atoms: C_14  and  N_15 
REMARK    6  A    between atoms: N_15  and  C_16 
REMARK    7  A    between atoms: C_20  and  O_21 
REMARK    8  A    between atoms: C_26  and  N_27 
ROOT
HETATM    1  C   UNL     1       7.634  27.835  56.564  1.00  0.00     0.186 A 
HETATM    2  N   UNL     1       7.781  27.797  57.936  1.00  0.00    -0.150 NA
HETATM    3  N   UNL     1       8.745  28.639  58.277  1.00  0.00     0.007 NA
HETATM    4  N   UNL     1       9.201  29.211  57.141  1.00  0.00    -0.248 N 
HETATM    5  C   UNL     1       8.548  28.732  56.035  1.00  0.00     0.151 A 
ENDROOT
BRANCH   4   6
HETATM    6  C   UNL     1      10.119  30.321  57.239  1.00  0.00     0.251 C 
BRANCH   6   7
HETATM    7  C   UNL     1       9.693  31.255  58.354  1.00  0.00     0.241 C 
HETATM    8  N   UNL     1       8.437  30.966  58.868  1.00  0.00    -0.326 N 
HETATM    9  H   UNL     1       7.933  30.199  58.424  1.00  0.00     0.169 HD
HETATM   10  O   UNL     1      10.453  32.135  58.749  1.00  0.00    -0.271 OA
BRANCH   8  11
HETATM   11  C   UNL     1       7.722  31.664  59.861  1.00  0.00     0.036 A 
HETATM   12  C   UNL     1       8.157  31.834  61.172  1.00  0.00     0.056 A 
HETATM   13  C   UNL     1       7.380  32.561  62.083  1.00  0.00     0.069 A 
HETATM   14 CL   UNL     1       7.985  32.744  63.696  1.00  0.00    -0.081 Cl
HETATM   15  C   UNL     1       6.150  33.120  61.704  1.00  0.00     0.090 A 
HETATM   16  C   UNL     1       5.721  32.953  60.386  1.00  0.00     0.041 A 
HETATM   17  C   UNL     1       6.501  32.232  59.475  1.00  0.00     0.032 A 
BRANCH  15  18
HETATM   18  O   UNL     1       5.455  33.813  62.660  1.00  0.00    -0.354 OA
HETATM   19  C   UNL     1       5.545  35.231  62.639  1.00  0.00     0.210 C 
ENDBRANCH  15  18
ENDBRANCH   8  11
ENDBRANCH   6   7
ENDBRANCH   4   6
BRANCH   5  20
HETATM   20  N   UNL     1       8.797  29.143  54.771  1.00  0.00    -0.382 N 
HETATM   21  H   UNL     1       9.333  29.975  54.532  1.00  0.00     0.157 HD
HETATM   22  H   UNL     1       8.151  28.861  54.028  1.00  0.00     0.157 HD
ENDBRANCH   5  20
BRANCH   1  23
HETATM   23  C   UNL     1       6.608  27.084  55.854  1.00  0.00     0.275 C 
HETATM   24  N   UNL     1       7.111  26.240  54.889  1.00  0.00    -0.351 N 
HETATM   25  H   UNL     1       8.119  26.174  54.806  1.00  0.00     0.163 HD
HETATM   26  O   UNL     1       5.413  27.169  56.123  1.00  0.00    -0.266 OA
BRANCH  24  27
HETATM   27  C   UNL     1       6.293  25.271  54.205  1.00  0.00     0.161 C 
BRANCH  27  28
HETATM   28  C   UNL     1       6.923  23.900  54.240  1.00  0.00    -0.041 A 
HETATM   29  C   UNL     1       7.334  23.272  53.055  1.00  0.00     0.009 A 
HETATM   30  C   UNL     1       7.931  22.010  53.086  1.00  0.00     0.007 A 
HETATM   31  C   UNL     1       8.130  21.349  54.302  1.00  0.00    -0.062 A 
HETATM   32  C   UNL     1       8.803  20.010  54.349  1.00  0.00     0.048 C 
HETATM   33  C   UNL     1       7.737  21.979  55.489  1.00  0.00     0.007 A 
HETATM   34  C   UNL     1       7.136  23.242  55.457  1.00  0.00     0.009 A 
ENDBRANCH  27  28
ENDBRANCH  24  27
ENDBRANCH   1  23
TORSDOF 8
ENDMDL
MODEL 5
REMARK VINA RESULT:      -9.0      5.868      9.185
REMARK  8 active torsions:
REMARK  status: ('A' for Active; 'I' for Inactive)
REMARK    1  A    between atoms: C_5  and  C_6 
REMARK    2  A    between atoms: C_6  and  N_7 
REMARK       I    between atoms: N_7  and  C_8 
REMARK    3  A    between atoms: C_8  and  C_9 
REMARK    4  A    between atoms: N_12  and  C_13 
REMARK    5  A    between atoms: C_13  and  C_14 
REMARK       I    between atoms: C_14  and  N_15 
REMARK    6  A    between atoms: N_15  and  C_16 
REMARK    7  A    between atoms: C_20  and  O_21 
REMARK    8  A    between atoms: C_26  and  N_27 
ROOT
HETATM    1  C   UNL     1       6.424  27.452  56.516  1.00  0.00     0.186 A 
HETATM    2  N   UNL     1       5.086  27.119  56.447  1.00  0.00    -0.150 NA
HETATM    3  N   UNL     1       4.438  28.109  55.851  1.00  0.00     0.007 NA
HETATM    4  N   UNL     1       5.350  29.057  55.539  1.00  0.00    -0.248 N 
HETATM    5  C   UNL     1       6.610  28.701  55.946  1.00  0.00     0.151 A 
ENDROOT
BRANCH   4   6
HETATM    6  C   UNL     1       4.949  30.161  54.699  1.00  0.00     0.251 C 
BRANCH   6   7
HETATM    7  C   UNL     1       4.375  29.645  53.395  1.00  0.00     0.241 C 
HETATM    8  N   UNL     1       5.294  28.945  52.625  1.00  0.00    -0.326 N 
HETATM    9  H   UNL     1       6.242  28.889  52.994  1.00  0.00     0.169 HD
HETATM   10  O   UNL     1       3.191  29.824  53.126  1.00  0.00    -0.271 OA
BRANCH   8  11
HETATM   11  C   UNL     1       5.109  28.388  51.344  1.00  0.00     0.036 A 
HETATM   12  C   UNL     1       5.045  29.127  50.166  1.00  0.00     0.056 A 
HETATM   13  C   UNL     1       4.874  28.478  48.936  1.00  0.00     0.069 A 
HETATM   14 CL   UNL     1       4.815  29.455  47.507  1.00  0.00    -0.081 Cl
HETATM   15  C   UNL     1       4.751  27.081  48.863  1.00  0.00     0.090 A 
HETATM   16  C   UNL     1       4.823  26.345  50.047  1.00  0.00     0.041 A 
HETATM   17  C   UNL     1       5.000  26.994  51.274  1.00  0.00     0.032 A 
BRANCH  15  18
HETATM   18  O   UNL     1       4.585  26.531  47.621  1.00  0.00    -0.354 OA
HETATM   19  C   UNL     1       3.300  26.018  47.295  1.00  0.00     0.210 C 
ENDBRANCH  15  18
ENDBRANCH   8  11
ENDBRANCH   6   7
ENDBRANCH   4   6
BRANCH   5  20
HETATM   20  N   UNL     1       7.712  29.459  55.748  1.00  0.00    -0.382 N 
HETATM   21  H   UNL     1       8.013  29.810  54.841  1.00  0.00     0.157 HD
HETATM   22  H   UNL     1       8.480  29.393  56.422  1.00  0.00     0.157 HD
ENDBRANCH   5  20
BRANCH   1  23
HETATM   23  C   UNL     1       7.440  26.554  57.046  1.00  0.00     0.275 C 
HETATM   24  N   UNL     1       7.120  25.221  56.916  1.00  0.00    -0.351 N 
HETATM   25  H   UNL     1       6.264  24.992  56.424  1.00  0.00     0.163 HD
HETATM   26  O   UNL     1       8.499  26.952  57.524  1.00  0.00    -0.266 OA
BRANCH  24  27
HETATM   27  C   UNL     1       8.062  24.167  57.198  1.00  0.00     0.161 C 
BRANCH  27  28
HETATM   28  C   UNL     1       8.149  23.190  56.051  1.00  0.00    -0.041 A 
HETATM   29  C   UNL     1       8.333  21.820  56.290  1.00  0.00     0.009 A 
HETATM   30  C   UNL     1       8.400  20.913  55.231  1.00  0.00     0.007 A 
HETATM   31  C   UNL     1       8.284  21.356  53.909  1.00  0.00    -0.062 A 
HETATM   32  C   UNL     1       8.318  20.385  52.767  1.00  0.00     0.048 C 
HETATM   33  C   UNL     1       8.084  22.720  53.666  1.00  0.00     0.007 A 
HETATM   34  C   UNL     1       8.021  23.629  54.727  1.00  0.00     0.009 A 
ENDBRANCH  27  28
ENDBRANCH  24  27
ENDBRANCH   1  23
TORSDOF 8
ENDMDL
MODEL 6
REMARK VINA RESULT:      -8.9      2.076      2.712
REMARK  8 active torsions:
REMARK  status: ('A' for Active; 'I' for Inactive)
REMARK    1  A    between atoms: C_5  and  C_6 
REMARK    2  A    between atoms: C_6  and  N_7 
REMARK       I    between atoms: N_7  and  C_8 
REMARK    3  A    between atoms: C_8  and  C_9 
REMARK    4  A    between atoms: N_12  and  C_13 
REMARK    5  A    between atoms: C_13  and  C_14 
REMARK       I    between atoms: C_14  and  N_15 
REMARK    6  A    between atoms: N_15  and  C_16 
REMARK    7  A    between atoms: C_20  and  O_21 
REMARK    8  A    between atoms: C_26  and  N_27 
ROOT
HETATM    1  C   UNL     1       7.618  28.840  55.859  1.00  0.00     0.186 A 
HETATM    2  N   UNL     1       8.950  29.192  55.758  1.00  0.00    -0.150 NA
HETATM    3  N   UNL     1       9.335  29.705  56.916  1.00  0.00     0.007 NA
HETATM    4  N   UNL     1       8.269  29.675  57.746  1.00  0.00    -0.248 N 
HETATM    5  C   UNL     1       7.161  29.155  57.129  1.00  0.00     0.151 A 
ENDROOT
BRANCH   4   6
HETATM    6  C   UNL     1       8.462  29.989  59.142  1.00  0.00     0.251 C 
BRANCH   6   7
HETATM    7  C   UNL     1       8.013  31.409  59.425  1.00  0.00     0.241 C 
HETATM    8  N   UNL     1       6.842  31.481  60.166  1.00  0.00    -0.326 N 
HETATM    9  H   UNL     1       6.401  30.592  60.401  1.00  0.00     0.169 HD
HETATM   10  O   UNL     1       8.690  32.360  59.045  1.00  0.00    -0.271 OA
BRANCH   8  11
HETATM   11  C   UNL     1       6.125  32.632  60.550  1.00  0.00     0.036 A 
HETATM   12  C   UNL     1       6.342  33.337  61.731  1.00  0.00     0.056 A 
HETATM   13  C   UNL     1       5.587  34.482  62.015  1.00  0.00     0.069 A 
HETATM   14 CL   UNL     1       5.915  35.320  63.495  1.00  0.00    -0.081 Cl
HETATM   15  C   UNL     1       4.594  34.935  61.132  1.00  0.00     0.090 A 
HETATM   16  C   UNL     1       4.386  34.228  59.947  1.00  0.00     0.041 A 
HETATM   17  C   UNL     1       5.145  33.088  59.660  1.00  0.00     0.032 A 
BRANCH  15  18
HETATM   18  O   UNL     1       3.903  36.061  61.491  1.00  0.00    -0.354 OA
HETATM   19  C   UNL     1       4.248  37.279  60.843  1.00  0.00     0.210 C 
ENDBRANCH  15  18
ENDBRANCH   8  11
ENDBRANCH   6   7
ENDBRANCH   4   6
BRANCH   5  20
HETATM   20  N   UNL     1       5.962  28.996  57.732  1.00  0.00    -0.382 N 
HETATM   21  H   UNL     1       5.794  28.382  58.526  1.00  0.00     0.157 HD
HETATM   22  H   UNL     1       5.112  29.186  57.192  1.00  0.00     0.157 HD
ENDBRANCH   5  20
BRANCH   1  23
HETATM   23  C   UNL     1       6.889  28.176  54.788  1.00  0.00     0.275 C 
HETATM   24  N   UNL     1       7.655  27.287  54.067  1.00  0.00    -0.351 N 
HETATM   25  H   UNL     1       8.609  27.135  54.376  1.00  0.00     0.163 HD
HETATM   26  O   UNL     1       5.693  28.362  54.579  1.00  0.00    -0.266 OA
BRANCH  24  27
HETATM   27  C   UNL     1       7.089  26.387  53.094  1.00  0.00     0.161 C 
BRANCH  27  28
HETATM   28  C   UNL     1       7.299  24.947  53.493  1.00  0.00    -0.041 A 
HETATM   29  C   UNL     1       7.800  24.016  52.573  1.00  0.00     0.009 A 
HETATM   30  C   UNL     1       8.008  22.685  52.944  1.00  0.00     0.007 A 
HETATM   31  C   UNL     1       7.719  22.259  54.245  1.00  0.00    -0.062 A 
HETATM   32  C   UNL     1       7.974  20.842  54.663  1.00  0.00     0.048 C 
HETATM   33  C   UNL     1       7.235  23.189  55.171  1.00  0.00     0.007 A 
HETATM   34  C   UNL     1       7.023  24.520  54.798  1.00  0.00     0.009 A 
ENDBRANCH  27  28
ENDBRANCH  24  27
ENDBRANCH   1  23
TORSDOF 8
ENDMDL
MODEL 7
REMARK VINA RESULT:      -8.9      2.166      2.683
REMARK  8 active torsions:
REMARK  status: ('A' for Active; 'I' for Inactive)
REMARK    1  A    between atoms: C_5  and  C_6 
REMARK    2  A    between atoms: C_6  and  N_7 
REMARK       I    between atoms: N_7  and  C_8 
REMARK    3  A    between atoms: C_8  and  C_9 
REMARK    4  A    between atoms: N_12  and  C_13 
REMARK    5  A    between atoms: C_13  and  C_14 
REMARK       I    between atoms: C_14  and  N_15 
REMARK    6  A    between atoms: N_15  and  C_16 
REMARK    7  A    between atoms: C_20  and  O_21 
REMARK    8  A    between atoms: C_26  and  N_27 
ROOT
HETATM    1  C   UNL     1       7.200  28.924  55.799  1.00  0.00     0.186 A 
HETATM    2  N   UNL     1       7.653  28.849  57.102  1.00  0.00    -0.150 NA
HETATM    3  N   UNL     1       6.854  29.580  57.865  1.00  0.00     0.007 NA
HETATM    4  N   UNL     1       5.902  30.107  57.063  1.00  0.00    -0.248 N 
HETATM    5  C   UNL     1       6.081  29.739  55.755  1.00  0.00     0.151 A 
ENDROOT
BRANCH   4   6
HETATM    6  C   UNL     1       4.779  30.785  57.666  1.00  0.00     0.251 C 
BRANCH   6   7
HETATM    7  C   UNL     1       5.263  31.941  58.519  1.00  0.00     0.241 C 
HETATM    8  N   UNL     1       5.098  31.728  59.882  1.00  0.00    -0.326 N 
HETATM    9  H   UNL     1       4.646  30.856  60.151  1.00  0.00     0.169 HD
HETATM   10  O   UNL     1       5.782  32.922  57.997  1.00  0.00    -0.271 OA
BRANCH   8  11
HETATM   11  C   UNL     1       5.384  32.613  60.940  1.00  0.00     0.036 A 
HETATM   12  C   UNL     1       6.404  32.426  61.869  1.00  0.00     0.056 A 
HETATM   13  C   UNL     1       6.620  33.374  62.878  1.00  0.00     0.069 A 
HETATM   14 CL   UNL     1       7.913  33.087  63.994  1.00  0.00    -0.081 Cl
HETATM   15  C   UNL     1       5.813  34.518  62.984  1.00  0.00     0.090 A 
HETATM   16  C   UNL     1       4.797  34.704  62.045  1.00  0.00     0.041 A 
HETATM   17  C   UNL     1       4.586  33.760  61.034  1.00  0.00     0.032 A 
BRANCH  15  18
HETATM   18  O   UNL     1       6.094  35.390  64.001  1.00  0.00    -0.354 OA
HETATM   19  C   UNL     1       5.364  36.610  64.041  1.00  0.00     0.210 C 
ENDBRANCH  15  18
ENDBRANCH   8  11
ENDBRANCH   6   7
ENDBRANCH   4   6
BRANCH   5  20
HETATM   20  N   UNL     1       5.265  30.115  54.744  1.00  0.00    -0.382 N 
HETATM   21  H   UNL     1       4.721  29.470  54.174  1.00  0.00     0.157 HD
HETATM   22  H   UNL     1       5.449  31.004  54.269  1.00  0.00     0.157 HD
ENDBRANCH   5  20
BRANCH   1  23
HETATM   23  C   UNL     1       7.804  28.178  54.704  1.00  0.00     0.275 C 
HETATM   24  N   UNL     1       7.189  26.971  54.455  1.00  0.00    -0.351 N 
HETATM   25  H   UNL     1       6.363  26.746  54.997  1.00  0.00     0.163 HD
HETATM   26  O   UNL     1       8.744  28.608  54.042  1.00  0.00    -0.266 OA
BRANCH  24  27
HETATM   27  C   UNL     1       7.502  26.166  53.301  1.00  0.00     0.161 C 
BRANCH  27  28
HETATM   28  C   UNL     1       7.623  24.708  53.667  1.00  0.00    -0.041 A 
HETATM   29  C   UNL     1       7.479  24.290  54.998  1.00  0.00     0.009 A 
HETATM   30  C   UNL     1       7.577  22.939  55.337  1.00  0.00     0.007 A 
HETATM   31  C   UNL     1       7.820  21.976  54.352  1.00  0.00    -0.062 A 
HETATM   32  C   UNL     1       7.890  20.520  54.701  1.00  0.00     0.048 C 
HETATM   33  C   UNL     1       7.948  22.387  53.020  1.00  0.00     0.007 A 
HETATM   34  C   UNL     1       7.854  23.740  52.681  1.00  0.00     0.009 A 
ENDBRANCH  27  28
ENDBRANCH  24  27
ENDBRANCH   1  23
TORSDOF 8
ENDMDL
MODEL 8
REMARK VINA RESULT:      -8.7      6.025      9.736
REMARK  8 active torsions:
REMARK  status: ('A' for Active; 'I' for Inactive)
REMARK    1  A    between atoms: C_5  and  C_6 
REMARK    2  A    between atoms: C_6  and  N_7 
REMARK       I    between atoms: N_7  and  C_8 
REMARK    3  A    between atoms: C_8  and  C_9 
REMARK    4  A    between atoms: N_12  and  C_13 
REMARK    5  A    between atoms: C_13  and  C_14 
REMARK       I    between atoms: C_14  and  N_15 
REMARK    6  A    between atoms: N_15  and  C_16 
REMARK    7  A    between atoms: C_20  and  O_21 
REMARK    8  A    between atoms: C_26  and  N_27 
ROOT
HETATM    1  C   UNL     1       6.263  27.815  56.418  1.00  0.00     0.186 A 
HETATM    2  N   UNL     1       5.041  28.029  57.025  1.00  0.00    -0.150 NA
HETATM    3  N   UNL     1       4.322  28.825  56.247  1.00  0.00     0.007 NA
HETATM    4  N   UNL     1       5.070  29.108  55.158  1.00  0.00    -0.248 N 
HETATM    5  C   UNL     1       6.302  28.511  55.220  1.00  0.00     0.151 A 
ENDROOT
BRANCH   4   6
HETATM    6  C   UNL     1       4.454  29.795  54.048  1.00  0.00     0.251 C 
BRANCH   6   7
HETATM    7  C   UNL     1       3.953  28.794  53.026  1.00  0.00     0.241 C 
HETATM    8  N   UNL     1       3.825  29.324  51.749  1.00  0.00    -0.326 N 
HETATM    9  H   UNL     1       4.041  30.315  51.649  1.00  0.00     0.169 HD
HETATM   10  O   UNL     1       3.741  27.630  53.352  1.00  0.00    -0.271 OA
BRANCH   8  11
HETATM   11  C   UNL     1       3.336  28.690  50.590  1.00  0.00     0.036 A 
HETATM   12  C   UNL     1       4.082  27.831  49.788  1.00  0.00     0.056 A 
HETATM   13  C   UNL     1       3.498  27.236  48.662  1.00  0.00     0.069 A 
HETATM   14 CL   UNL     1       4.477  26.169  47.713  1.00  0.00    -0.081 Cl
HETATM   15  C   UNL     1       2.164  27.498  48.311  1.00  0.00     0.090 A 
HETATM   16  C   UNL     1       1.419  28.355  49.123  1.00  0.00     0.041 A 
HETATM   17  C   UNL     1       2.001  28.943  50.251  1.00  0.00     0.032 A 
BRANCH  15  18
HETATM   18  O   UNL     1       1.676  26.875  47.193  1.00  0.00    -0.354 OA
HETATM   19  C   UNL     1       0.553  27.463  46.550  1.00  0.00     0.210 C 
ENDBRANCH  15  18
ENDBRANCH   8  11
ENDBRANCH   6   7
ENDBRANCH   4   6
BRANCH   5  20
HETATM   20  N   UNL     1       7.245  28.617  54.257  1.00  0.00    -0.382 N 
HETATM   21  H   UNL     1       7.068  28.958  53.314  1.00  0.00     0.157 HD
HETATM   22  H   UNL     1       8.072  28.015  54.311  1.00  0.00     0.157 HD
ENDBRANCH   5  20
BRANCH   1  23
HETATM   23  C   UNL     1       7.277  26.923  56.965  1.00  0.00     0.275 C 
HETATM   24  N   UNL     1       7.199  25.637  56.480  1.00  0.00    -0.351 N 
HETATM   25  H   UNL     1       6.506  25.448  55.765  1.00  0.00     0.163 HD
HETATM   26  O   UNL     1       8.142  27.300  57.750  1.00  0.00    -0.266 OA
BRANCH  24  27
HETATM   27  C   UNL     1       8.215  24.649  56.741  1.00  0.00     0.161 C 
BRANCH  27  28
HETATM   28  C   UNL     1       8.192  23.554  55.703  1.00  0.00    -0.041 A 
HETATM   29  C   UNL     1       8.098  23.863  54.338  1.00  0.00     0.009 A 
HETATM   30  C   UNL     1       8.090  22.851  53.375  1.00  0.00     0.007 A 
HETATM   31  C   UNL     1       8.177  21.509  53.757  1.00  0.00    -0.062 A 
HETATM   32  C   UNL     1       8.208  20.418  52.729  1.00  0.00     0.048 C 
HETATM   33  C   UNL     1       8.289  21.196  55.117  1.00  0.00     0.007 A 
HETATM   34  C   UNL     1       8.292  22.209  56.081  1.00  0.00     0.009 A 
ENDBRANCH  27  28
ENDBRANCH  24  27
ENDBRANCH   1  23
TORSDOF 8
ENDMDL
MODEL 9
REMARK VINA RESULT:      -8.5      3.358     10.677
REMARK  8 active torsions:
REMARK  status: ('A' for Active; 'I' for Inactive)
REMARK    1  A    between atoms: C_5  and  C_6 
REMARK    2  A    between atoms: C_6  and  N_7 
REMARK       I    between atoms: N_7  and  C_8 
REMARK    3  A    between atoms: C_8  and  C_9 
REMARK    4  A    between atoms: N_12  and  C_13 
REMARK    5  A    between atoms: C_13  and  C_14 
REMARK       I    between atoms: C_14  and  N_15 
REMARK    6  A    between atoms: N_15  and  C_16 
REMARK    7  A    between atoms: C_20  and  O_21 
REMARK    8  A    between atoms: C_26  and  N_27 
ROOT
HETATM    1  C   UNL     1       7.503  30.986  59.192  1.00  0.00     0.186 A 
HETATM    2  N   UNL     1       6.185  31.390  59.113  1.00  0.00    -0.150 NA
HETATM    3  N   UNL     1       5.682  30.954  57.968  1.00  0.00     0.007 NA
HETATM    4  N   UNL     1       6.661  30.276  57.329  1.00  0.00    -0.248 N 
HETATM    5  C   UNL     1       7.829  30.278  58.046  1.00  0.00     0.151 A 
ENDROOT
BRANCH   4   6
HETATM    6  C   UNL     1       6.328  29.520  56.145  1.00  0.00     0.251 C 
BRANCH   6   7
HETATM    7  C   UNL     1       6.425  28.035  56.429  1.00  0.00     0.241 C 
HETATM    8  N   UNL     1       7.473  27.413  55.764  1.00  0.00    -0.326 N 
HETATM    9  H   UNL     1       8.026  28.002  55.142  1.00  0.00     0.169 HD
HETATM   10  O   UNL     1       5.648  27.502  57.216  1.00  0.00    -0.271 OA
BRANCH   8  11
HETATM   11  C   UNL     1       7.808  26.044  55.758  1.00  0.00     0.036 A 
HETATM   12  C   UNL     1       7.613  25.190  54.676  1.00  0.00     0.056 A 
HETATM   13  C   UNL     1       7.995  23.845  54.764  1.00  0.00     0.069 A 
HETATM   14 CL   UNL     1       7.735  22.839  53.378  1.00  0.00    -0.081 Cl
HETATM   15  C   UNL     1       8.567  23.327  55.936  1.00  0.00     0.090 A 
HETATM   16  C   UNL     1       8.767  24.190  57.016  1.00  0.00     0.041 A 
HETATM   17  C   UNL     1       8.391  25.535  56.925  1.00  0.00     0.032 A 
BRANCH  15  18
HETATM   18  O   UNL     1       8.908  22.001  55.934  1.00  0.00    -0.354 OA
HETATM   19  C   UNL     1       8.126  21.119  56.730  1.00  0.00     0.210 C 
ENDBRANCH  15  18
ENDBRANCH   8  11
ENDBRANCH   6   7
ENDBRANCH   4   6
BRANCH   5  20
HETATM   20  N   UNL     1       8.964  29.662  57.646  1.00  0.00    -0.382 N 
HETATM   21  H   UNL     1       9.817  30.148  57.376  1.00  0.00     0.157 HD
HETATM   22  H   UNL     1       8.897  28.724  57.239  1.00  0.00     0.157 HD
ENDBRANCH   5  20
BRANCH   1  23
HETATM   23  C   UNL     1       8.341  31.231  60.357  1.00  0.00     0.275 C 
HETATM   24  N   UNL     1       7.764  32.070  61.285  1.00  0.00    -0.351 N 
HETATM   25  H   UNL     1       6.816  32.381  61.108  1.00  0.00     0.163 HD
HETATM   26  O   UNL     1       9.439  30.704  60.512  1.00  0.00    -0.266 OA
BRANCH  24  27
HETATM   27  C   UNL     1       8.335  32.291  62.590  1.00  0.00     0.161 C 
BRANCH  27  28
HETATM   28  C   UNL     1       7.297  32.794  63.563  1.00  0.00    -0.041 A 
HETATM   29  C   UNL     1       5.930  32.620  63.303  1.00  0.00     0.009 A 
HETATM   30  C   UNL     1       4.968  33.072  64.209  1.00  0.00     0.007 A 
HETATM   31  C   UNL     1       5.353  33.707  65.394  1.00  0.00    -0.062 A 
HETATM   32  C   UNL     1       4.329  34.162  66.390  1.00  0.00     0.048 C 
HETATM   33  C   UNL     1       6.717  33.867  65.666  1.00  0.00     0.007 A 
HETATM   34  C   UNL     1       7.680  33.418  64.757  1.00  0.00     0.009 A 
ENDBRANCH  27  28
ENDBRANCH  24  27
ENDBRANCH   1  23
TORSDOF 8
ENDMDL
MODEL 10
REMARK VINA RESULT:      -8.5      2.602      3.474
REMARK  8 active torsions:
REMARK  status: ('A' for Active; 'I' for Inactive)
REMARK    1  A    between atoms: C_5  and  C_6 
REMARK    2  A    between atoms: C_6  and  N_7 
REMARK       I    between atoms: N_7  and  C_8 
REMARK    3  A    between atoms: C_8  and  C_9 
REMARK    4  A    between atoms: N_12  and  C_13 
REMARK    5  A    between atoms: C_13  and  C_14 
REMARK       I    between atoms: C_14  and  N_15 
REMARK    6  A    between atoms: N_15  and  C_16 
REMARK    7  A    between atoms: C_20  and  O_21 
REMARK    8  A    between atoms: C_26  and  N_27 
ROOT
HETATM    1  C   UNL     1       5.897  27.891  54.369  1.00  0.00     0.186 A 
HETATM    2  N   UNL     1       4.527  27.894  54.201  1.00  0.00    -0.150 NA
HETATM    3  N   UNL     1       4.033  28.959  54.813  1.00  0.00     0.007 NA
HETATM    4  N   UNL     1       5.072  29.630  55.357  1.00  0.00    -0.248 N 
HETATM    5  C   UNL     1       6.264  28.995  55.121  1.00  0.00     0.151 A 
ENDROOT
BRANCH   4   6
HETATM    6  C   UNL     1       4.842  30.942  55.913  1.00  0.00     0.251 C 
BRANCH   6   7
HETATM    7  C   UNL     1       5.095  30.928  57.408  1.00  0.00     0.241 C 
HETATM    8  N   UNL     1       5.822  32.023  57.855  1.00  0.00    -0.326 N 
HETATM    9  H   UNL     1       6.131  32.682  57.141  1.00  0.00     0.169 HD
HETATM   10  O   UNL     1       4.636  30.029  58.106  1.00  0.00    -0.271 OA
BRANCH   8  11
HETATM   11  C   UNL     1       6.276  32.289  59.162  1.00  0.00     0.036 A 
HETATM   12  C   UNL     1       7.541  31.955  59.639  1.00  0.00     0.056 A 
HETATM   13  C   UNL     1       7.906  32.277  60.952  1.00  0.00     0.069 A 
HETATM   14 CL   UNL     1       9.498  31.844  61.479  1.00  0.00    -0.081 Cl
HETATM   15  C   UNL     1       7.010  32.926  61.816  1.00  0.00     0.090 A 
HETATM   16  C   UNL     1       5.745  33.265  61.330  1.00  0.00     0.041 A 
HETATM   17  C   UNL     1       5.385  32.949  60.016  1.00  0.00     0.032 A 
BRANCH  15  18
HETATM   18  O   UNL     1       7.449  33.201  63.084  1.00  0.00    -0.354 OA
HETATM   19  C   UNL     1       6.523  33.038  64.150  1.00  0.00     0.210 C 
ENDBRANCH  15  18
ENDBRANCH   8  11
ENDBRANCH   6   7
ENDBRANCH   4   6
BRANCH   5  20
HETATM   20  N   UNL     1       7.464  29.456  55.542  1.00  0.00    -0.382 N 
HETATM   21  H   UNL     1       8.361  29.067  55.257  1.00  0.00     0.157 HD
HETATM   22  H   UNL     1       7.513  29.950  56.437  1.00  0.00     0.157 HD
ENDBRANCH   5  20
BRANCH   1  23
HETATM   23  C   UNL     1       6.771  26.896  53.761  1.00  0.00     0.275 C 
HETATM   24  N   UNL     1       6.120  25.736  53.405  1.00  0.00    -0.351 N 
HETATM   25  H   UNL     1       5.116  25.703  53.537  1.00  0.00     0.163 HD
HETATM   26  O   UNL     1       7.964  27.096  53.550  1.00  0.00    -0.266 OA
BRANCH  24  27
HETATM   27  C   UNL     1       6.751  24.705  52.620  1.00  0.00     0.161 C 
BRANCH  27  28
HETATM   28  C   UNL     1       7.193  23.551  53.486  1.00  0.00    -0.041 A 
HETATM   29  C   UNL     1       7.059  23.612  54.881  1.00  0.00     0.009 A 
HETATM   30  C   UNL     1       7.455  22.539  55.684  1.00  0.00     0.007 A 
HETATM   31  C   UNL     1       7.993  21.384  55.108  1.00  0.00    -0.062 A 
HETATM   32  C   UNL     1       8.386  20.213  55.959  1.00  0.00     0.048 C 
HETATM   33  C   UNL     1       8.113  21.312  53.716  1.00  0.00     0.007 A 
HETATM   34  C   UNL     1       7.721  22.387  52.912  1.00  0.00     0.009 A 
ENDBRANCH  27  28
ENDBRANCH  24  27
ENDBRANCH   1  23
TORSDOF 8
ENDMDL
