MODEL 1
REMARK VINA RESULT:      -7.7      0.000      0.000
REMARK  5 active torsions:
REMARK  status: ('A' for Active; 'I' for Inactive)
REMARK    1  A    between atoms: C_2  and  O_3 
REMARK    2  A    between atoms: O_3  and  C_4 
REMARK    3  A    between atoms: C_9  and  C_10 
REMARK       I    between atoms: C_10  and  N_11 
REMARK    4  A    between atoms: N_11  and  C_12 
REMARK    5  A    between atoms: C_12  and  C_13 
ROOT
HETATM    1  C   UNL     1       7.450  24.479  53.433  1.00  0.00     0.256 C 
HETATM    2  N   UNL     1       6.476  25.222  54.053  1.00  0.00    -0.348 N 
HETATM    3  O   UNL     1       8.163  24.940  52.547  1.00  0.00    -0.267 OA
HETATM    4  H   UNL     1       5.919  24.788  54.782  1.00  0.00     0.163 HD
ENDROOT
BRANCH   1   5
HETATM    5  C   UNL     1       7.631  23.064  53.870  1.00  0.00     0.084 A 
HETATM    6  C   UNL     1       7.600  22.618  55.194  1.00  0.00     0.180 A 
HETATM    7  N   UNL     1       7.772  21.320  55.553  1.00  0.00    -0.236 NA
HETATM    8  C   UNL     1       7.992  20.427  54.564  1.00  0.00     0.119 A 
HETATM    9  C   UNL     1       8.047  20.765  53.225  1.00  0.00     0.020 A 
HETATM   10  C   UNL     1       7.864  22.100  52.878  1.00  0.00     0.023 A 
BRANCH   6  11
HETATM   11  O   UNL     1       7.365  23.537  56.200  1.00  0.00    -0.334 OA
BRANCH  11  12
HETATM   12  C   UNL     1       8.498  23.797  57.032  1.00  0.00     0.173 C 
HETATM   13  C   UNL     1       8.501  25.281  57.351  1.00  0.00     0.034 C 
ENDBRANCH  11  12
ENDBRANCH   6  11
ENDBRANCH   1   5
BRANCH   2  14
HETATM   14  C   UNL     1       6.210  26.612  53.730  1.00  0.00     0.114 C 
HETATM   15  C   UNL     1       4.756  26.818  53.295  1.00  0.00     0.037 C 
BRANCH  14  16
HETATM   16  C   UNL     1       6.599  27.479  54.916  1.00  0.00    -0.036 A 
HETATM   17  C   UNL     1       5.822  27.526  56.087  1.00  0.00     0.010 A 
HETATM   18  C   UNL     1       6.221  28.300  57.179  1.00  0.00     0.019 A 
HETATM   19  C   UNL     1       7.407  29.026  57.115  1.00  0.00     0.011 A 
HETATM   20 BR   UNL     1       7.951  30.067  58.596  1.00  0.00    -0.051 Br
HETATM   21  C   UNL     1       8.199  28.984  55.971  1.00  0.00     0.019 A 
HETATM   22  C   UNL     1       7.798  28.210  54.879  1.00  0.00     0.010 A 
ENDBRANCH  14  16
ENDBRANCH   2  14
TORSDOF 5
ENDMDL
MODEL 2
REMARK VINA RESULT:      -7.1      6.008      8.887
REMARK  5 active torsions:
REMARK  status: ('A' for Active; 'I' for Inactive)
REMARK    1  A    between atoms: C_2  and  O_3 
REMARK    2  A    between atoms: O_3  and  C_4 
REMARK    3  A    between atoms: C_9  and  C_10 
REMARK       I    between atoms: C_10  and  N_11 
REMARK    4  A    between atoms: N_11  and  C_12 
REMARK    5  A    between atoms: C_12  and  C_13 
ROOT
HETATM    1  C   UNL     1       7.908  31.448  59.483  1.00  0.00     0.256 C 
HETATM    2  N   UNL     1       7.891  30.703  60.636  1.00  0.00    -0.348 N 
HETATM    3  O   UNL     1       8.485  32.528  59.406  1.00  0.00    -0.267 OA
HETATM    4  H   UNL     1       7.400  29.815  60.638  1.00  0.00     0.163 HD
ENDROOT
BRANCH   1   5
HETATM    5  C   UNL     1       7.194  30.902  58.291  1.00  0.00     0.084 A 
HETATM    6  C   UNL     1       7.573  29.765  57.574  1.00  0.00     0.180 A 
HETATM    7  N   UNL     1       6.898  29.301  56.491  1.00  0.00    -0.236 NA
HETATM    8  C   UNL     1       5.808  29.993  56.096  1.00  0.00     0.119 A 
HETATM    9  C   UNL     1       5.352  31.132  56.732  1.00  0.00     0.020 A 
HETATM   10  C   UNL     1       6.056  31.590  57.843  1.00  0.00     0.023 A 
BRANCH   6  11
HETATM   11  O   UNL     1       8.686  29.057  57.989  1.00  0.00    -0.334 OA
BRANCH  11  12
HETATM   12  C   UNL     1       9.744  29.013  57.030  1.00  0.00     0.173 C 
HETATM   13  C   UNL     1      10.742  30.096  57.399  1.00  0.00     0.034 C 
ENDBRANCH  11  12
ENDBRANCH   6  11
ENDBRANCH   1   5
BRANCH   2  14
HETATM   14  C   UNL     1       8.559  31.115  61.857  1.00  0.00     0.114 C 
HETATM   15  C   UNL     1       9.827  31.922  61.557  1.00  0.00     0.037 C 
BRANCH  14  16
HETATM   16  C   UNL     1       7.572  31.872  62.731  1.00  0.00    -0.036 A 
HETATM   17  C   UNL     1       6.183  31.697  62.604  1.00  0.00     0.010 A 
HETATM   18  C   UNL     1       5.298  32.374  63.446  1.00  0.00     0.019 A 
HETATM   19  C   UNL     1       5.794  33.226  64.429  1.00  0.00     0.011 A 
HETATM   20 BR   UNL     1       4.596  34.136  65.574  1.00  0.00    -0.051 Br
HETATM   21  C   UNL     1       7.166  33.404  64.581  1.00  0.00     0.019 A 
HETATM   22  C   UNL     1       8.050  32.727  63.738  1.00  0.00     0.010 A 
ENDBRANCH  14  16
ENDBRANCH   2  14
TORSDOF 5
ENDMDL
MODEL 3
REMARK VINA RESULT:      -7.0      3.390      6.747
REMARK  5 active torsions:
REMARK  status: ('A' for Active; 'I' for Inactive)
REMARK    1  A    between atoms: C_2  and  O_3 
REMARK    2  A    between atoms: O_3  and  C_4 
REMARK    3  A    between atoms: C_9  and  C_10 
REMARK       I    between atoms: C_10  and  N_11 
REMARK    4  A    between atoms: N_11  and  C_12 
REMARK    5  A    between atoms: C_12  and  C_13 
ROOT
HETATM    1  C   UNL     1       6.495  27.861  54.738  1.00  0.00     0.256 C 
HETATM    2  N   UNL     1       6.369  26.527  55.034  1.00  0.00    -0.348 N 
HETATM    3  O   UNL     1       7.436  28.538  55.141  1.00  0.00    -0.267 OA
HETATM    4  H   UNL     1       5.570  26.018  54.670  1.00  0.00     0.163 HD
ENDROOT
BRANCH   1   5
HETATM    5  C   UNL     1       5.438  28.490  53.892  1.00  0.00     0.084 A 
HETATM    6  C   UNL     1       5.183  28.176  52.555  1.00  0.00     0.180 A 
HETATM    7  N   UNL     1       4.212  28.773  51.816  1.00  0.00    -0.236 NA
HETATM    8  C   UNL     1       3.469  29.724  52.421  1.00  0.00     0.119 A 
HETATM    9  C   UNL     1       3.643  30.111  53.736  1.00  0.00     0.020 A 
HETATM   10  C   UNL     1       4.641  29.485  54.478  1.00  0.00     0.023 A 
BRANCH   6  11
HETATM   11  O   UNL     1       5.942  27.196  51.944  1.00  0.00    -0.334 OA
BRANCH  11  12
HETATM   12  C   UNL     1       5.181  26.250  51.190  1.00  0.00     0.173 C 
HETATM   13  C   UNL     1       4.889  25.069  52.099  1.00  0.00     0.034 C 
ENDBRANCH  11  12
ENDBRANCH   6  11
ENDBRANCH   1   5
BRANCH   2  14
HETATM   14  C   UNL     1       7.336  25.796  55.833  1.00  0.00     0.114 C 
HETATM   15  C   UNL     1       6.857  25.632  57.279  1.00  0.00     0.037 C 
BRANCH  14  16
HETATM   16  C   UNL     1       7.634  24.467  55.157  1.00  0.00    -0.036 A 
HETATM   17  C   UNL     1       7.566  23.249  55.853  1.00  0.00     0.010 A 
HETATM   18  C   UNL     1       7.805  22.038  55.200  1.00  0.00     0.019 A 
HETATM   19  C   UNL     1       8.106  22.034  53.840  1.00  0.00     0.011 A 
HETATM   20 BR   UNL     1       8.423  20.394  52.954  1.00  0.00    -0.051 Br
HETATM   21  C   UNL     1       8.166  23.227  53.128  1.00  0.00     0.019 A 
HETATM   22  C   UNL     1       7.927  24.438  53.783  1.00  0.00     0.010 A 
ENDBRANCH  14  16
ENDBRANCH   2  14
TORSDOF 5
ENDMDL
MODEL 4
REMARK VINA RESULT:      -7.0      1.736      2.095
REMARK  5 active torsions:
REMARK  status: ('A' for Active; 'I' for Inactive)
REMARK    1  A    between atoms: C_2  and  O_3 
REMARK    2  A    between atoms: O_3  and  C_4 
REMARK    3  A    between atoms: C_9  and  C_10 
REMARK       I    between atoms: C_10  and  N_11 
REMARK    4  A    between atoms: N_11  and  C_12 
REMARK    5  A    between atoms: C_12  and  C_13 
ROOT
HETATM    1  C   UNL     1       7.390  24.168  52.932  1.00  0.00     0.256 C 
HETATM    2  N   UNL     1       6.209  24.841  53.124  1.00  0.00    -0.348 N 
HETATM    3  O   UNL     1       8.270  24.585  52.183  1.00  0.00    -0.267 OA
HETATM    4  H   UNL     1       5.521  24.449  53.758  1.00  0.00     0.163 HD
ENDROOT
BRANCH   1   5
HETATM    5  C   UNL     1       7.592  22.888  53.672  1.00  0.00     0.084 A 
HETATM    6  C   UNL     1       7.493  22.732  55.057  1.00  0.00     0.180 A 
HETATM    7  N   UNL     1       7.686  21.549  55.695  1.00  0.00    -0.236 NA
HETATM    8  C   UNL     1       7.997  20.478  54.934  1.00  0.00     0.119 A 
HETATM    9  C   UNL     1       8.123  20.526  53.559  1.00  0.00     0.020 A 
HETATM   10  C   UNL     1       7.918  21.748  52.923  1.00  0.00     0.023 A 
BRANCH   6  11
HETATM   11  O   UNL     1       7.166  23.832  55.828  1.00  0.00    -0.334 OA
BRANCH  11  12
HETATM   12  C   UNL     1       8.008  24.020  56.968  1.00  0.00     0.173 C 
HETATM   13  C   UNL     1       8.179  25.515  57.169  1.00  0.00     0.034 C 
ENDBRANCH  11  12
ENDBRANCH   6  11
ENDBRANCH   1   5
BRANCH   2  14
HETATM   14  C   UNL     1       5.899  26.102  52.476  1.00  0.00     0.114 C 
HETATM   15  C   UNL     1       5.003  25.896  51.251  1.00  0.00     0.037 C 
BRANCH  14  16
HETATM   16  C   UNL     1       5.290  27.048  53.499  1.00  0.00    -0.036 A 
HETATM   17  C   UNL     1       5.484  26.872  54.880  1.00  0.00     0.010 A 
HETATM   18  C   UNL     1       4.946  27.777  55.798  1.00  0.00     0.019 A 
HETATM   19  C   UNL     1       4.219  28.873  55.343  1.00  0.00     0.011 A 
HETATM   20 BR   UNL     1       3.498  30.103  56.585  1.00  0.00    -0.051 Br
HETATM   21  C   UNL     1       4.025  29.074  53.980  1.00  0.00     0.019 A 
HETATM   22  C   UNL     1       4.563  28.168  53.063  1.00  0.00     0.010 A 
ENDBRANCH  14  16
ENDBRANCH   2  14
TORSDOF 5
ENDMDL
MODEL 5
REMARK VINA RESULT:      -7.0      3.302      6.337
REMARK  5 active torsions:
REMARK  status: ('A' for Active; 'I' for Inactive)
REMARK    1  A    between atoms: C_2  and  O_3 
REMARK    2  A    between atoms: O_3  and  C_4 
REMARK    3  A    between atoms: C_9  and  C_10 
REMARK       I    between atoms: C_10  and  N_11 
REMARK    4  A    between atoms: N_11  and  C_12 
REMARK    5  A    between atoms: C_12  and  C_13 
ROOT
HETATM    1  C   UNL     1       5.852  28.186  55.890  1.00  0.00     0.256 C 
HETATM    2  N   UNL     1       6.536  27.771  54.774  1.00  0.00    -0.348 N 
HETATM    3  O   UNL     1       4.647  27.998  56.030  1.00  0.00    -0.267 OA
HETATM    4  H   UNL     1       7.533  27.952  54.715  1.00  0.00     0.163 HD
ENDROOT
BRANCH   1   5
HETATM    5  C   UNL     1       6.623  28.887  56.959  1.00  0.00     0.084 A 
HETATM    6  C   UNL     1       7.788  28.406  57.561  1.00  0.00     0.180 A 
HETATM    7  N   UNL     1       8.461  29.072  58.534  1.00  0.00    -0.236 NA
HETATM    8  C   UNL     1       7.957  30.259  58.934  1.00  0.00     0.119 A 
HETATM    9  C   UNL     1       6.810  30.821  58.407  1.00  0.00     0.020 A 
HETATM   10  C   UNL     1       6.137  30.124  57.408  1.00  0.00     0.023 A 
BRANCH   6  11
HETATM   11  O   UNL     1       8.303  27.193  57.140  1.00  0.00    -0.334 OA
BRANCH  11  12
HETATM   12  C   UNL     1       7.774  26.060  57.831  1.00  0.00     0.173 C 
HETATM   13  C   UNL     1       8.618  24.856  57.451  1.00  0.00     0.034 C 
ENDBRANCH  11  12
ENDBRANCH   6  11
ENDBRANCH   1   5
BRANCH   2  14
HETATM   14  C   UNL     1       5.905  27.067  53.673  1.00  0.00     0.114 C 
HETATM   15  C   UNL     1       5.989  27.872  52.372  1.00  0.00     0.037 C 
BRANCH  14  16
HETATM   16  C   UNL     1       6.525  25.684  53.550  1.00  0.00    -0.036 A 
HETATM   17  C   UNL     1       7.364  25.339  52.477  1.00  0.00     0.010 A 
HETATM   18  C   UNL     1       7.953  24.074  52.407  1.00  0.00     0.019 A 
HETATM   19  C   UNL     1       7.716  23.146  53.417  1.00  0.00     0.011 A 
HETATM   20 BR   UNL     1       8.520  21.437  53.328  1.00  0.00    -0.051 Br
HETATM   21  C   UNL     1       6.900  23.470  54.496  1.00  0.00     0.019 A 
HETATM   22  C   UNL     1       6.311  24.735  54.564  1.00  0.00     0.010 A 
ENDBRANCH  14  16
ENDBRANCH   2  14
TORSDOF 5
ENDMDL
MODEL 6
REMARK VINA RESULT:      -6.8      6.292      9.215
REMARK  5 active torsions:
REMARK  status: ('A' for Active; 'I' for Inactive)
REMARK    1  A    between atoms: C_2  and  O_3 
REMARK    2  A    between atoms: O_3  and  C_4 
REMARK    3  A    between atoms: C_9  and  C_10 
REMARK       I    between atoms: C_10  and  N_11 
REMARK    4  A    between atoms: N_11  and  C_12 
REMARK    5  A    between atoms: C_12  and  C_13 
ROOT
HETATM    1  C   UNL     1       7.902  30.419  59.353  1.00  0.00     0.256 C 
HETATM    2  N   UNL     1       7.490  31.136  60.449  1.00  0.00    -0.348 N 
HETATM    3  O   UNL     1       8.987  29.844  59.313  1.00  0.00    -0.267 OA
HETATM    4  H   UNL     1       6.581  31.587  60.425  1.00  0.00     0.163 HD
ENDROOT
BRANCH   1   5
HETATM    5  C   UNL     1       6.982  30.348  58.180  1.00  0.00     0.084 A 
HETATM    6  C   UNL     1       6.204  31.404  57.699  1.00  0.00     0.180 A 
HETATM    7  N   UNL     1       5.375  31.299  56.628  1.00  0.00    -0.236 NA
HETATM    8  C   UNL     1       5.308  30.099  56.012  1.00  0.00     0.119 A 
HETATM    9  C   UNL     1       6.032  28.992  56.410  1.00  0.00     0.020 A 
HETATM   10  C   UNL     1       6.878  29.121  57.508  1.00  0.00     0.023 A 
BRANCH   6  11
HETATM   11  O   UNL     1       6.285  32.631  58.330  1.00  0.00    -0.334 OA
BRANCH  11  12
HETATM   12  C   UNL     1       5.033  33.310  58.454  1.00  0.00     0.173 C 
HETATM   13  C   UNL     1       4.311  32.725  59.654  1.00  0.00     0.034 C 
ENDBRANCH  11  12
ENDBRANCH   6  11
ENDBRANCH   1   5
BRANCH   2  14
HETATM   14  C   UNL     1       8.285  31.268  61.656  1.00  0.00     0.114 C 
HETATM   15  C   UNL     1       9.602  32.000  61.382  1.00  0.00     0.037 C 
BRANCH  14  16
HETATM   16  C   UNL     1       7.446  31.945  62.729  1.00  0.00    -0.036 A 
HETATM   17  C   UNL     1       8.026  32.744  63.729  1.00  0.00     0.010 A 
HETATM   18  C   UNL     1       7.231  33.388  64.680  1.00  0.00     0.019 A 
HETATM   19  C   UNL     1       5.847  33.247  64.633  1.00  0.00     0.011 A 
HETATM   20 BR   UNL     1       4.770  34.125  65.915  1.00  0.00    -0.051 Br
HETATM   21  C   UNL     1       5.250  32.471  63.644  1.00  0.00     0.019 A 
HETATM   22  C   UNL     1       6.047  31.827  62.693  1.00  0.00     0.010 A 
ENDBRANCH  14  16
ENDBRANCH   2  14
TORSDOF 5
ENDMDL
MODEL 7
REMARK VINA RESULT:      -6.7      3.067      4.201
REMARK  5 active torsions:
REMARK  status: ('A' for Active; 'I' for Inactive)
REMARK    1  A    between atoms: C_2  and  O_3 
REMARK    2  A    between atoms: O_3  and  C_4 
REMARK    3  A    between atoms: C_9  and  C_10 
REMARK       I    between atoms: C_10  and  N_11 
REMARK    4  A    between atoms: N_11  and  C_12 
REMARK    5  A    between atoms: C_12  and  C_13 
ROOT
HETATM    1  C   UNL     1       6.590  24.712  54.344  1.00  0.00     0.256 C 
HETATM    2  N   UNL     1       7.164  25.764  53.674  1.00  0.00    -0.348 N 
HETATM    3  O   UNL     1       5.510  24.810  54.919  1.00  0.00    -0.267 OA
HETATM    4  H   UNL     1       8.057  25.622  53.214  1.00  0.00     0.163 HD
ENDROOT
BRANCH   1   5
HETATM    5  C   UNL     1       7.322  23.411  54.357  1.00  0.00     0.084 A 
HETATM    6  C   UNL     1       7.875  22.808  55.490  1.00  0.00     0.180 A 
HETATM    7  N   UNL     1       8.537  21.622  55.461  1.00  0.00    -0.236 NA
HETATM    8  C   UNL     1       8.663  21.012  54.264  1.00  0.00     0.119 A 
HETATM    9  C   UNL     1       8.157  21.525  53.085  1.00  0.00     0.020 A 
HETATM   10  C   UNL     1       7.479  22.740  53.135  1.00  0.00     0.023 A 
BRANCH   6  11
HETATM   11  O   UNL     1       7.734  23.435  56.714  1.00  0.00    -0.334 OA
BRANCH  11  12
HETATM   12  C   UNL     1       8.871  24.202  57.114  1.00  0.00     0.173 C 
HETATM   13  C   UNL     1       8.397  25.620  57.381  1.00  0.00     0.034 C 
ENDBRANCH  11  12
ENDBRANCH   6  11
ENDBRANCH   1   5
BRANCH   2  14
HETATM   14  C   UNL     1       6.547  27.073  53.574  1.00  0.00     0.114 C 
HETATM   15  C   UNL     1       7.545  28.189  53.899  1.00  0.00     0.037 C 
BRANCH  14  16
HETATM   16  C   UNL     1       5.924  27.223  52.195  1.00  0.00    -0.036 A 
HETATM   17  C   UNL     1       5.567  26.109  51.417  1.00  0.00     0.010 A 
HETATM   18  C   UNL     1       4.960  26.273  50.170  1.00  0.00     0.019 A 
HETATM   19  C   UNL     1       4.694  27.553  49.694  1.00  0.00     0.011 A 
HETATM   20 BR   UNL     1       3.865  27.775  48.009  1.00  0.00    -0.051 Br
HETATM   21  C   UNL     1       5.027  28.671  50.453  1.00  0.00     0.019 A 
HETATM   22  C   UNL     1       5.635  28.506  51.700  1.00  0.00     0.010 A 
ENDBRANCH  14  16
ENDBRANCH   2  14
TORSDOF 5
ENDMDL
MODEL 8
REMARK VINA RESULT:      -6.7      4.865      7.561
REMARK  5 active torsions:
REMARK  status: ('A' for Active; 'I' for Inactive)
REMARK    1  A    between atoms: C_2  and  O_3 
REMARK    2  A    between atoms: O_3  and  C_4 
REMARK    3  A    between atoms: C_9  and  C_10 
REMARK       I    between atoms: C_10  and  N_11 
REMARK    4  A    between atoms: N_11  and  C_12 
REMARK    5  A    between atoms: C_12  and  C_13 
ROOT
HETATM    1  C   UNL     1       4.755  27.405  50.145  1.00  0.00     0.256 C 
HETATM    2  N   UNL     1       4.560  26.780  51.351  1.00  0.00    -0.348 N 
HETATM    3  O   UNL     1       5.621  28.261  49.980  1.00  0.00    -0.267 OA
HETATM    4  H   UNL     1       3.831  26.078  51.427  1.00  0.00     0.163 HD
ENDROOT
BRANCH   1   5
HETATM    5  C   UNL     1       3.874  27.013  49.006  1.00  0.00     0.084 A 
HETATM    6  C   UNL     1       3.056  27.884  48.282  1.00  0.00     0.180 A 
HETATM    7  N   UNL     1       2.266  27.488  47.251  1.00  0.00    -0.236 NA
HETATM    8  C   UNL     1       2.278  26.177  46.928  1.00  0.00     0.119 A 
HETATM    9  C   UNL     1       3.047  25.234  47.583  1.00  0.00     0.020 A 
HETATM   10  C   UNL     1       3.854  25.661  48.635  1.00  0.00     0.023 A 
BRANCH   6  11
HETATM   11  O   UNL     1       3.055  29.226  48.612  1.00  0.00    -0.334 OA
BRANCH  11  12
HETATM   12  C   UNL     1       1.773  29.737  48.983  1.00  0.00     0.173 C 
HETATM   13  C   UNL     1       1.458  29.217  50.375  1.00  0.00     0.034 C 
ENDBRANCH  11  12
ENDBRANCH   6  11
ENDBRANCH   1   5
BRANCH   2  14
HETATM   14  C   UNL     1       5.360  27.061  52.530  1.00  0.00     0.114 C 
HETATM   15  C   UNL     1       4.492  27.558  53.690  1.00  0.00     0.037 C 
BRANCH  14  16
HETATM   16  C   UNL     1       6.167  25.823  52.887  1.00  0.00    -0.036 A 
HETATM   17  C   UNL     1       5.908  25.078  54.050  1.00  0.00     0.010 A 
HETATM   18  C   UNL     1       6.637  23.922  54.336  1.00  0.00     0.019 A 
HETATM   19  C   UNL     1       7.626  23.493  53.455  1.00  0.00     0.011 A 
HETATM   20 BR   UNL     1       8.608  21.924  53.837  1.00  0.00    -0.051 Br
HETATM   21  C   UNL     1       7.891  24.207  52.290  1.00  0.00     0.019 A 
HETATM   22  C   UNL     1       7.161  25.364  52.006  1.00  0.00     0.010 A 
ENDBRANCH  14  16
ENDBRANCH   2  14
TORSDOF 5
ENDMDL
MODEL 9
REMARK VINA RESULT:      -6.6      4.017      6.793
REMARK  5 active torsions:
REMARK  status: ('A' for Active; 'I' for Inactive)
REMARK    1  A    between atoms: C_2  and  O_3 
REMARK    2  A    between atoms: O_3  and  C_4 
REMARK    3  A    between atoms: C_9  and  C_10 
REMARK       I    between atoms: C_10  and  N_11 
REMARK    4  A    between atoms: N_11  and  C_12 
REMARK    5  A    between atoms: C_12  and  C_13 
ROOT
HETATM    1  C   UNL     1       7.530  28.889  57.767  1.00  0.00     0.256 C 
HETATM    2  N   UNL     1       8.059  30.137  57.985  1.00  0.00    -0.348 N 
HETATM    3  O   UNL     1       8.020  27.874  58.253  1.00  0.00    -0.267 OA
HETATM    4  H   UNL     1       7.608  30.941  57.559  1.00  0.00     0.163 HD
ENDROOT
BRANCH   1   5
HETATM    5  C   UNL     1       6.314  28.787  56.908  1.00  0.00     0.084 A 
HETATM    6  C   UNL     1       6.195  27.987  55.769  1.00  0.00     0.180 A 
HETATM    7  N   UNL     1       5.070  27.923  55.011  1.00  0.00    -0.236 NA
HETATM    8  C   UNL     1       4.023  28.686  55.390  1.00  0.00     0.119 A 
HETATM    9  C   UNL     1       4.039  29.514  56.496  1.00  0.00     0.020 A 
HETATM   10  C   UNL     1       5.200  29.563  57.262  1.00  0.00     0.023 A 
BRANCH   6  11
HETATM   11  O   UNL     1       7.269  27.202  55.392  1.00  0.00    -0.334 OA
BRANCH  11  12
HETATM   12  C   UNL     1       6.924  25.853  55.070  1.00  0.00     0.173 C 
HETATM   13  C   UNL     1       6.840  25.079  56.374  1.00  0.00     0.034 C 
ENDBRANCH  11  12
ENDBRANCH   6  11
ENDBRANCH   1   5
BRANCH   2  14
HETATM   14  C   UNL     1       9.228  30.372  58.812  1.00  0.00     0.114 C 
HETATM   15  C   UNL     1      10.278  31.206  58.073  1.00  0.00     0.037 C 
BRANCH  14  16
HETATM   16  C   UNL     1       8.788  31.004  60.123  1.00  0.00    -0.036 A 
HETATM   17  C   UNL     1       9.098  30.426  61.366  1.00  0.00     0.010 A 
HETATM   18  C   UNL     1       8.717  31.047  62.558  1.00  0.00     0.019 A 
HETATM   19  C   UNL     1       8.032  32.258  62.518  1.00  0.00     0.011 A 
HETATM   20 BR   UNL     1       7.523  33.102  64.131  1.00  0.00    -0.051 Br
HETATM   21  C   UNL     1       7.726  32.855  61.299  1.00  0.00     0.019 A 
HETATM   22  C   UNL     1       8.107  32.232  60.107  1.00  0.00     0.010 A 
ENDBRANCH  14  16
ENDBRANCH   2  14
TORSDOF 5
ENDMDL
MODEL 10
REMARK VINA RESULT:      -6.6      3.201      6.315
REMARK  5 active torsions:
REMARK  status: ('A' for Active; 'I' for Inactive)
REMARK    1  A    between atoms: C_2  and  O_3 
REMARK    2  A    between atoms: O_3  and  C_4 
REMARK    3  A    between atoms: C_9  and  C_10 
REMARK       I    between atoms: C_10  and  N_11 
REMARK    4  A    between atoms: N_11  and  C_12 
REMARK    5  A    between atoms: C_12  and  C_13 
ROOT
HETATM    1  C   UNL     1       5.056  27.406  53.864  1.00  0.00     0.256 C 
HETATM    2  N   UNL     1       6.090  26.521  53.685  1.00  0.00    -0.348 N 
HETATM    3  O   UNL     1       3.966  27.262  53.317  1.00  0.00    -0.267 OA
HETATM    4  H   UNL     1       6.967  26.691  54.166  1.00  0.00     0.163 HD
ENDROOT
BRANCH   1   5
HETATM    5  C   UNL     1       5.286  28.577  54.761  1.00  0.00     0.084 A 
HETATM    6  C   UNL     1       6.191  28.612  55.824  1.00  0.00     0.180 A 
HETATM    7  N   UNL     1       6.371  29.697  56.621  1.00  0.00    -0.236 NA
HETATM    8  C   UNL     1       5.621  30.789  56.360  1.00  0.00     0.119 A 
HETATM    9  C   UNL     1       4.695  30.856  55.336  1.00  0.00     0.020 A 
HETATM   10  C   UNL     1       4.528  29.734  54.528  1.00  0.00     0.023 A 
BRANCH   6  11
HETATM   11  O   UNL     1       6.961  27.493  56.080  1.00  0.00    -0.334 OA
BRANCH  11  12
HETATM   12  C   UNL     1       7.200  27.251  57.469  1.00  0.00     0.173 C 
HETATM   13  C   UNL     1       8.130  26.055  57.571  1.00  0.00     0.034 C 
ENDBRANCH  11  12
ENDBRANCH   6  11
ENDBRANCH   1   5
BRANCH   2  14
HETATM   14  C   UNL     1       5.988  25.337  52.852  1.00  0.00     0.114 C 
HETATM   15  C   UNL     1       6.502  25.604  51.434  1.00  0.00     0.037 C 
BRANCH  14  16
HETATM   16  C   UNL     1       6.711  24.187  53.535  1.00  0.00    -0.036 A 
HETATM   17  C   UNL     1       7.479  23.260  52.810  1.00  0.00     0.010 A 
HETATM   18  C   UNL     1       8.166  22.235  53.465  1.00  0.00     0.019 A 
HETATM   19  C   UNL     1       8.100  22.135  54.852  1.00  0.00     0.011 A 
HETATM   20 BR   UNL     1       9.037  20.753  55.739  1.00  0.00    -0.051 Br
HETATM   21  C   UNL     1       7.356  23.050  55.591  1.00  0.00     0.019 A 
HETATM   22  C   UNL     1       6.669  24.074  54.934  1.00  0.00     0.010 A 
ENDBRANCH  14  16
ENDBRANCH   2  14
TORSDOF 5
ENDMDL
