MODEL 1
REMARK VINA RESULT:      -8.4      0.000      0.000
REMARK  7 active torsions:
REMARK  status: ('A' for Active; 'I' for Inactive)
REMARK    1  A    between atoms: C_2  and  C_3 
REMARK    2  A    between atoms: C_3  and  C_4 
REMARK    3  A    between atoms: C_5  and  O_6 
REMARK    4  A    between atoms: O_6  and  C_7 
REMARK    5  A    between atoms: C_7  and  C_8 
REMARK       I    between atoms: C_8  and  N_9 
REMARK    6  A    between atoms: N_9  and  C_10 
REMARK    7  A    between atoms: C_17  and  C_18 
REMARK       I    between atoms: C_18  and  N_19 
ROOT
HETATM    1  C   UNL     1       5.274  26.639  52.052  1.00  0.00     0.246 C 
HETATM    2  N   UNL     1       5.908  27.798  52.412  1.00  0.00    -0.325 N 
HETATM    3  O   UNL     1       5.310  26.324  50.859  1.00  0.00    -0.271 OA
HETATM    4  H   UNL     1       6.132  28.363  51.599  1.00  0.00     0.169 HD
ENDROOT
BRANCH   2   5
HETATM    5  C   UNL     1       6.334  28.285  53.655  1.00  0.00     0.035 A 
HETATM    6  C   UNL     1       5.473  28.903  54.570  1.00  0.00     0.046 A 
HETATM    7  C   UNL     1       5.976  29.323  55.820  1.00  0.00     0.030 A 
HETATM    8  C   UNL     1       7.317  29.107  56.114  1.00  0.00     0.063 A 
HETATM    9  C   UNL     1       5.438  29.946  56.985  1.00  0.00     0.156 A 
HETATM   10  N   UNL     1       7.500  29.621  57.367  1.00  0.00    -0.277 N 
HETATM   11  C   UNL     1       8.195  28.471  55.235  1.00  0.00     0.034 A 
HETATM   12  H   UNL     1       8.362  29.645  57.901  1.00  0.00     0.189 HD
HETATM   13  N   UNL     1       6.389  30.126  57.929  1.00  0.00    -0.168 NA
HETATM   14  C   UNL     1       7.668  28.047  54.008  1.00  0.00     0.032 A 
BRANCH   9  15
HETATM   15  C   UNL     1       4.045  30.356  57.209  1.00  0.00     0.270 C 
HETATM   16  N   UNL     1       3.632  30.251  58.508  1.00  0.00    -0.365 N 
HETATM   17  H   UNL     1       4.287  29.907  59.200  1.00  0.00     0.159 HD
HETATM   18  H   UNL     1       2.686  30.495  58.756  1.00  0.00     0.159 HD
HETATM   19  O   UNL     1       3.292  30.754  56.326  1.00  0.00    -0.266 OA
ENDBRANCH   9  15
ENDBRANCH   2   5
BRANCH   1  20
HETATM   20  C   UNL     1       4.439  25.853  53.074  1.00  0.00     0.278 C 
BRANCH  20  21
HETATM   21  O   UNL     1       5.094  24.686  53.572  1.00  0.00    -0.342 OA
BRANCH  21  22
HETATM   22  C   UNL     1       5.936  24.820  54.644  1.00  0.00     0.076 A 
HETATM   23  C   UNL     1       7.210  24.214  54.532  1.00  0.00    -0.021 A 
HETATM   24  C   UNL     1       8.071  24.287  55.641  1.00  0.00     0.010 A 
HETATM   25  C   UNL     1       7.685  24.931  56.818  1.00  0.00     0.001 A 
HETATM   26  C   UNL     1       6.426  25.511  56.915  1.00  0.00     0.003 A 
HETATM   27  C   UNL     1       5.549  25.449  55.833  1.00  0.00     0.037 A 
BRANCH  23  28
HETATM   28  C   UNL     1       7.620  23.518  53.231  1.00  0.00     0.017 C 
HETATM   29  C   UNL     1       8.159  24.534  52.214  1.00  0.00     0.015 C 
BRANCH  28  30
HETATM   30  C   UNL     1       8.560  22.293  53.368  1.00  0.00     0.004 C 
HETATM   31  C   UNL     1       7.943  20.931  53.064  1.00  0.00     0.006 C 
ENDBRANCH  28  30
ENDBRANCH  23  28
ENDBRANCH  21  22
ENDBRANCH  20  21
ENDBRANCH   1  20
TORSDOF 7
ENDMDL
MODEL 2
REMARK VINA RESULT:      -8.4      2.751      4.273
REMARK  7 active torsions:
REMARK  status: ('A' for Active; 'I' for Inactive)
REMARK    1  A    between atoms: C_2  and  C_3 
REMARK    2  A    between atoms: C_3  and  C_4 
REMARK    3  A    between atoms: C_5  and  O_6 
REMARK    4  A    between atoms: O_6  and  C_7 
REMARK    5  A    between atoms: C_7  and  C_8 
REMARK       I    between atoms: C_8  and  N_9 
REMARK    6  A    between atoms: N_9  and  C_10 
REMARK    7  A    between atoms: C_17  and  C_18 
REMARK       I    between atoms: C_18  and  N_19 
ROOT
HETATM    1  C   UNL     1       6.192  25.792  56.930  1.00  0.00     0.246 C 
HETATM    2  N   UNL     1       6.225  27.156  57.033  1.00  0.00    -0.325 N 
HETATM    3  O   UNL     1       5.090  25.267  56.740  1.00  0.00    -0.271 OA
HETATM    4  H   UNL     1       5.294  27.539  57.166  1.00  0.00     0.169 HD
ENDROOT
BRANCH   2   5
HETATM    5  C   UNL     1       7.276  28.078  56.933  1.00  0.00     0.035 A 
HETATM    6  C   UNL     1       7.702  28.872  58.004  1.00  0.00     0.046 A 
HETATM    7  C   UNL     1       8.800  29.742  57.828  1.00  0.00     0.030 A 
HETATM    8  C   UNL     1       9.437  29.781  56.594  1.00  0.00     0.063 A 
HETATM    9  C   UNL     1       9.523  30.660  58.647  1.00  0.00     0.156 A 
HETATM   10  N   UNL     1      10.435  30.705  56.731  1.00  0.00    -0.277 N 
HETATM   11  C   UNL     1       9.054  28.983  55.515  1.00  0.00     0.034 A 
HETATM   12  H   UNL     1      11.100  31.000  56.025  1.00  0.00     0.189 HD
HETATM   13  N   UNL     1      10.525  31.248  57.957  1.00  0.00    -0.168 NA
HETATM   14  C   UNL     1       7.973  28.116  55.719  1.00  0.00     0.032 A 
BRANCH   9  15
HETATM   15  C   UNL     1       9.276  30.970  60.062  1.00  0.00     0.270 C 
HETATM   16  N   UNL     1       9.098  32.301  60.320  1.00  0.00    -0.365 N 
HETATM   17  H   UNL     1       9.151  32.957  59.549  1.00  0.00     0.159 HD
HETATM   18  H   UNL     1       8.939  32.613  61.265  1.00  0.00     0.159 HD
HETATM   19  O   UNL     1       9.235  30.132  60.956  1.00  0.00    -0.266 OA
ENDBRANCH   9  15
ENDBRANCH   2   5
BRANCH   1  20
HETATM   20  C   UNL     1       7.455  24.955  57.185  1.00  0.00     0.278 C 
BRANCH  20  21
HETATM   21  O   UNL     1       8.250  24.749  56.018  1.00  0.00    -0.342 OA
BRANCH  21  22
HETATM   22  C   UNL     1       8.235  23.511  55.431  1.00  0.00     0.076 A 
HETATM   23  C   UNL     1       7.664  23.427  54.138  1.00  0.00    -0.021 A 
HETATM   24  C   UNL     1       7.584  22.158  53.538  1.00  0.00     0.010 A 
HETATM   25  C   UNL     1       8.045  21.015  54.193  1.00  0.00     0.001 A 
HETATM   26  C   UNL     1       8.591  21.114  55.466  1.00  0.00     0.003 A 
HETATM   27  C   UNL     1       8.679  22.358  56.088  1.00  0.00     0.037 A 
BRANCH  23  28
HETATM   28  C   UNL     1       7.171  24.693  53.431  1.00  0.00     0.017 C 
HETATM   29  C   UNL     1       7.976  24.954  52.151  1.00  0.00     0.015 C 
BRANCH  28  30
HETATM   30  C   UNL     1       5.645  24.792  53.176  1.00  0.00     0.004 C 
HETATM   31  C   UNL     1       5.027  26.181  53.308  1.00  0.00     0.006 C 
ENDBRANCH  28  30
ENDBRANCH  23  28
ENDBRANCH  21  22
ENDBRANCH  20  21
ENDBRANCH   1  20
TORSDOF 7
ENDMDL
MODEL 3
REMARK VINA RESULT:      -8.2      2.706      4.101
REMARK  7 active torsions:
REMARK  status: ('A' for Active; 'I' for Inactive)
REMARK    1  A    between atoms: C_2  and  C_3 
REMARK    2  A    between atoms: C_3  and  C_4 
REMARK    3  A    between atoms: C_5  and  O_6 
REMARK    4  A    between atoms: O_6  and  C_7 
REMARK    5  A    between atoms: C_7  and  C_8 
REMARK       I    between atoms: C_8  and  N_9 
REMARK    6  A    between atoms: N_9  and  C_10 
REMARK    7  A    between atoms: C_17  and  C_18 
REMARK       I    between atoms: C_18  and  N_19 
ROOT
HETATM    1  C   UNL     1       8.036  25.452  57.303  1.00  0.00     0.246 C 
HETATM    2  N   UNL     1       8.409  26.768  57.344  1.00  0.00    -0.325 N 
HETATM    3  O   UNL     1       8.920  24.608  57.484  1.00  0.00    -0.271 OA
HETATM    4  H   UNL     1       9.418  26.867  57.293  1.00  0.00     0.169 HD
ENDROOT
BRANCH   2   5
HETATM    5  C   UNL     1       7.667  27.947  57.497  1.00  0.00     0.035 A 
HETATM    6  C   UNL     1       8.138  29.060  58.205  1.00  0.00     0.046 A 
HETATM    7  C   UNL     1       7.344  30.226  58.271  1.00  0.00     0.030 A 
HETATM    8  C   UNL     1       6.115  30.240  57.623  1.00  0.00     0.063 A 
HETATM    9  C   UNL     1       7.472  31.522  58.851  1.00  0.00     0.156 A 
HETATM   10  N   UNL     1       5.589  31.477  57.873  1.00  0.00    -0.277 N 
HETATM   11  C   UNL     1       5.629  29.158  56.888  1.00  0.00     0.034 A 
HETATM   12  H   UNL     1       4.695  31.840  57.560  1.00  0.00     0.189 HD
HETATM   13  N   UNL     1       6.383  32.282  58.600  1.00  0.00    -0.168 NA
HETATM   14  C   UNL     1       6.443  28.019  56.822  1.00  0.00     0.032 A 
BRANCH   9  15
HETATM   15  C   UNL     1       8.611  32.040  59.622  1.00  0.00     0.270 C 
HETATM   16  N   UNL     1       8.416  32.039  60.976  1.00  0.00    -0.365 N 
HETATM   17  H   UNL     1       7.534  31.698  61.340  1.00  0.00     0.159 HD
HETATM   18  H   UNL     1       9.136  32.390  61.587  1.00  0.00     0.159 HD
HETATM   19  O   UNL     1       9.653  32.452  59.124  1.00  0.00    -0.266 OA
ENDBRANCH   9  15
ENDBRANCH   2   5
BRANCH   1  20
HETATM   20  C   UNL     1       6.606  25.054  56.908  1.00  0.00     0.278 C 
BRANCH  20  21
HETATM   21  O   UNL     1       6.551  24.023  55.922  1.00  0.00    -0.342 OA
BRANCH  21  22
HETATM   22  C   UNL     1       6.900  24.335  54.634  1.00  0.00     0.076 A 
HETATM   23  C   UNL     1       7.558  23.326  53.891  1.00  0.00    -0.021 A 
HETATM   24  C   UNL     1       7.978  23.641  52.587  1.00  0.00     0.010 A 
HETATM   25  C   UNL     1       7.762  24.907  52.040  1.00  0.00     0.001 A 
HETATM   26  C   UNL     1       7.126  25.889  52.788  1.00  0.00     0.003 A 
HETATM   27  C   UNL     1       6.702  25.608  54.086  1.00  0.00     0.037 A 
BRANCH  23  28
HETATM   28  C   UNL     1       7.779  21.940  54.503  1.00  0.00     0.017 C 
HETATM   29  C   UNL     1       7.809  20.859  53.414  1.00  0.00     0.015 C 
BRANCH  28  30
HETATM   30  C   UNL     1       8.974  21.799  55.481  1.00  0.00     0.004 C 
HETATM   31  C   UNL     1       9.120  20.449  56.178  1.00  0.00     0.006 C 
ENDBRANCH  28  30
ENDBRANCH  23  28
ENDBRANCH  21  22
ENDBRANCH  20  21
ENDBRANCH   1  20
TORSDOF 7
ENDMDL
MODEL 4
REMARK VINA RESULT:      -8.2      1.848      3.667
REMARK  7 active torsions:
REMARK  status: ('A' for Active; 'I' for Inactive)
REMARK    1  A    between atoms: C_2  and  C_3 
REMARK    2  A    between atoms: C_3  and  C_4 
REMARK    3  A    between atoms: C_5  and  O_6 
REMARK    4  A    between atoms: O_6  and  C_7 
REMARK    5  A    between atoms: C_7  and  C_8 
REMARK       I    between atoms: C_8  and  N_9 
REMARK    6  A    between atoms: N_9  and  C_10 
REMARK    7  A    between atoms: C_17  and  C_18 
REMARK       I    between atoms: C_18  and  N_19 
ROOT
HETATM    1  C   UNL     1       5.638  26.321  51.879  1.00  0.00     0.246 C 
HETATM    2  N   UNL     1       5.404  27.487  52.557  1.00  0.00    -0.325 N 
HETATM    3  O   UNL     1       5.609  26.370  50.646  1.00  0.00    -0.271 OA
HETATM    4  H   UNL     1       5.010  28.196  51.948  1.00  0.00     0.169 HD
ENDROOT
BRANCH   2   5
HETATM    5  C   UNL     1       5.661  27.867  53.882  1.00  0.00     0.035 A 
HETATM    6  C   UNL     1       6.924  28.273  54.331  1.00  0.00     0.046 A 
HETATM    7  C   UNL     1       7.083  28.685  55.671  1.00  0.00     0.030 A 
HETATM    8  C   UNL     1       5.977  28.683  56.512  1.00  0.00     0.063 A 
HETATM    9  C   UNL     1       8.158  29.170  56.474  1.00  0.00     0.156 A 
HETATM   10  N   UNL     1       6.443  29.114  57.723  1.00  0.00    -0.277 N 
HETATM   11  C   UNL     1       4.701  28.310  56.090  1.00  0.00     0.034 A 
HETATM   12  H   UNL     1       5.913  29.230  58.579  1.00  0.00     0.189 HD
HETATM   13  N   UNL     1       7.750  29.428  57.736  1.00  0.00    -0.168 NA
HETATM   14  C   UNL     1       4.564  27.922  54.751  1.00  0.00     0.032 A 
BRANCH   9  15
HETATM   15  C   UNL     1       9.548  29.396  56.053  1.00  0.00     0.270 C 
HETATM   16  N   UNL     1      10.461  29.305  57.066  1.00  0.00    -0.365 N 
HETATM   17  H   UNL     1      10.130  29.101  58.002  1.00  0.00     0.159 HD
HETATM   18  H   UNL     1      11.439  29.460  56.877  1.00  0.00     0.159 HD
HETATM   19  O   UNL     1       9.888  29.652  54.903  1.00  0.00    -0.266 OA
ENDBRANCH   9  15
ENDBRANCH   2   5
BRANCH   1  20
HETATM   20  C   UNL     1       5.787  24.991  52.634  1.00  0.00     0.278 C 
BRANCH  20  21
HETATM   21  O   UNL     1       7.131  24.692  53.007  1.00  0.00    -0.342 OA
BRANCH  21  22
HETATM   22  C   UNL     1       7.378  23.513  53.661  1.00  0.00     0.076 A 
HETATM   23  C   UNL     1       7.455  23.573  55.073  1.00  0.00    -0.021 A 
HETATM   24  C   UNL     1       7.764  22.388  55.764  1.00  0.00     0.010 A 
HETATM   25  C   UNL     1       7.994  21.190  55.083  1.00  0.00     0.001 A 
HETATM   26  C   UNL     1       7.926  21.152  53.697  1.00  0.00     0.003 A 
HETATM   27  C   UNL     1       7.627  22.313  52.985  1.00  0.00     0.037 A 
BRANCH  23  28
HETATM   28  C   UNL     1       7.192  24.893  55.803  1.00  0.00     0.017 C 
HETATM   29  C   UNL     1       5.808  24.885  56.467  1.00  0.00     0.015 C 
BRANCH  28  30
HETATM   30  C   UNL     1       8.293  25.372  56.784  1.00  0.00     0.004 C 
HETATM   31  C   UNL     1       7.820  25.815  58.166  1.00  0.00     0.006 C 
ENDBRANCH  28  30
ENDBRANCH  23  28
ENDBRANCH  21  22
ENDBRANCH  20  21
ENDBRANCH   1  20
TORSDOF 7
ENDMDL
MODEL 5
REMARK VINA RESULT:      -8.2      2.106      2.929
REMARK  7 active torsions:
REMARK  status: ('A' for Active; 'I' for Inactive)
REMARK    1  A    between atoms: C_2  and  C_3 
REMARK    2  A    between atoms: C_3  and  C_4 
REMARK    3  A    between atoms: C_5  and  O_6 
REMARK    4  A    between atoms: O_6  and  C_7 
REMARK    5  A    between atoms: C_7  and  C_8 
REMARK       I    between atoms: C_8  and  N_9 
REMARK    6  A    between atoms: N_9  and  C_10 
REMARK    7  A    between atoms: C_17  and  C_18 
REMARK       I    between atoms: C_18  and  N_19 
ROOT
HETATM    1  C   UNL     1       5.782  27.162  53.121  1.00  0.00     0.246 C 
HETATM    2  N   UNL     1       6.258  28.299  53.717  1.00  0.00    -0.325 N 
HETATM    3  O   UNL     1       5.961  27.045  51.905  1.00  0.00    -0.271 OA
HETATM    4  H   UNL     1       6.498  29.004  53.027  1.00  0.00     0.169 HD
ENDROOT
BRANCH   2   5
HETATM    5  C   UNL     1       6.513  28.617  55.058  1.00  0.00     0.035 A 
HETATM    6  C   UNL     1       7.787  28.947  55.537  1.00  0.00     0.046 A 
HETATM    7  C   UNL     1       7.947  29.300  56.894  1.00  0.00     0.030 A 
HETATM    8  C   UNL     1       6.830  29.318  57.721  1.00  0.00     0.063 A 
HETATM    9  C   UNL     1       9.031  29.704  57.728  1.00  0.00     0.156 A 
HETATM   10  N   UNL     1       7.299  29.681  58.953  1.00  0.00    -0.277 N 
HETATM   11  C   UNL     1       5.544  29.021  57.269  1.00  0.00     0.034 A 
HETATM   12  H   UNL     1       6.763  29.790  59.807  1.00  0.00     0.189 HD
HETATM   13  N   UNL     1       8.618  29.933  58.994  1.00  0.00    -0.168 NA
HETATM   14  C   UNL     1       5.408  28.690  55.914  1.00  0.00     0.032 A 
BRANCH   9  15
HETATM   15  C   UNL     1      10.436  29.881  57.332  1.00  0.00     0.270 C 
HETATM   16  N   UNL     1      11.002  31.042  57.782  1.00  0.00    -0.365 N 
HETATM   17  H   UNL     1      10.435  31.678  58.331  1.00  0.00     0.159 HD
HETATM   18  H   UNL     1      11.958  31.259  57.548  1.00  0.00     0.159 HD
HETATM   19  O   UNL     1      11.069  29.079  56.653  1.00  0.00    -0.266 OA
ENDBRANCH   9  15
ENDBRANCH   2   5
BRANCH   1  20
HETATM   20  C   UNL     1       4.939  26.154  53.917  1.00  0.00     0.278 C 
BRANCH  20  21
HETATM   21  O   UNL     1       5.560  24.877  54.062  1.00  0.00    -0.342 OA
BRANCH  21  22
HETATM   22  C   UNL     1       6.521  24.728  55.028  1.00  0.00     0.076 A 
HETATM   23  C   UNL     1       7.602  23.867  54.721  1.00  0.00    -0.021 A 
HETATM   24  C   UNL     1       8.571  23.651  55.716  1.00  0.00     0.010 A 
HETATM   25  C   UNL     1       8.472  24.258  56.970  1.00  0.00     0.001 A 
HETATM   26  C   UNL     1       7.397  25.090  57.258  1.00  0.00     0.003 A 
HETATM   27  C   UNL     1       6.419  25.318  56.292  1.00  0.00     0.037 A 
BRANCH  23  28
HETATM   28  C   UNL     1       7.700  23.216  53.338  1.00  0.00     0.017 C 
HETATM   29  C   UNL     1       8.075  24.253  52.270  1.00  0.00     0.015 C 
BRANCH  28  30
HETATM   30  C   UNL     1       8.579  21.944  53.233  1.00  0.00     0.004 C 
HETATM   31  C   UNL     1       7.836  20.616  53.124  1.00  0.00     0.006 C 
ENDBRANCH  28  30
ENDBRANCH  23  28
ENDBRANCH  21  22
ENDBRANCH  20  21
ENDBRANCH   1  20
TORSDOF 7
ENDMDL
MODEL 6
REMARK VINA RESULT:      -7.9      1.945      3.508
REMARK  7 active torsions:
REMARK  status: ('A' for Active; 'I' for Inactive)
REMARK    1  A    between atoms: C_2  and  C_3 
REMARK    2  A    between atoms: C_3  and  C_4 
REMARK    3  A    between atoms: C_5  and  O_6 
REMARK    4  A    between atoms: O_6  and  C_7 
REMARK    5  A    between atoms: C_7  and  C_8 
REMARK       I    between atoms: C_8  and  N_9 
REMARK    6  A    between atoms: N_9  and  C_10 
REMARK    7  A    between atoms: C_17  and  C_18 
REMARK       I    between atoms: C_18  and  N_19 
ROOT
HETATM    1  C   UNL     1       5.011  25.642  52.445  1.00  0.00     0.246 C 
HETATM    2  N   UNL     1       4.181  26.436  53.190  1.00  0.00    -0.325 N 
HETATM    3  O   UNL     1       4.572  24.543  52.091  1.00  0.00    -0.271 OA
HETATM    4  H   UNL     1       3.389  25.910  53.546  1.00  0.00     0.169 HD
ENDROOT
BRANCH   2   5
HETATM    5  C   UNL     1       4.210  27.806  53.483  1.00  0.00     0.035 A 
HETATM    6  C   UNL     1       4.622  28.315  54.721  1.00  0.00     0.046 A 
HETATM    7  C   UNL     1       4.665  29.712  54.916  1.00  0.00     0.030 A 
HETATM    8  C   UNL     1       4.303  30.550  53.868  1.00  0.00     0.063 A 
HETATM    9  C   UNL     1       5.034  30.588  55.979  1.00  0.00     0.156 A 
HETATM   10  N   UNL     1       4.436  31.819  54.357  1.00  0.00    -0.277 N 
HETATM   11  C   UNL     1       3.913  30.076  52.615  1.00  0.00     0.034 A 
HETATM   12  H   UNL     1       4.250  32.689  53.870  1.00  0.00     0.189 HD
HETATM   13  N   UNL     1       4.885  31.884  55.622  1.00  0.00    -0.168 NA
HETATM   14  C   UNL     1       3.895  28.686  52.440  1.00  0.00     0.032 A 
BRANCH   9  15
HETATM   15  C   UNL     1       5.529  30.209  57.310  1.00  0.00     0.270 C 
HETATM   16  N   UNL     1       4.590  29.615  58.108  1.00  0.00    -0.365 N 
HETATM   17  H   UNL     1       3.653  29.487  57.743  1.00  0.00     0.159 HD
HETATM   18  H   UNL     1       4.831  29.333  59.044  1.00  0.00     0.159 HD
HETATM   19  O   UNL     1       6.675  30.401  57.702  1.00  0.00    -0.266 OA
ENDBRANCH   9  15
ENDBRANCH   2   5
BRANCH   1  20
HETATM   20  C   UNL     1       6.469  26.053  52.190  1.00  0.00     0.278 C 
BRANCH  20  21
HETATM   21  O   UNL     1       7.331  25.823  53.303  1.00  0.00    -0.342 OA
BRANCH  21  22
HETATM   22  C   UNL     1       7.495  24.536  53.744  1.00  0.00     0.076 A 
HETATM   23  C   UNL     1       7.277  24.303  55.123  1.00  0.00    -0.021 A 
HETATM   24  C   UNL     1       7.495  23.003  55.611  1.00  0.00     0.010 A 
HETATM   25  C   UNL     1       7.918  21.973  54.769  1.00  0.00     0.001 A 
HETATM   26  C   UNL     1       8.138  22.222  53.421  1.00  0.00     0.003 A 
HETATM   27  C   UNL     1       7.936  23.502  52.909  1.00  0.00     0.037 A 
BRANCH  23  28
HETATM   28  C   UNL     1       6.805  25.443  56.031  1.00  0.00     0.017 C 
HETATM   29  C   UNL     1       5.390  25.171  56.560  1.00  0.00     0.015 C 
BRANCH  28  30
HETATM   30  C   UNL     1       7.770  25.865  57.169  1.00  0.00     0.004 C 
HETATM   31  C   UNL     1       8.299  27.295  57.111  1.00  0.00     0.006 C 
ENDBRANCH  28  30
ENDBRANCH  23  28
ENDBRANCH  21  22
ENDBRANCH  20  21
ENDBRANCH   1  20
TORSDOF 7
ENDMDL
MODEL 7
REMARK VINA RESULT:      -7.6      1.987      3.623
REMARK  7 active torsions:
REMARK  status: ('A' for Active; 'I' for Inactive)
REMARK    1  A    between atoms: C_2  and  C_3 
REMARK    2  A    between atoms: C_3  and  C_4 
REMARK    3  A    between atoms: C_5  and  O_6 
REMARK    4  A    between atoms: O_6  and  C_7 
REMARK    5  A    between atoms: C_7  and  C_8 
REMARK       I    between atoms: C_8  and  N_9 
REMARK    6  A    between atoms: N_9  and  C_10 
REMARK    7  A    between atoms: C_17  and  C_18 
REMARK       I    between atoms: C_18  and  N_19 
ROOT
HETATM    1  C   UNL     1       5.135  27.372  53.456  1.00  0.00     0.246 C 
HETATM    2  N   UNL     1       4.485  27.890  54.543  1.00  0.00    -0.325 N 
HETATM    3  O   UNL     1       4.510  26.569  52.755  1.00  0.00    -0.271 OA
HETATM    4  H   UNL     1       3.644  27.363  54.756  1.00  0.00     0.169 HD
ENDROOT
BRANCH   2   5
HETATM    5  C   UNL     1       4.745  29.012  55.342  1.00  0.00     0.035 A 
HETATM    6  C   UNL     1       5.731  29.032  56.337  1.00  0.00     0.046 A 
HETATM    7  C   UNL     1       5.957  30.220  57.064  1.00  0.00     0.030 A 
HETATM    8  C   UNL     1       5.198  31.345  56.769  1.00  0.00     0.063 A 
HETATM    9  C   UNL     1       6.847  30.635  58.098  1.00  0.00     0.156 A 
HETATM   10  N   UNL     1       5.635  32.312  57.630  1.00  0.00    -0.277 N 
HETATM   11  C   UNL     1       4.226  31.366  55.767  1.00  0.00     0.034 A 
HETATM   12  H   UNL     1       5.299  33.266  57.705  1.00  0.00     0.189 HD
HETATM   13  N   UNL     1       6.636  31.925  58.439  1.00  0.00    -0.168 NA
HETATM   14  C   UNL     1       4.032  30.180  55.047  1.00  0.00     0.032 A 
BRANCH   9  15
HETATM   15  C   UNL     1       7.889  29.827  58.749  1.00  0.00     0.270 C 
HETATM   16  N   UNL     1       8.482  30.437  59.820  1.00  0.00    -0.365 N 
HETATM   17  H   UNL     1       8.178  31.369  60.079  1.00  0.00     0.159 HD
HETATM   18  H   UNL     1       9.218  29.967  60.322  1.00  0.00     0.159 HD
HETATM   19  O   UNL     1       8.223  28.706  58.383  1.00  0.00    -0.266 OA
ENDBRANCH   9  15
ENDBRANCH   2   5
BRANCH   1  20
HETATM   20  C   UNL     1       6.621  27.675  53.212  1.00  0.00     0.278 C 
BRANCH  20  21
HETATM   21  O   UNL     1       7.503  26.915  54.037  1.00  0.00    -0.342 OA
BRANCH  21  22
HETATM   22  C   UNL     1       7.503  25.551  53.905  1.00  0.00     0.076 A 
HETATM   23  C   UNL     1       7.187  24.800  55.062  1.00  0.00    -0.021 A 
HETATM   24  C   UNL     1       7.237  23.398  54.969  1.00  0.00     0.010 A 
HETATM   25  C   UNL     1       7.592  22.763  53.777  1.00  0.00     0.001 A 
HETATM   26  C   UNL     1       7.911  23.516  52.654  1.00  0.00     0.003 A 
HETATM   27  C   UNL     1       7.875  24.907  52.719  1.00  0.00     0.037 A 
BRANCH  23  28
HETATM   28  C   UNL     1       6.792  25.513  56.359  1.00  0.00     0.017 C 
HETATM   29  C   UNL     1       5.328  25.225  56.718  1.00  0.00     0.015 C 
BRANCH  28  30
HETATM   30  C   UNL     1       7.731  25.306  57.576  1.00  0.00     0.004 C 
HETATM   31  C   UNL     1       9.094  24.687  57.280  1.00  0.00     0.006 C 
ENDBRANCH  28  30
ENDBRANCH  23  28
ENDBRANCH  21  22
ENDBRANCH  20  21
ENDBRANCH   1  20
TORSDOF 7
ENDMDL
MODEL 8
REMARK VINA RESULT:      -7.6      3.843      7.886
REMARK  7 active torsions:
REMARK  status: ('A' for Active; 'I' for Inactive)
REMARK    1  A    between atoms: C_2  and  C_3 
REMARK    2  A    between atoms: C_3  and  C_4 
REMARK    3  A    between atoms: C_5  and  O_6 
REMARK    4  A    between atoms: O_6  and  C_7 
REMARK    5  A    between atoms: C_7  and  C_8 
REMARK       I    between atoms: C_8  and  N_9 
REMARK    6  A    between atoms: N_9  and  C_10 
REMARK    7  A    between atoms: C_17  and  C_18 
REMARK       I    between atoms: C_18  and  N_19 
ROOT
HETATM    1  C   UNL     1       5.809  26.824  56.646  1.00  0.00     0.246 C 
HETATM    2  N   UNL     1       5.446  25.904  55.701  1.00  0.00    -0.325 N 
HETATM    3  O   UNL     1       4.911  27.287  57.357  1.00  0.00    -0.271 OA
HETATM    4  H   UNL     1       4.441  25.894  55.561  1.00  0.00     0.169 HD
ENDROOT
BRANCH   2   5
HETATM    5  C   UNL     1       6.192  24.971  54.967  1.00  0.00     0.035 A 
HETATM    6  C   UNL     1       6.896  23.916  55.561  1.00  0.00     0.046 A 
HETATM    7  C   UNL     1       7.584  22.994  54.743  1.00  0.00     0.030 A 
HETATM    8  C   UNL     1       7.539  23.154  53.364  1.00  0.00     0.063 A 
HETATM    9  C   UNL     1       8.366  21.821  54.954  1.00  0.00     0.156 A 
HETATM   10  N   UNL     1       8.293  22.133  52.857  1.00  0.00    -0.277 N 
HETATM   11  C   UNL     1       6.826  24.178  52.739  1.00  0.00     0.034 A 
HETATM   12  H   UNL     1       8.489  21.939  51.881  1.00  0.00     0.189 HD
HETATM   13  N   UNL     1       8.799  21.302  53.784  1.00  0.00    -0.168 NA
HETATM   14  C   UNL     1       6.136  25.070  53.571  1.00  0.00     0.032 A 
BRANCH   9  15
HETATM   15  C   UNL     1       8.692  21.192  56.242  1.00  0.00     0.270 C 
HETATM   16  N   UNL     1       9.485  20.083  56.139  1.00  0.00    -0.365 N 
HETATM   17  H   UNL     1       9.778  19.779  55.217  1.00  0.00     0.159 HD
HETATM   18  H   UNL     1       9.749  19.575  56.968  1.00  0.00     0.159 HD
HETATM   19  O   UNL     1       8.298  21.600  57.330  1.00  0.00    -0.266 OA
ENDBRANCH   9  15
ENDBRANCH   2   5
BRANCH   1  20
HETATM   20  C   UNL     1       7.249  27.355  56.711  1.00  0.00     0.278 C 
BRANCH  20  21
HETATM   21  O   UNL     1       7.413  28.458  57.602  1.00  0.00    -0.342 OA
BRANCH  21  22
HETATM   22  C   UNL     1       8.607  29.129  57.594  1.00  0.00     0.076 A 
HETATM   23  C   UNL     1       8.674  30.319  58.358  1.00  0.00    -0.021 A 
HETATM   24  C   UNL     1       9.870  31.057  58.320  1.00  0.00     0.010 A 
HETATM   25  C   UNL     1      10.957  30.638  57.551  1.00  0.00     0.001 A 
HETATM   26  C   UNL     1      10.870  29.475  56.797  1.00  0.00     0.003 A 
HETATM   27  C   UNL     1       9.695  28.725  56.811  1.00  0.00     0.037 A 
BRANCH  23  28
HETATM   28  C   UNL     1       7.475  30.759  59.203  1.00  0.00     0.017 C 
HETATM   29  C   UNL     1       7.934  31.319  60.557  1.00  0.00     0.015 C 
BRANCH  28  30
HETATM   30  C   UNL     1       6.451  31.699  58.515  1.00  0.00     0.004 C 
HETATM   31  C   UNL     1       5.670  32.635  59.433  1.00  0.00     0.006 C 
ENDBRANCH  28  30
ENDBRANCH  23  28
ENDBRANCH  21  22
ENDBRANCH  20  21
ENDBRANCH   1  20
TORSDOF 7
ENDMDL
MODEL 9
REMARK VINA RESULT:      -7.5      4.511      8.776
REMARK  7 active torsions:
REMARK  status: ('A' for Active; 'I' for Inactive)
REMARK    1  A    between atoms: C_2  and  C_3 
REMARK    2  A    between atoms: C_3  and  C_4 
REMARK    3  A    between atoms: C_5  and  O_6 
REMARK    4  A    between atoms: O_6  and  C_7 
REMARK    5  A    between atoms: C_7  and  C_8 
REMARK       I    between atoms: C_8  and  N_9 
REMARK    6  A    between atoms: N_9  and  C_10 
REMARK    7  A    between atoms: C_17  and  C_18 
REMARK       I    between atoms: C_18  and  N_19 
ROOT
HETATM    1  C   UNL     1       9.307  31.229  58.906  1.00  0.00     0.246 C 
HETATM    2  N   UNL     1       8.883  30.588  57.773  1.00  0.00    -0.325 N 
HETATM    3  O   UNL     1      10.061  32.196  58.758  1.00  0.00    -0.271 OA
HETATM    4  H   UNL     1       9.434  30.861  56.966  1.00  0.00     0.169 HD
ENDROOT
BRANCH   2   5
HETATM    5  C   UNL     1       7.823  29.700  57.540  1.00  0.00     0.035 A 
HETATM    6  C   UNL     1       8.003  28.322  57.371  1.00  0.00     0.046 A 
HETATM    7  C   UNL     1       6.876  27.493  57.187  1.00  0.00     0.030 A 
HETATM    8  C   UNL     1       5.611  28.069  57.185  1.00  0.00     0.063 A 
HETATM    9  C   UNL     1       6.647  26.097  57.009  1.00  0.00     0.156 A 
HETATM   10  N   UNL     1       4.743  27.033  56.980  1.00  0.00    -0.277 N 
HETATM   11  C   UNL     1       5.396  29.434  57.377  1.00  0.00     0.034 A 
HETATM   12  H   UNL     1       3.733  27.082  56.913  1.00  0.00     0.189 HD
HETATM   13  N   UNL     1       5.329  25.827  56.880  1.00  0.00    -0.168 NA
HETATM   14  C   UNL     1       6.529  30.234  57.575  1.00  0.00     0.032 A 
BRANCH   9  15
HETATM   15  C   UNL     1       7.658  25.031  56.971  1.00  0.00     0.270 C 
HETATM   16  N   UNL     1       8.255  24.782  58.176  1.00  0.00    -0.365 N 
HETATM   17  H   UNL     1       7.974  25.331  58.980  1.00  0.00     0.159 HD
HETATM   18  H   UNL     1       8.973  24.078  58.245  1.00  0.00     0.159 HD
HETATM   19  O   UNL     1       7.966  24.406  55.961  1.00  0.00    -0.266 OA
ENDBRANCH   9  15
ENDBRANCH   2   5
BRANCH   1  20
HETATM   20  C   UNL     1       8.968  30.671  60.296  1.00  0.00     0.278 C 
BRANCH  20  21
HETATM   21  O   UNL     1       7.613  30.892  60.687  1.00  0.00    -0.342 OA
BRANCH  21  22
HETATM   22  C   UNL     1       7.366  31.779  61.701  1.00  0.00     0.076 A 
HETATM   23  C   UNL     1       6.202  32.576  61.579  1.00  0.00    -0.021 A 
HETATM   24  C   UNL     1       5.956  33.535  62.577  1.00  0.00     0.010 A 
HETATM   25  C   UNL     1       6.831  33.704  63.652  1.00  0.00     0.001 A 
HETATM   26  C   UNL     1       7.974  32.922  63.750  1.00  0.00     0.003 A 
HETATM   27  C   UNL     1       8.246  31.967  62.772  1.00  0.00     0.037 A 
BRANCH  23  28
HETATM   28  C   UNL     1       5.249  32.372  60.397  1.00  0.00     0.017 C 
HETATM   29  C   UNL     1       3.808  32.171  60.884  1.00  0.00     0.015 C 
BRANCH  28  30
HETATM   30  C   UNL     1       5.326  33.420  59.257  1.00  0.00     0.004 C 
HETATM   31  C   UNL     1       3.998  33.832  58.629  1.00  0.00     0.006 C 
ENDBRANCH  28  30
ENDBRANCH  23  28
ENDBRANCH  21  22
ENDBRANCH  20  21
ENDBRANCH   1  20
TORSDOF 7
ENDMDL
MODEL 10
REMARK VINA RESULT:      -7.3      2.982      5.774
REMARK  7 active torsions:
REMARK  status: ('A' for Active; 'I' for Inactive)
REMARK    1  A    between atoms: C_2  and  C_3 
REMARK    2  A    between atoms: C_3  and  C_4 
REMARK    3  A    between atoms: C_5  and  O_6 
REMARK    4  A    between atoms: O_6  and  C_7 
REMARK    5  A    between atoms: C_7  and  C_8 
REMARK       I    between atoms: C_8  and  N_9 
REMARK    6  A    between atoms: N_9  and  C_10 
REMARK    7  A    between atoms: C_17  and  C_18 
REMARK       I    between atoms: C_18  and  N_19 
ROOT
HETATM    1  C   UNL     1       4.881  28.008  53.906  1.00  0.00     0.246 C 
HETATM    2  N   UNL     1       4.476  28.785  52.854  1.00  0.00    -0.325 N 
HETATM    3  O   UNL     1       4.268  28.137  54.970  1.00  0.00    -0.271 OA
HETATM    4  H   UNL     1       3.864  29.533  53.161  1.00  0.00     0.169 HD
ENDROOT
BRANCH   2   5
HETATM    5  C   UNL     1       4.709  28.688  51.474  1.00  0.00     0.035 A 
HETATM    6  C   UNL     1       4.044  27.772  50.649  1.00  0.00     0.046 A 
HETATM    7  C   UNL     1       4.305  27.773  49.262  1.00  0.00     0.030 A 
HETATM    8  C   UNL     1       5.213  28.692  48.749  1.00  0.00     0.063 A 
HETATM    9  C   UNL     1       3.836  27.044  48.130  1.00  0.00     0.156 A 
HETATM   10  N   UNL     1       5.257  28.443  47.405  1.00  0.00    -0.277 N 
HETATM   11  C   UNL     1       5.872  29.634  49.540  1.00  0.00     0.034 A 
HETATM   12  H   UNL     1       5.822  28.920  46.711  1.00  0.00     0.189 HD
HETATM   13  N   UNL     1       4.433  27.465  46.993  1.00  0.00    -0.168 NA
HETATM   14  C   UNL     1       5.583  29.625  50.911  1.00  0.00     0.032 A 
BRANCH   9  15
HETATM   15  C   UNL     1       2.832  25.971  48.120  1.00  0.00     0.270 C 
HETATM   16  N   UNL     1       1.542  26.410  48.231  1.00  0.00    -0.365 N 
HETATM   17  H   UNL     1       1.373  27.406  48.314  1.00  0.00     0.159 HD
HETATM   18  H   UNL     1       0.784  25.746  48.248  1.00  0.00     0.159 HD
HETATM   19  O   UNL     1       3.098  24.777  48.028  1.00  0.00    -0.266 OA
ENDBRANCH   9  15
ENDBRANCH   2   5
BRANCH   1  20
HETATM   20  C   UNL     1       6.134  27.127  53.794  1.00  0.00     0.278 C 
BRANCH  20  21
HETATM   21  O   UNL     1       5.998  25.855  54.427  1.00  0.00    -0.342 OA
BRANCH  21  22
HETATM   22  C   UNL     1       6.938  25.485  55.352  1.00  0.00     0.076 A 
HETATM   23  C   UNL     1       7.620  24.268  55.115  1.00  0.00    -0.021 A 
HETATM   24  C   UNL     1       8.548  23.837  56.079  1.00  0.00     0.010 A 
HETATM   25  C   UNL     1       8.788  24.579  57.237  1.00  0.00     0.001 A 
HETATM   26  C   UNL     1       8.101  25.765  57.460  1.00  0.00     0.003 A 
HETATM   27  C   UNL     1       7.172  26.214  56.524  1.00  0.00     0.037 A 
BRANCH  23  28
HETATM   28  C   UNL     1       7.349  23.471  53.835  1.00  0.00     0.017 C 
HETATM   29  C   UNL     1       8.080  24.094  52.638  1.00  0.00     0.015 C 
BRANCH  28  30
HETATM   30  C   UNL     1       7.580  21.940  53.912  1.00  0.00     0.004 C 
HETATM   31  C   UNL     1       8.930  21.435  53.411  1.00  0.00     0.006 C 
ENDBRANCH  28  30
ENDBRANCH  23  28
ENDBRANCH  21  22
ENDBRANCH  20  21
ENDBRANCH   1  20
TORSDOF 7
ENDMDL
