MODEL 1
REMARK VINA RESULT:     -10.4      0.000      0.000
REMARK  4 active torsions:
REMARK  status: ('A' for Active; 'I' for Inactive)
REMARK    1  A    between atoms: C_3  and  C_4 
REMARK       I    between atoms: C_4  and  N_5 
REMARK    2  A    between atoms: N_5  and  N_6 
REMARK    3  A    between atoms: C_7  and  C_8 
REMARK    4  A    between atoms: C_23  and  C_24 
ROOT
HETATM    1  C   UNL     1       8.505  29.811  58.526  1.00  0.00     0.290 C 
HETATM    2  N   UNL     1       7.754  28.678  58.250  1.00  0.00    -0.242 N 
HETATM    3  O   UNL     1       9.594  30.064  58.018  1.00  0.00    -0.264 OA
HETATM    4  H   UNL     1       6.888  28.536  58.751  1.00  0.00     0.192 HD
ENDROOT
BRANCH   1   5
HETATM    5  C   UNL     1       7.901  30.741  59.456  1.00  0.00     0.127 A 
HETATM    6  C   UNL     1       8.274  31.329  60.660  1.00  0.00     0.003 A 
HETATM    7  C   UNL     1       9.568  31.223  61.388  1.00  0.00     0.053 C 
HETATM    8  C   UNL     1       7.141  32.123  61.049  1.00  0.00     0.095 A 
HETATM    9  N   UNL     1       6.188  32.087  60.109  1.00  0.00    -0.173 NA
HETATM   10  N   UNL     1       6.678  31.281  59.165  1.00  0.00    -0.272 N 
HETATM   11  H   UNL     1       6.126  31.112  58.329  1.00  0.00     0.189 HD
BRANCH   8  12
HETATM   12  C   UNL     1       6.952  32.922  62.261  1.00  0.00    -0.005 A 
HETATM   13  C   UNL     1       7.633  32.612  63.446  1.00  0.00     0.014 A 
HETATM   14  C   UNL     1       7.445  33.384  64.595  1.00  0.00     0.001 A 
HETATM   15  C   UNL     1       6.567  34.467  64.573  1.00  0.00     0.000 A 
HETATM   16  C   UNL     1       5.873  34.777  63.405  1.00  0.00     0.001 A 
HETATM   17  C   UNL     1       6.062  34.006  62.255  1.00  0.00     0.014 A 
ENDBRANCH   8  12
ENDBRANCH   1   5
BRANCH   2  18
HETATM   18  N   UNL     1       8.128  27.581  57.513  1.00  0.00    -0.183 NA
HETATM   19  C   UNL     1       7.235  26.883  56.889  1.00  0.00     0.153 C 
BRANCH  19  20
HETATM   20  C   UNL     1       7.645  25.757  56.065  1.00  0.00     0.018 A 
HETATM   21  C   UNL     1       7.445  25.639  54.647  1.00  0.00     0.004 A 
HETATM   22  C   UNL     1       7.988  24.419  54.246  1.00  0.00     0.043 A 
HETATM   23  C   UNL     1       6.852  26.461  53.663  1.00  0.00     0.014 A 
HETATM   24  C   UNL     1       7.969  23.977  52.917  1.00  0.00     0.030 A 
HETATM   25  N   UNL     1       8.498  23.815  55.369  1.00  0.00    -0.358 N 
HETATM   26  C   UNL     1       7.375  24.810  51.965  1.00  0.00     0.002 A 
HETATM   27  C   UNL     1       6.823  26.034  52.330  1.00  0.00     0.001 A 
HETATM   28  H   UNL     1       8.956  22.914  55.371  1.00  0.00     0.166 HD
HETATM   29  C   UNL     1       8.303  24.604  56.476  1.00  0.00     0.018 A 
HETATM   30  C   UNL     1       8.777  24.169  57.817  1.00  0.00     0.069 C 
ENDBRANCH  19  20
ENDBRANCH   2  18
TORSDOF 4
ENDMDL
MODEL 2
REMARK VINA RESULT:     -10.4      1.544      2.536
REMARK  4 active torsions:
REMARK  status: ('A' for Active; 'I' for Inactive)
REMARK    1  A    between atoms: C_3  and  C_4 
REMARK       I    between atoms: C_4  and  N_5 
REMARK    2  A    between atoms: N_5  and  N_6 
REMARK    3  A    between atoms: C_7  and  C_8 
REMARK    4  A    between atoms: C_23  and  C_24 
ROOT
HETATM    1  C   UNL     1       8.512  30.203  58.921  1.00  0.00     0.290 C 
HETATM    2  N   UNL     1       7.670  29.202  58.457  1.00  0.00    -0.242 N 
HETATM    3  O   UNL     1       9.432  30.694  58.272  1.00  0.00    -0.264 OA
HETATM    4  H   UNL     1       6.968  28.832  59.082  1.00  0.00     0.192 HD
ENDROOT
BRANCH   1   5
HETATM    5  C   UNL     1       8.219  30.689  60.252  1.00  0.00     0.127 A 
HETATM    6  C   UNL     1       7.332  31.608  60.804  1.00  0.00     0.003 A 
HETATM    7  C   UNL     1       6.262  32.392  60.130  1.00  0.00     0.053 C 
HETATM    8  C   UNL     1       7.635  31.614  62.210  1.00  0.00     0.095 A 
HETATM    9  N   UNL     1       8.575  30.704  62.499  1.00  0.00    -0.173 NA
HETATM   10  N   UNL     1       8.882  30.153  61.323  1.00  0.00    -0.272 N 
HETATM   11  H   UNL     1       9.575  29.411  61.295  1.00  0.00     0.189 HD
BRANCH   8  12
HETATM   12  C   UNL     1       7.048  32.431  63.272  1.00  0.00    -0.005 A 
HETATM   13  C   UNL     1       7.856  33.166  64.150  1.00  0.00     0.014 A 
HETATM   14  C   UNL     1       7.282  33.943  65.160  1.00  0.00     0.001 A 
HETATM   15  C   UNL     1       5.896  33.986  65.307  1.00  0.00     0.000 A 
HETATM   16  C   UNL     1       5.083  33.248  64.449  1.00  0.00     0.001 A 
HETATM   17  C   UNL     1       5.656  32.471  63.439  1.00  0.00     0.014 A 
ENDBRANCH   8  12
ENDBRANCH   1   5
BRANCH   2  18
HETATM   18  N   UNL     1       7.788  28.476  57.298  1.00  0.00    -0.183 NA
HETATM   19  C   UNL     1       7.076  27.409  57.126  1.00  0.00     0.153 C 
BRANCH  19  20
HETATM   20  C   UNL     1       7.165  26.677  55.872  1.00  0.00     0.018 A 
HETATM   21  C   UNL     1       7.693  25.351  55.711  1.00  0.00     0.004 A 
HETATM   22  C   UNL     1       7.590  25.018  54.361  1.00  0.00     0.043 A 
HETATM   23  C   UNL     1       8.250  24.398  56.592  1.00  0.00     0.014 A 
HETATM   24  C   UNL     1       8.013  23.787  53.846  1.00  0.00     0.030 A 
HETATM   25  N   UNL     1       7.023  26.093  53.723  1.00  0.00    -0.358 N 
HETATM   26  C   UNL     1       8.562  22.863  54.740  1.00  0.00     0.002 A 
HETATM   27  C   UNL     1       8.680  23.163  56.094  1.00  0.00     0.001 A 
HETATM   28  H   UNL     1       6.827  26.126  52.732  1.00  0.00     0.166 HD
HETATM   29  C   UNL     1       6.757  27.104  54.613  1.00  0.00     0.018 A 
HETATM   30  C   UNL     1       6.133  28.376  54.162  1.00  0.00     0.069 C 
ENDBRANCH  19  20
ENDBRANCH   2  18
TORSDOF 4
ENDMDL
MODEL 3
REMARK VINA RESULT:     -10.3      6.902     11.395
REMARK  4 active torsions:
REMARK  status: ('A' for Active; 'I' for Inactive)
REMARK    1  A    between atoms: C_3  and  C_4 
REMARK       I    between atoms: C_4  and  N_5 
REMARK    2  A    between atoms: N_5  and  N_6 
REMARK    3  A    between atoms: C_7  and  C_8 
REMARK    4  A    between atoms: C_23  and  C_24 
ROOT
HETATM    1  C   UNL     1       5.517  27.100  50.808  1.00  0.00     0.290 C 
HETATM    2  N   UNL     1       6.181  25.883  50.842  1.00  0.00    -0.242 N 
HETATM    3  O   UNL     1       5.635  27.982  51.655  1.00  0.00    -0.264 OA
HETATM    4  H   UNL     1       5.986  25.203  50.121  1.00  0.00     0.192 HD
ENDROOT
BRANCH   1   5
HETATM    5  C   UNL     1       4.667  27.307  49.655  1.00  0.00     0.127 A 
HETATM    6  C   UNL     1       3.468  27.970  49.408  1.00  0.00     0.003 A 
HETATM    7  C   UNL     1       2.659  28.810  50.332  1.00  0.00     0.053 C 
HETATM    8  C   UNL     1       3.184  27.711  48.022  1.00  0.00     0.095 A 
HETATM    9  N   UNL     1       4.178  27.017  47.453  1.00  0.00    -0.173 NA
HETATM   10  N   UNL     1       5.055  26.815  48.438  1.00  0.00    -0.272 N 
HETATM   11  H   UNL     1       5.915  26.314  48.235  1.00  0.00     0.189 HD
BRANCH   8  12
HETATM   12  C   UNL     1       2.022  28.119  47.231  1.00  0.00    -0.005 A 
HETATM   13  C   UNL     1       1.831  29.459  46.866  1.00  0.00     0.014 A 
HETATM   14  C   UNL     1       0.718  29.836  46.110  1.00  0.00     0.001 A 
HETATM   15  C   UNL     1      -0.219  28.879  45.721  1.00  0.00     0.000 A 
HETATM   16  C   UNL     1      -0.047  27.546  46.090  1.00  0.00     0.001 A 
HETATM   17  C   UNL     1       1.066  27.169  46.846  1.00  0.00     0.014 A 
ENDBRANCH   8  12
ENDBRANCH   1   5
BRANCH   2  18
HETATM   18  N   UNL     1       6.944  25.371  51.863  1.00  0.00    -0.183 NA
HETATM   19  C   UNL     1       6.389  24.663  52.795  1.00  0.00     0.153 C 
BRANCH  19  20
HETATM   20  C   UNL     1       7.212  24.076  53.841  1.00  0.00     0.018 A 
HETATM   21  C   UNL     1       7.732  22.737  53.846  1.00  0.00     0.004 A 
HETATM   22  C   UNL     1       8.470  22.577  55.018  1.00  0.00     0.043 A 
HETATM   23  C   UNL     1       7.645  21.642  52.959  1.00  0.00     0.014 A 
HETATM   24  C   UNL     1       9.124  21.385  55.350  1.00  0.00     0.030 A 
HETATM   25  N   UNL     1       8.405  23.767  55.701  1.00  0.00    -0.358 N 
HETATM   26  C   UNL     1       9.020  20.317  54.454  1.00  0.00     0.002 A 
HETATM   27  C   UNL     1       8.290  20.441  53.275  1.00  0.00     0.001 A 
HETATM   28  H   UNL     1       8.856  23.937  56.590  1.00  0.00     0.166 HD
HETATM   29  C   UNL     1       7.653  24.685  55.010  1.00  0.00     0.018 A 
HETATM   30  C   UNL     1       7.441  26.057  55.544  1.00  0.00     0.069 C 
ENDBRANCH  19  20
ENDBRANCH   2  18
TORSDOF 4
ENDMDL
MODEL 4
REMARK VINA RESULT:     -10.3      2.169     10.409
REMARK  4 active torsions:
REMARK  status: ('A' for Active; 'I' for Inactive)
REMARK    1  A    between atoms: C_3  and  C_4 
REMARK       I    between atoms: C_4  and  N_5 
REMARK    2  A    between atoms: N_5  and  N_6 
REMARK    3  A    between atoms: C_7  and  C_8 
REMARK    4  A    between atoms: C_23  and  C_24 
ROOT
HETATM    1  C   UNL     1       6.720  27.645  55.553  1.00  0.00     0.290 C 
HETATM    2  N   UNL     1       7.125  27.846  56.864  1.00  0.00    -0.242 N 
HETATM    3  O   UNL     1       6.074  28.454  54.891  1.00  0.00    -0.264 OA
HETATM    4  H   UNL     1       7.616  27.102  57.339  1.00  0.00     0.192 HD
ENDROOT
BRANCH   1   5
HETATM    5  C   UNL     1       7.144  26.394  54.960  1.00  0.00     0.127 A 
HETATM    6  C   UNL     1       7.197  25.065  55.370  1.00  0.00     0.003 A 
HETATM    7  C   UNL     1       6.716  24.462  56.643  1.00  0.00     0.053 C 
HETATM    8  C   UNL     1       7.787  24.362  54.264  1.00  0.00     0.095 A 
HETATM    9  N   UNL     1       7.994  25.188  53.230  1.00  0.00    -0.173 NA
HETATM   10  N   UNL     1       7.580  26.380  53.663  1.00  0.00    -0.272 N 
HETATM   11  H   UNL     1       7.627  27.175  53.032  1.00  0.00     0.189 HD
BRANCH   8  12
HETATM   12  C   UNL     1       8.129  22.943  54.155  1.00  0.00    -0.005 A 
HETATM   13  C   UNL     1       8.849  22.293  55.167  1.00  0.00     0.014 A 
HETATM   14  C   UNL     1       9.169  20.938  55.052  1.00  0.00     0.001 A 
HETATM   15  C   UNL     1       8.780  20.223  53.920  1.00  0.00     0.000 A 
HETATM   16  C   UNL     1       8.077  20.861  52.900  1.00  0.00     0.001 A 
HETATM   17  C   UNL     1       7.757  22.216  53.016  1.00  0.00     0.014 A 
ENDBRANCH   8  12
ENDBRANCH   1   5
BRANCH   2  18
HETATM   18  N   UNL     1       6.765  28.869  57.706  1.00  0.00    -0.183 NA
HETATM   19  C   UNL     1       7.608  29.814  57.975  1.00  0.00     0.153 C 
BRANCH  19  20
HETATM   20  C   UNL     1       7.201  30.925  58.822  1.00  0.00     0.018 A 
HETATM   21  C   UNL     1       7.747  31.237  60.113  1.00  0.00     0.004 A 
HETATM   22  C   UNL     1       7.091  32.374  60.584  1.00  0.00     0.043 A 
HETATM   23  C   UNL     1       8.744  30.658  60.929  1.00  0.00     0.014 A 
HETATM   24  C   UNL     1       7.377  32.961  61.822  1.00  0.00     0.030 A 
HETATM   25  N   UNL     1       6.182  32.742  59.622  1.00  0.00    -0.358 N 
HETATM   26  C   UNL     1       8.367  32.366  62.609  1.00  0.00     0.002 A 
HETATM   27  C   UNL     1       9.042  31.230  62.171  1.00  0.00     0.001 A 
HETATM   28  H   UNL     1       5.567  33.540  59.698  1.00  0.00     0.166 HD
HETATM   29  C   UNL     1       6.232  31.883  58.552  1.00  0.00     0.018 A 
HETATM   30  C   UNL     1       5.344  32.077  57.374  1.00  0.00     0.069 C 
ENDBRANCH  19  20
ENDBRANCH   2  18
TORSDOF 4
ENDMDL
MODEL 5
REMARK VINA RESULT:     -10.0      0.980      2.220
REMARK  4 active torsions:
REMARK  status: ('A' for Active; 'I' for Inactive)
REMARK    1  A    between atoms: C_3  and  C_4 
REMARK       I    between atoms: C_4  and  N_5 
REMARK    2  A    between atoms: N_5  and  N_6 
REMARK    3  A    between atoms: C_7  and  C_8 
REMARK    4  A    between atoms: C_23  and  C_24 
ROOT
HETATM    1  C   UNL     1       8.409  30.136  58.326  1.00  0.00     0.290 C 
HETATM    2  N   UNL     1       7.568  29.158  57.815  1.00  0.00    -0.242 N 
HETATM    3  O   UNL     1       9.559  30.333  57.944  1.00  0.00    -0.264 OA
HETATM    4  H   UNL     1       6.651  29.045  58.224  1.00  0.00     0.192 HD
ENDROOT
BRANCH   1   5
HETATM    5  C   UNL     1       7.827  30.976  59.351  1.00  0.00     0.127 A 
HETATM    6  C   UNL     1       8.278  31.570  60.526  1.00  0.00     0.003 A 
HETATM    7  C   UNL     1       9.651  31.581  61.098  1.00  0.00     0.053 C 
HETATM    8  C   UNL     1       7.123  32.234  61.069  1.00  0.00     0.095 A 
HETATM    9  N   UNL     1       6.076  32.122  60.242  1.00  0.00    -0.173 NA
HETATM   10  N   UNL     1       6.530  31.394  59.220  1.00  0.00    -0.272 N 
HETATM   11  H   UNL     1       5.904  31.189  58.447  1.00  0.00     0.189 HD
BRANCH   8  12
HETATM   12  C   UNL     1       6.998  32.980  62.322  1.00  0.00    -0.005 A 
HETATM   13  C   UNL     1       7.640  32.546  63.490  1.00  0.00     0.014 A 
HETATM   14  C   UNL     1       7.514  33.268  64.679  1.00  0.00     0.001 A 
HETATM   15  C   UNL     1       6.736  34.425  64.714  1.00  0.00     0.000 A 
HETATM   16  C   UNL     1       6.081  34.859  63.563  1.00  0.00     0.001 A 
HETATM   17  C   UNL     1       6.208  34.137  62.374  1.00  0.00     0.014 A 
ENDBRANCH   8  12
ENDBRANCH   1   5
BRANCH   2  18
HETATM   18  N   UNL     1       7.887  28.152  56.937  1.00  0.00    -0.183 NA
HETATM   19  C   UNL     1       6.956  27.391  56.456  1.00  0.00     0.153 C 
BRANCH  19  20
HETATM   20  C   UNL     1       7.295  26.364  55.483  1.00  0.00     0.018 A 
HETATM   21  C   UNL     1       7.739  25.033  55.789  1.00  0.00     0.004 A 
HETATM   22  C   UNL     1       7.948  24.371  54.581  1.00  0.00     0.043 A 
HETATM   23  C   UNL     1       7.983  24.327  56.987  1.00  0.00     0.014 A 
HETATM   24  C   UNL     1       8.387  23.043  54.505  1.00  0.00     0.030 A 
HETATM   25  N   UNL     1       7.645  25.258  53.577  1.00  0.00    -0.358 N 
HETATM   26  C   UNL     1       8.621  22.368  55.706  1.00  0.00     0.002 A 
HETATM   27  C   UNL     1       8.423  22.999  56.931  1.00  0.00     0.001 A 
HETATM   28  H   UNL     1       7.704  25.042  52.591  1.00  0.00     0.166 HD
HETATM   29  C   UNL     1       7.248  26.465  54.097  1.00  0.00     0.018 A 
HETATM   30  C   UNL     1       6.858  27.591  53.207  1.00  0.00     0.069 C 
ENDBRANCH  19  20
ENDBRANCH   2  18
TORSDOF 4
ENDMDL
MODEL 6
REMARK VINA RESULT:      -9.9      6.540     11.393
REMARK  4 active torsions:
REMARK  status: ('A' for Active; 'I' for Inactive)
REMARK    1  A    between atoms: C_3  and  C_4 
REMARK       I    between atoms: C_4  and  N_5 
REMARK    2  A    between atoms: N_5  and  N_6 
REMARK    3  A    between atoms: C_7  and  C_8 
REMARK    4  A    between atoms: C_23  and  C_24 
ROOT
HETATM    1  C   UNL     1       5.537  27.138  50.832  1.00  0.00     0.290 C 
HETATM    2  N   UNL     1       6.124  25.887  50.951  1.00  0.00    -0.242 N 
HETATM    3  O   UNL     1       5.724  28.071  51.608  1.00  0.00    -0.264 OA
HETATM    4  H   UNL     1       5.874  25.169  50.286  1.00  0.00     0.192 HD
ENDROOT
BRANCH   1   5
HETATM    5  C   UNL     1       4.683  27.312  49.677  1.00  0.00     0.127 A 
HETATM    6  C   UNL     1       3.488  27.975  49.412  1.00  0.00     0.003 A 
HETATM    7  C   UNL     1       2.690  28.853  50.310  1.00  0.00     0.053 C 
HETATM    8  C   UNL     1       3.195  27.671  48.038  1.00  0.00     0.095 A 
HETATM    9  N   UNL     1       4.181  26.950  47.488  1.00  0.00    -0.173 NA
HETATM   10  N   UNL     1       5.061  26.775  48.476  1.00  0.00    -0.272 N 
HETATM   11  H   UNL     1       5.916  26.260  48.286  1.00  0.00     0.189 HD
BRANCH   8  12
HETATM   12  C   UNL     1       2.033  28.061  47.239  1.00  0.00    -0.005 A 
HETATM   13  C   UNL     1       1.813  29.400  46.888  1.00  0.00     0.014 A 
HETATM   14  C   UNL     1       0.700  29.760  46.124  1.00  0.00     0.001 A 
HETATM   15  C   UNL     1      -0.208  28.785  45.711  1.00  0.00     0.000 A 
HETATM   16  C   UNL     1      -0.008  27.453  46.066  1.00  0.00     0.001 A 
HETATM   17  C   UNL     1       1.105  27.093  46.829  1.00  0.00     0.014 A 
ENDBRANCH   8  12
ENDBRANCH   1   5
BRANCH   2  18
HETATM   18  N   UNL     1       6.869  25.405  51.999  1.00  0.00    -0.183 NA
HETATM   19  C   UNL     1       6.404  24.451  52.741  1.00  0.00     0.153 C 
BRANCH  19  20
HETATM   20  C   UNL     1       7.223  23.907  53.813  1.00  0.00     0.018 A 
HETATM   21  C   UNL     1       7.529  24.568  55.051  1.00  0.00     0.004 A 
HETATM   22  C   UNL     1       8.330  23.709  55.801  1.00  0.00     0.043 A 
HETATM   23  C   UNL     1       7.195  25.823  55.607  1.00  0.00     0.014 A 
HETATM   24  C   UNL     1       8.815  24.034  57.073  1.00  0.00     0.030 A 
HETATM   25  N   UNL     1       8.508  22.569  55.054  1.00  0.00    -0.358 N 
HETATM   26  C   UNL     1       8.471  25.283  57.598  1.00  0.00     0.002 A 
HETATM   27  C   UNL     1       7.673  26.167  56.878  1.00  0.00     0.001 A 
HETATM   28  H   UNL     1       9.048  21.771  55.357  1.00  0.00     0.166 HD
HETATM   29  C   UNL     1       7.849  22.667  53.853  1.00  0.00     0.018 A 
HETATM   30  C   UNL     1       7.885  21.552  52.869  1.00  0.00     0.069 C 
ENDBRANCH  19  20
ENDBRANCH   2  18
TORSDOF 4
ENDMDL
MODEL 7
REMARK VINA RESULT:      -9.9      2.114      3.562
REMARK  4 active torsions:
REMARK  status: ('A' for Active; 'I' for Inactive)
REMARK    1  A    between atoms: C_3  and  C_4 
REMARK       I    between atoms: C_4  and  N_5 
REMARK    2  A    between atoms: N_5  and  N_6 
REMARK    3  A    between atoms: C_7  and  C_8 
REMARK    4  A    between atoms: C_23  and  C_24 
ROOT
HETATM    1  C   UNL     1       7.611  28.481  55.837  1.00  0.00     0.290 C 
HETATM    2  N   UNL     1       6.912  27.283  55.884  1.00  0.00    -0.242 N 
HETATM    3  O   UNL     1       8.357  28.816  54.921  1.00  0.00    -0.264 OA
HETATM    4  H   UNL     1       6.355  27.078  56.701  1.00  0.00     0.192 HD
ENDROOT
BRANCH   1   5
HETATM    5  C   UNL     1       7.380  29.374  56.952  1.00  0.00     0.127 A 
HETATM    6  C   UNL     1       8.155  29.909  57.977  1.00  0.00     0.003 A 
HETATM    7  C   UNL     1       9.618  29.766  58.212  1.00  0.00     0.053 C 
HETATM    8  C   UNL     1       7.239  30.692  58.761  1.00  0.00     0.095 A 
HETATM    9  N   UNL     1       6.021  30.700  58.204  1.00  0.00    -0.173 NA
HETATM   10  N   UNL     1       6.142  29.932  57.120  1.00  0.00    -0.272 N 
HETATM   11  H   UNL     1       5.334  29.802  56.518  1.00  0.00     0.189 HD
BRANCH   8  12
HETATM   12  C   UNL     1       7.493  31.440  59.993  1.00  0.00    -0.005 A 
HETATM   13  C   UNL     1       8.584  31.131  60.816  1.00  0.00     0.014 A 
HETATM   14  C   UNL     1       8.816  31.854  61.989  1.00  0.00     0.001 A 
HETATM   15  C   UNL     1       7.953  32.887  62.354  1.00  0.00     0.000 A 
HETATM   16  C   UNL     1       6.857  33.194  61.551  1.00  0.00     0.001 A 
HETATM   17  C   UNL     1       6.625  32.472  60.378  1.00  0.00     0.014 A 
ENDBRANCH   8  12
ENDBRANCH   1   5
BRANCH   2  18
HETATM   18  N   UNL     1       7.031  26.208  55.038  1.00  0.00    -0.183 NA
HETATM   19  C   UNL     1       7.837  25.238  55.331  1.00  0.00     0.153 C 
BRANCH  19  20
HETATM   20  C   UNL     1       7.915  24.076  54.459  1.00  0.00     0.018 A 
HETATM   21  C   UNL     1       8.070  22.715  54.890  1.00  0.00     0.004 A 
HETATM   22  C   UNL     1       8.093  21.913  53.749  1.00  0.00     0.043 A 
HETATM   23  C   UNL     1       8.192  22.086  56.149  1.00  0.00     0.014 A 
HETATM   24  C   UNL     1       8.232  20.521  53.799  1.00  0.00     0.030 A 
HETATM   25  N   UNL     1       7.958  22.748  52.667  1.00  0.00    -0.358 N 
HETATM   26  C   UNL     1       8.351  19.926  55.058  1.00  0.00     0.002 A 
HETATM   27  C   UNL     1       8.332  20.695  56.218  1.00  0.00     0.001 A 
HETATM   28  H   UNL     1       7.939  22.433  51.707  1.00  0.00     0.166 HD
HETATM   29  C   UNL     1       7.848  24.055  53.071  1.00  0.00     0.018 A 
HETATM   30  C   UNL     1       7.684  25.151  52.079  1.00  0.00     0.069 C 
ENDBRANCH  19  20
ENDBRANCH   2  18
TORSDOF 4
ENDMDL
MODEL 8
REMARK VINA RESULT:      -9.7      7.646     10.675
REMARK  4 active torsions:
REMARK  status: ('A' for Active; 'I' for Inactive)
REMARK    1  A    between atoms: C_3  and  C_4 
REMARK       I    between atoms: C_4  and  N_5 
REMARK    2  A    between atoms: N_5  and  N_6 
REMARK    3  A    between atoms: C_7  and  C_8 
REMARK    4  A    between atoms: C_23  and  C_24 
ROOT
HETATM    1  C   UNL     1       5.862  26.988  52.880  1.00  0.00     0.290 C 
HETATM    2  N   UNL     1       4.721  26.835  52.104  1.00  0.00    -0.242 N 
HETATM    3  O   UNL     1       6.494  28.035  52.988  1.00  0.00    -0.264 OA
HETATM    4  H   UNL     1       4.294  25.922  52.045  1.00  0.00     0.192 HD
ENDROOT
BRANCH   1   5
HETATM    5  C   UNL     1       6.268  25.811  53.618  1.00  0.00     0.127 A 
HETATM    6  C   UNL     1       7.082  24.710  53.368  1.00  0.00     0.003 A 
HETATM    7  C   UNL     1       7.919  24.422  52.173  1.00  0.00     0.053 C 
HETATM    8  C   UNL     1       6.984  23.904  54.554  1.00  0.00     0.095 A 
HETATM    9  N   UNL     1       6.238  24.513  55.485  1.00  0.00    -0.173 NA
HETATM   10  N   UNL     1       5.849  25.653  54.911  1.00  0.00    -0.272 N 
HETATM   11  H   UNL     1       5.275  26.300  55.444  1.00  0.00     0.189 HD
BRANCH   8  12
HETATM   12  C   UNL     1       7.592  22.602  54.832  1.00  0.00    -0.005 A 
HETATM   13  C   UNL     1       8.037  22.271  56.119  1.00  0.00     0.014 A 
HETATM   14  C   UNL     1       8.614  21.023  56.371  1.00  0.00     0.001 A 
HETATM   15  C   UNL     1       8.762  20.100  55.336  1.00  0.00     0.000 A 
HETATM   16  C   UNL     1       8.338  20.424  54.049  1.00  0.00     0.001 A 
HETATM   17  C   UNL     1       7.759  21.670  53.797  1.00  0.00     0.014 A 
ENDBRANCH   8  12
ENDBRANCH   1   5
BRANCH   2  18
HETATM   18  N   UNL     1       4.186  27.732  51.213  1.00  0.00    -0.183 NA
HETATM   19  C   UNL     1       4.503  27.669  49.959  1.00  0.00     0.153 C 
BRANCH  19  20
HETATM   20  C   UNL     1       3.887  28.586  49.013  1.00  0.00     0.018 A 
HETATM   21  C   UNL     1       2.709  28.321  48.235  1.00  0.00     0.004 A 
HETATM   22  C   UNL     1       2.450  29.453  47.464  1.00  0.00     0.043 A 
HETATM   23  C   UNL     1       1.833  27.219  48.116  1.00  0.00     0.014 A 
HETATM   24  C   UNL     1       1.367  29.544  46.583  1.00  0.00     0.030 A 
HETATM   25  N   UNL     1       3.428  30.372  47.757  1.00  0.00    -0.358 N 
HETATM   26  C   UNL     1       0.517  28.439  46.484  1.00  0.00     0.002 A 
HETATM   27  C   UNL     1       0.745  27.291  47.238  1.00  0.00     0.001 A 
HETATM   28  H   UNL     1       3.486  31.292  47.341  1.00  0.00     0.166 HD
HETATM   29  C   UNL     1       4.304  29.871  48.688  1.00  0.00     0.018 A 
HETATM   30  C   UNL     1       5.451  30.684  49.174  1.00  0.00     0.069 C 
ENDBRANCH  19  20
ENDBRANCH   2  18
TORSDOF 4
ENDMDL
MODEL 9
REMARK VINA RESULT:      -9.4      2.079     10.419
REMARK  4 active torsions:
REMARK  status: ('A' for Active; 'I' for Inactive)
REMARK    1  A    between atoms: C_3  and  C_4 
REMARK       I    between atoms: C_4  and  N_5 
REMARK    2  A    between atoms: N_5  and  N_6 
REMARK    3  A    between atoms: C_7  and  C_8 
REMARK    4  A    between atoms: C_23  and  C_24 
ROOT
HETATM    1  C   UNL     1       5.773  29.589  56.531  1.00  0.00     0.290 C 
HETATM    2  N   UNL     1       6.415  29.847  57.733  1.00  0.00    -0.242 N 
HETATM    3  O   UNL     1       4.781  30.192  56.128  1.00  0.00    -0.264 OA
HETATM    4  H   UNL     1       7.199  29.269  57.998  1.00  0.00     0.192 HD
ENDROOT
BRANCH   1   5
HETATM    5  C   UNL     1       6.376  28.553  55.719  1.00  0.00     0.127 A 
HETATM    6  C   UNL     1       6.245  27.172  55.609  1.00  0.00     0.003 A 
HETATM    7  C   UNL     1       5.297  26.266  56.312  1.00  0.00     0.053 C 
HETATM    8  C   UNL     1       7.208  26.790  54.612  1.00  0.00     0.095 A 
HETATM    9  N   UNL     1       7.814  27.868  54.096  1.00  0.00    -0.173 NA
HETATM   10  N   UNL     1       7.282  28.900  54.754  1.00  0.00    -0.272 N 
HETATM   11  H   UNL     1       7.582  29.841  54.517  1.00  0.00     0.189 HD
BRANCH   8  12
HETATM   12  C   UNL     1       7.545  25.451  54.126  1.00  0.00    -0.005 A 
HETATM   13  C   UNL     1       7.416  25.120  52.771  1.00  0.00     0.014 A 
HETATM   14  C   UNL     1       7.742  23.838  52.319  1.00  0.00     0.001 A 
HETATM   15  C   UNL     1       8.190  22.874  53.221  1.00  0.00     0.000 A 
HETATM   16  C   UNL     1       8.308  23.187  54.574  1.00  0.00     0.001 A 
HETATM   17  C   UNL     1       7.983  24.468  55.025  1.00  0.00     0.014 A 
ENDBRANCH   8  12
ENDBRANCH   1   5
BRANCH   2  18
HETATM   18  N   UNL     1       5.999  30.676  58.746  1.00  0.00    -0.183 NA
HETATM   19  C   UNL     1       6.692  31.726  59.052  1.00  0.00     0.153 C 
BRANCH  19  20
HETATM   20  C   UNL     1       6.215  32.629  60.087  1.00  0.00     0.018 A 
HETATM   21  C   UNL     1       6.737  32.725  61.421  1.00  0.00     0.004 A 
HETATM   22  C   UNL     1       6.011  33.711  62.088  1.00  0.00     0.043 A 
HETATM   23  C   UNL     1       7.766  32.063  62.127  1.00  0.00     0.014 A 
HETATM   24  C   UNL     1       6.256  34.069  63.419  1.00  0.00     0.030 A 
HETATM   25  N   UNL     1       5.083  34.198  61.200  1.00  0.00    -0.358 N 
HETATM   26  C   UNL     1       7.280  33.398  64.093  1.00  0.00     0.002 A 
HETATM   27  C   UNL     1       8.025  32.408  63.459  1.00  0.00     0.001 A 
HETATM   28  H   UNL     1       4.420  34.929  61.416  1.00  0.00     0.166 HD
HETATM   29  C   UNL     1       5.189  33.562  59.988  1.00  0.00     0.018 A 
HETATM   30  C   UNL     1       4.293  33.921  58.855  1.00  0.00     0.069 C 
ENDBRANCH  19  20
ENDBRANCH   2  18
TORSDOF 4
ENDMDL
MODEL 10
REMARK VINA RESULT:      -9.4      2.098     10.347
REMARK  4 active torsions:
REMARK  status: ('A' for Active; 'I' for Inactive)
REMARK    1  A    between atoms: C_3  and  C_4 
REMARK       I    between atoms: C_4  and  N_5 
REMARK    2  A    between atoms: N_5  and  N_6 
REMARK    3  A    between atoms: C_7  and  C_8 
REMARK    4  A    between atoms: C_23  and  C_24 
ROOT
HETATM    1  C   UNL     1       7.098  31.463  58.837  1.00  0.00     0.290 C 
HETATM    2  N   UNL     1       7.609  31.680  60.109  1.00  0.00    -0.242 N 
HETATM    3  O   UNL     1       6.428  32.278  58.209  1.00  0.00    -0.264 OA
HETATM    4  H   UNL     1       8.114  30.932  60.562  1.00  0.00     0.192 HD
ENDROOT
BRANCH   1   5
HETATM    5  C   UNL     1       7.441  30.189  58.244  1.00  0.00     0.127 A 
HETATM    6  C   UNL     1       6.738  29.153  57.634  1.00  0.00     0.003 A 
HETATM    7  C   UNL     1       5.288  29.073  57.311  1.00  0.00     0.053 C 
HETATM    8  C   UNL     1       7.735  28.164  57.324  1.00  0.00     0.095 A 
HETATM    9  N   UNL     1       8.959  28.605  57.644  1.00  0.00    -0.173 NA
HETATM   10  N   UNL     1       8.756  29.817  58.163  1.00  0.00    -0.272 N 
HETATM   11  H   UNL     1       9.557  30.362  58.468  1.00  0.00     0.189 HD
BRANCH   8  12
HETATM   12  C   UNL     1       7.561  26.843  56.720  1.00  0.00    -0.005 A 
HETATM   13  C   UNL     1       7.607  25.679  57.500  1.00  0.00     0.014 A 
HETATM   14  C   UNL     1       7.437  24.424  56.910  1.00  0.00     0.001 A 
HETATM   15  C   UNL     1       7.231  24.320  55.535  1.00  0.00     0.000 A 
HETATM   16  C   UNL     1       7.199  25.468  54.747  1.00  0.00     0.001 A 
HETATM   17  C   UNL     1       7.367  26.724  55.337  1.00  0.00     0.014 A 
ENDBRANCH   8  12
ENDBRANCH   1   5
BRANCH   2  18
HETATM   18  N   UNL     1       7.345  32.731  60.952  1.00  0.00    -0.183 NA
HETATM   19  C   UNL     1       6.246  32.754  61.636  1.00  0.00     0.153 C 
BRANCH  19  20
HETATM   20  C   UNL     1       5.999  33.842  62.569  1.00  0.00     0.018 A 
HETATM   21  C   UNL     1       5.093  34.937  62.359  1.00  0.00     0.004 A 
HETATM   22  C   UNL     1       5.147  35.751  63.490  1.00  0.00     0.043 A 
HETATM   23  C   UNL     1       4.227  35.312  61.309  1.00  0.00     0.014 A 
HETATM   24  C   UNL     1       4.385  36.917  63.627  1.00  0.00     0.030 A 
HETATM   25  N   UNL     1       6.048  35.179  64.355  1.00  0.00    -0.358 N 
HETATM   26  C   UNL     1       3.536  37.264  62.572  1.00  0.00     0.002 A 
HETATM   27  C   UNL     1       3.457  36.476  61.428  1.00  0.00     0.001 A 
HETATM   28  H   UNL     1       6.284  35.559  65.262  1.00  0.00     0.166 HD
HETATM   29  C   UNL     1       6.573  34.028  63.821  1.00  0.00     0.018 A 
HETATM   30  C   UNL     1       7.569  33.221  64.575  1.00  0.00     0.069 C 
ENDBRANCH  19  20
ENDBRANCH   2  18
TORSDOF 4
ENDMDL
