MODEL 1
REMARK VINA RESULT:      -7.8      0.000      0.000
REMARK  5 active torsions:
REMARK  status: ('A' for Active; 'I' for Inactive)
REMARK    1  A    between atoms: C_2  and  O_3 
REMARK    2  A    between atoms: O_3  and  C_4 
REMARK    3  A    between atoms: C_9  and  C_10 
REMARK       I    between atoms: C_10  and  N_11 
REMARK    4  A    between atoms: N_11  and  C_12 
REMARK    5  A    between atoms: C_12  and  C_13 
ROOT
HETATM    1  C   UNL     1       7.631  31.300  59.261  1.00  0.00     0.256 C 
HETATM    2  N   UNL     1       7.634  30.801  60.540  1.00  0.00    -0.348 N 
HETATM    3  O   UNL     1       8.312  32.266  58.930  1.00  0.00    -0.267 OA
HETATM    4  H   UNL     1       7.085  29.972  60.742  1.00  0.00     0.163 HD
ENDROOT
BRANCH   1   5
HETATM    5  C   UNL     1       6.742  30.641  58.261  1.00  0.00     0.084 A 
HETATM    6  C   UNL     1       6.917  29.353  57.753  1.00  0.00     0.180 A 
HETATM    7  N   UNL     1       6.077  28.781  56.852  1.00  0.00    -0.236 NA
HETATM    8  C   UNL     1       5.022  29.513  56.436  1.00  0.00     0.119 A 
HETATM    9  C   UNL     1       4.762  30.798  56.873  1.00  0.00     0.020 A 
HETATM   10  C   UNL     1       5.636  31.367  57.796  1.00  0.00     0.023 A 
BRANCH   6  11
HETATM   11  O   UNL     1       8.006  28.614  58.177  1.00  0.00    -0.334 OA
BRANCH  11  12
HETATM   12  C   UNL     1       8.906  28.241  57.131  1.00  0.00     0.173 C 
HETATM   13  C   UNL     1      10.004  29.288  57.078  1.00  0.00     0.034 C 
ENDBRANCH  11  12
ENDBRANCH   6  11
ENDBRANCH   1   5
BRANCH   2  14
HETATM   14  C   UNL     1       8.449  31.351  61.607  1.00  0.00     0.114 C 
HETATM   15  C   UNL     1       9.415  30.299  62.154  1.00  0.00     0.037 C 
BRANCH  14  16
HETATM   16  C   UNL     1       7.529  31.953  62.657  1.00  0.00    -0.036 A 
HETATM   17  C   UNL     1       6.133  31.811  62.607  1.00  0.00     0.010 A 
HETATM   18  C   UNL     1       5.318  32.426  63.562  1.00  0.00     0.019 A 
HETATM   19  C   UNL     1       5.892  33.200  64.568  1.00  0.00     0.011 A 
HETATM   20 BR   UNL     1       4.789  34.041  65.851  1.00  0.00    -0.051 Br
HETATM   21  C   UNL     1       7.273  33.367  64.628  1.00  0.00     0.019 A 
HETATM   22  C   UNL     1       8.085  32.750  63.673  1.00  0.00     0.010 A 
ENDBRANCH  14  16
ENDBRANCH   2  14
TORSDOF 5
ENDMDL
MODEL 2
REMARK VINA RESULT:      -7.8      5.563      9.373
REMARK  5 active torsions:
REMARK  status: ('A' for Active; 'I' for Inactive)
REMARK    1  A    between atoms: C_2  and  O_3 
REMARK    2  A    between atoms: O_3  and  C_4 
REMARK    3  A    between atoms: C_9  and  C_10 
REMARK       I    between atoms: C_10  and  N_11 
REMARK    4  A    between atoms: N_11  and  C_12 
REMARK    5  A    between atoms: C_12  and  C_13 
ROOT
HETATM    1  C   UNL     1       7.914  28.060  54.973  1.00  0.00     0.256 C 
HETATM    2  N   UNL     1       7.178  26.905  55.058  1.00  0.00    -0.348 N 
HETATM    3  O   UNL     1       8.299  28.518  53.901  1.00  0.00    -0.267 OA
HETATM    4  H   UNL     1       6.849  26.601  55.969  1.00  0.00     0.163 HD
ENDROOT
BRANCH   1   5
HETATM    5  C   UNL     1       8.265  28.755  56.245  1.00  0.00     0.084 A 
HETATM    6  C   UNL     1       7.444  28.838  57.372  1.00  0.00     0.180 A 
HETATM    7  N   UNL     1       7.805  29.469  58.519  1.00  0.00    -0.236 NA
HETATM    8  C   UNL     1       9.027  30.041  58.553  1.00  0.00     0.119 A 
HETATM    9  C   UNL     1       9.913  30.020  57.493  1.00  0.00     0.020 A 
HETATM   10  C   UNL     1       9.524  29.370  56.325  1.00  0.00     0.023 A 
BRANCH   6  11
HETATM   11  O   UNL     1       6.191  28.257  57.323  1.00  0.00    -0.334 OA
BRANCH  11  12
HETATM   12  C   UNL     1       5.111  29.193  57.286  1.00  0.00     0.173 C 
HETATM   13  C   UNL     1       4.246  28.847  56.086  1.00  0.00     0.034 C 
ENDBRANCH  11  12
ENDBRANCH   6  11
ENDBRANCH   1   5
BRANCH   2  14
HETATM   14  C   UNL     1       6.773  26.132  53.900  1.00  0.00     0.114 C 
HETATM   15  C   UNL     1       5.267  26.253  53.660  1.00  0.00     0.037 C 
BRANCH  14  16
HETATM   16  C   UNL     1       7.259  24.702  54.078  1.00  0.00    -0.036 A 
HETATM   17  C   UNL     1       7.764  23.940  53.012  1.00  0.00     0.010 A 
HETATM   18  C   UNL     1       8.150  22.610  53.205  1.00  0.00     0.019 A 
HETATM   19  C   UNL     1       8.022  22.027  54.464  1.00  0.00     0.011 A 
HETATM   20 BR   UNL     1       8.532  20.226  54.720  1.00  0.00    -0.051 Br
HETATM   21  C   UNL     1       7.509  22.759  55.531  1.00  0.00     0.019 A 
HETATM   22  C   UNL     1       7.126  24.089  55.335  1.00  0.00     0.010 A 
ENDBRANCH  14  16
ENDBRANCH   2  14
TORSDOF 5
ENDMDL
MODEL 3
REMARK VINA RESULT:      -7.6      5.844      9.549
REMARK  5 active torsions:
REMARK  status: ('A' for Active; 'I' for Inactive)
REMARK    1  A    between atoms: C_2  and  O_3 
REMARK    2  A    between atoms: O_3  and  C_4 
REMARK    3  A    between atoms: C_9  and  C_10 
REMARK       I    between atoms: C_10  and  N_11 
REMARK    4  A    between atoms: N_11  and  C_12 
REMARK    5  A    between atoms: C_12  and  C_13 
ROOT
HETATM    1  C   UNL     1       7.176  27.776  54.679  1.00  0.00     0.256 C 
HETATM    2  N   UNL     1       6.524  26.569  54.648  1.00  0.00    -0.348 N 
HETATM    3  O   UNL     1       7.688  28.273  53.680  1.00  0.00    -0.267 OA
HETATM    4  H   UNL     1       6.082  26.230  55.497  1.00  0.00     0.163 HD
ENDROOT
BRANCH   1   5
HETATM    5  C   UNL     1       7.275  28.479  55.991  1.00  0.00     0.084 A 
HETATM    6  C   UNL     1       7.976  28.013  57.104  1.00  0.00     0.180 A 
HETATM    7  N   UNL     1       8.054  28.689  58.280  1.00  0.00    -0.236 NA
HETATM    8  C   UNL     1       7.413  29.874  58.356  1.00  0.00     0.119 A 
HETATM    9  C   UNL     1       6.688  30.422  57.315  1.00  0.00     0.020 A 
HETATM   10  C   UNL     1       6.618  29.712  56.119  1.00  0.00     0.023 A 
BRANCH   6  11
HETATM   11  O   UNL     1       8.622  26.794  57.019  1.00  0.00    -0.334 OA
BRANCH  11  12
HETATM   12  C   UNL     1       8.016  25.753  57.789  1.00  0.00     0.173 C 
HETATM   13  C   UNL     1       8.954  24.558  57.762  1.00  0.00     0.034 C 
ENDBRANCH  11  12
ENDBRANCH   6  11
ENDBRANCH   1   5
BRANCH   2  14
HETATM   14  C   UNL     1       6.362  25.782  53.440  1.00  0.00     0.114 C 
HETATM   15  C   UNL     1       4.913  25.822  52.952  1.00  0.00     0.037 C 
BRANCH  14  16
HETATM   16  C   UNL     1       6.890  24.380  53.701  1.00  0.00    -0.036 A 
HETATM   17  C   UNL     1       6.864  23.789  54.974  1.00  0.00     0.010 A 
HETATM   18  C   UNL     1       7.409  22.520  55.184  1.00  0.00     0.019 A 
HETATM   19  C   UNL     1       7.996  21.834  54.123  1.00  0.00     0.011 A 
HETATM   20 BR   UNL     1       8.743  20.122  54.410  1.00  0.00    -0.051 Br
HETATM   21  C   UNL     1       8.048  22.407  52.855  1.00  0.00     0.019 A 
HETATM   22  C   UNL     1       7.501  23.676  52.648  1.00  0.00     0.010 A 
ENDBRANCH  14  16
ENDBRANCH   2  14
TORSDOF 5
ENDMDL
MODEL 4
REMARK VINA RESULT:      -7.4      5.745      9.351
REMARK  5 active torsions:
REMARK  status: ('A' for Active; 'I' for Inactive)
REMARK    1  A    between atoms: C_2  and  O_3 
REMARK    2  A    between atoms: O_3  and  C_4 
REMARK    3  A    between atoms: C_9  and  C_10 
REMARK       I    between atoms: C_10  and  N_11 
REMARK    4  A    between atoms: N_11  and  C_12 
REMARK    5  A    between atoms: C_12  and  C_13 
ROOT
HETATM    1  C   UNL     1       6.400  27.713  54.219  1.00  0.00     0.256 C 
HETATM    2  N   UNL     1       6.093  26.381  54.340  1.00  0.00    -0.348 N 
HETATM    3  O   UNL     1       6.861  28.191  53.187  1.00  0.00    -0.267 OA
HETATM    4  H   UNL     1       5.671  26.052  55.203  1.00  0.00     0.163 HD
ENDROOT
BRANCH   1   5
HETATM    5  C   UNL     1       6.178  28.587  55.407  1.00  0.00     0.084 A 
HETATM    6  C   UNL     1       7.185  29.189  56.164  1.00  0.00     0.180 A 
HETATM    7  N   UNL     1       6.943  29.991  57.233  1.00  0.00    -0.236 NA
HETATM    8  C   UNL     1       5.653  30.207  57.566  1.00  0.00     0.119 A 
HETATM    9  C   UNL     1       4.584  29.656  56.886  1.00  0.00     0.020 A 
HETATM   10  C   UNL     1       4.853  28.835  55.794  1.00  0.00     0.023 A 
BRANCH   6  11
HETATM   11  O   UNL     1       8.503  28.954  55.821  1.00  0.00    -0.334 OA
BRANCH  11  12
HETATM   12  C   UNL     1       9.394  28.866  56.936  1.00  0.00     0.173 C 
HETATM   13  C   UNL     1      10.625  29.690  56.604  1.00  0.00     0.034 C 
ENDBRANCH  11  12
ENDBRANCH   6  11
ENDBRANCH   1   5
BRANCH   2  14
HETATM   14  C   UNL     1       6.265  25.423  53.264  1.00  0.00     0.114 C 
HETATM   15  C   UNL     1       4.931  25.129  52.575  1.00  0.00     0.037 C 
BRANCH  14  16
HETATM   16  C   UNL     1       6.962  24.191  53.818  1.00  0.00    -0.036 A 
HETATM   17  C   UNL     1       7.507  23.197  52.990  1.00  0.00     0.010 A 
HETATM   18  C   UNL     1       8.091  22.052  53.538  1.00  0.00     0.019 A 
HETATM   19  C   UNL     1       8.123  21.884  54.921  1.00  0.00     0.011 A 
HETATM   20 BR   UNL     1       8.902  20.329  55.660  1.00  0.00    -0.051 Br
HETATM   21  C   UNL     1       7.574  22.849  55.761  1.00  0.00     0.019 A 
HETATM   22  C   UNL     1       6.992  23.994  55.210  1.00  0.00     0.010 A 
ENDBRANCH  14  16
ENDBRANCH   2  14
TORSDOF 5
ENDMDL
MODEL 5
REMARK VINA RESULT:      -7.3      5.621      9.541
REMARK  5 active torsions:
REMARK  status: ('A' for Active; 'I' for Inactive)
REMARK    1  A    between atoms: C_2  and  O_3 
REMARK    2  A    between atoms: O_3  and  C_4 
REMARK    3  A    between atoms: C_9  and  C_10 
REMARK       I    between atoms: C_10  and  N_11 
REMARK    4  A    between atoms: N_11  and  C_12 
REMARK    5  A    between atoms: C_12  and  C_13 
ROOT
HETATM    1  C   UNL     1       7.430  27.902  54.683  1.00  0.00     0.256 C 
HETATM    2  N   UNL     1       6.593  26.815  54.679  1.00  0.00    -0.348 N 
HETATM    3  O   UNL     1       8.103  28.218  53.706  1.00  0.00    -0.267 OA
HETATM    4  H   UNL     1       6.027  26.631  55.502  1.00  0.00     0.163 HD
ENDROOT
BRANCH   1   5
HETATM    5  C   UNL     1       7.527  28.700  55.940  1.00  0.00     0.084 A 
HETATM    6  C   UNL     1       6.544  29.567  56.422  1.00  0.00     0.180 A 
HETATM    7  N   UNL     1       6.662  30.267  57.579  1.00  0.00    -0.236 NA
HETATM    8  C   UNL     1       7.799  30.103  58.288  1.00  0.00     0.119 A 
HETATM    9  C   UNL     1       8.833  29.275  57.898  1.00  0.00     0.020 A 
HETATM   10  C   UNL     1       8.693  28.566  56.707  1.00  0.00     0.023 A 
BRANCH   6  11
HETATM   11  O   UNL     1       5.388  29.735  55.683  1.00  0.00    -0.334 OA
BRANCH  11  12
HETATM   12  C   UNL     1       4.215  29.193  56.295  1.00  0.00     0.173 C 
HETATM   13  C   UNL     1       3.258  30.345  56.550  1.00  0.00     0.034 C 
ENDBRANCH  11  12
ENDBRANCH   6  11
ENDBRANCH   1   5
BRANCH   2  14
HETATM   14  C   UNL     1       6.410  25.955  53.525  1.00  0.00     0.114 C 
HETATM   15  C   UNL     1       4.965  26.011  53.025  1.00  0.00     0.037 C 
BRANCH  14  16
HETATM   16  C   UNL     1       6.887  24.556  53.883  1.00  0.00    -0.036 A 
HETATM   17  C   UNL     1       6.928  24.089  55.206  1.00  0.00     0.010 A 
HETATM   18  C   UNL     1       7.425  22.817  55.500  1.00  0.00     0.019 A 
HETATM   19  C   UNL     1       7.898  22.003  54.472  1.00  0.00     0.011 A 
HETATM   20 BR   UNL     1       8.581  20.287  54.871  1.00  0.00    -0.051 Br
HETATM   21  C   UNL     1       7.881  22.452  53.154  1.00  0.00     0.019 A 
HETATM   22  C   UNL     1       7.382  23.724  52.864  1.00  0.00     0.010 A 
ENDBRANCH  14  16
ENDBRANCH   2  14
TORSDOF 5
ENDMDL
MODEL 6
REMARK VINA RESULT:      -7.3      6.211      8.975
REMARK  5 active torsions:
REMARK  status: ('A' for Active; 'I' for Inactive)
REMARK    1  A    between atoms: C_2  and  O_3 
REMARK    2  A    between atoms: O_3  and  C_4 
REMARK    3  A    between atoms: C_9  and  C_10 
REMARK       I    between atoms: C_10  and  N_11 
REMARK    4  A    between atoms: N_11  and  C_12 
REMARK    5  A    between atoms: C_12  and  C_13 
ROOT
HETATM    1  C   UNL     1       7.276  24.287  53.597  1.00  0.00     0.256 C 
HETATM    2  N   UNL     1       6.078  24.786  54.042  1.00  0.00    -0.348 N 
HETATM    3  O   UNL     1       8.050  24.947  52.909  1.00  0.00    -0.267 OA
HETATM    4  H   UNL     1       5.502  24.209  54.646  1.00  0.00     0.163 HD
ENDROOT
BRANCH   1   5
HETATM    5  C   UNL     1       7.619  22.880  53.957  1.00  0.00     0.084 A 
HETATM    6  C   UNL     1       7.664  22.369  55.256  1.00  0.00     0.180 A 
HETATM    7  N   UNL     1       7.968  21.077  55.543  1.00  0.00    -0.236 NA
HETATM    8  C   UNL     1       8.237  20.258  54.505  1.00  0.00     0.119 A 
HETATM    9  C   UNL     1       8.224  20.665  53.185  1.00  0.00     0.020 A 
HETATM   10  C   UNL     1       7.912  21.994  52.910  1.00  0.00     0.023 A 
BRANCH   6  11
HETATM   11  O   UNL     1       7.397  23.218  56.313  1.00  0.00    -0.334 OA
BRANCH  11  12
HETATM   12  C   UNL     1       8.544  23.567  57.091  1.00  0.00     0.173 C 
HETATM   13  C   UNL     1       8.553  25.078  57.242  1.00  0.00     0.034 C 
ENDBRANCH  11  12
ENDBRANCH   6  11
ENDBRANCH   1   5
BRANCH   2  14
HETATM   14  C   UNL     1       5.624  26.135  53.760  1.00  0.00     0.114 C 
HETATM   15  C   UNL     1       5.984  26.546  52.331  1.00  0.00     0.037 C 
BRANCH  14  16
HETATM   16  C   UNL     1       6.173  27.065  54.830  1.00  0.00    -0.036 A 
HETATM   17  C   UNL     1       7.318  27.852  54.628  1.00  0.00     0.010 A 
HETATM   18  C   UNL     1       7.824  28.654  55.655  1.00  0.00     0.019 A 
HETATM   19  C   UNL     1       7.195  28.666  56.898  1.00  0.00     0.011 A 
HETATM   20 BR   UNL     1       7.887  29.740  58.290  1.00  0.00    -0.051 Br
HETATM   21  C   UNL     1       6.068  27.882  57.126  1.00  0.00     0.019 A 
HETATM   22  C   UNL     1       5.564  27.082  56.096  1.00  0.00     0.010 A 
ENDBRANCH  14  16
ENDBRANCH   2  14
TORSDOF 5
ENDMDL
MODEL 7
REMARK VINA RESULT:      -7.3      8.774     10.955
REMARK  5 active torsions:
REMARK  status: ('A' for Active; 'I' for Inactive)
REMARK    1  A    between atoms: C_2  and  O_3 
REMARK    2  A    between atoms: O_3  and  C_4 
REMARK    3  A    between atoms: C_9  and  C_10 
REMARK       I    between atoms: C_10  and  N_11 
REMARK    4  A    between atoms: N_11  and  C_12 
REMARK    5  A    between atoms: C_12  and  C_13 
ROOT
HETATM    1  C   UNL     1       5.205  27.208  51.715  1.00  0.00     0.256 C 
HETATM    2  N   UNL     1       6.396  26.738  52.210  1.00  0.00    -0.348 N 
HETATM    3  O   UNL     1       4.237  27.434  52.434  1.00  0.00    -0.267 OA
HETATM    4  H   UNL     1       7.176  26.614  51.572  1.00  0.00     0.163 HD
ENDROOT
BRANCH   1   5
HETATM    5  C   UNL     1       5.102  27.422  50.242  1.00  0.00     0.084 A 
HETATM    6  C   UNL     1       5.513  28.572  49.565  1.00  0.00     0.180 A 
HETATM    7  N   UNL     1       5.415  28.725  48.219  1.00  0.00    -0.236 NA
HETATM    8  C   UNL     1       4.890  27.700  47.515  1.00  0.00     0.119 A 
HETATM    9  C   UNL     1       4.449  26.523  48.089  1.00  0.00     0.020 A 
HETATM   10  C   UNL     1       4.557  26.386  49.470  1.00  0.00     0.023 A 
BRANCH   6  11
HETATM   11  O   UNL     1       6.040  29.620  50.296  1.00  0.00    -0.334 OA
BRANCH  11  12
HETATM   12  C   UNL     1       5.142  30.716  50.483  1.00  0.00     0.173 C 
HETATM   13  C   UNL     1       5.876  31.984  50.082  1.00  0.00     0.034 C 
ENDBRANCH  11  12
ENDBRANCH   6  11
ENDBRANCH   1   5
BRANCH   2  14
HETATM   14  C   UNL     1       6.627  26.484  53.619  1.00  0.00     0.114 C 
HETATM   15  C   UNL     1       7.667  27.452  54.187  1.00  0.00     0.037 C 
BRANCH  14  16
HETATM   16  C   UNL     1       6.987  25.017  53.795  1.00  0.00    -0.036 A 
HETATM   17  C   UNL     1       6.934  24.371  55.040  1.00  0.00     0.010 A 
HETATM   18  C   UNL     1       7.324  23.036  55.170  1.00  0.00     0.019 A 
HETATM   19  C   UNL     1       7.784  22.337  54.056  1.00  0.00     0.011 A 
HETATM   20 BR   UNL     1       8.324  20.535  54.236  1.00  0.00    -0.051 Br
HETATM   21  C   UNL     1       7.860  22.961  52.815  1.00  0.00     0.019 A 
HETATM   22  C   UNL     1       7.467  24.296  52.687  1.00  0.00     0.010 A 
ENDBRANCH  14  16
ENDBRANCH   2  14
TORSDOF 5
ENDMDL
MODEL 8
REMARK VINA RESULT:      -7.3      1.347      2.660
REMARK  5 active torsions:
REMARK  status: ('A' for Active; 'I' for Inactive)
REMARK    1  A    between atoms: C_2  and  O_3 
REMARK    2  A    between atoms: O_3  and  C_4 
REMARK    3  A    between atoms: C_9  and  C_10 
REMARK       I    between atoms: C_10  and  N_11 
REMARK    4  A    between atoms: N_11  and  C_12 
REMARK    5  A    between atoms: C_12  and  C_13 
ROOT
HETATM    1  C   UNL     1       7.977  31.149  59.097  1.00  0.00     0.256 C 
HETATM    2  N   UNL     1       7.667  30.901  60.411  1.00  0.00    -0.348 N 
HETATM    3  O   UNL     1       8.957  31.811  58.766  1.00  0.00    -0.267 OA
HETATM    4  H   UNL     1       6.870  30.309  60.622  1.00  0.00     0.163 HD
ENDROOT
BRANCH   1   5
HETATM    5  C   UNL     1       7.063  30.604  58.053  1.00  0.00     0.084 A 
HETATM    6  C   UNL     1       5.694  30.866  57.964  1.00  0.00     0.180 A 
HETATM    7  N   UNL     1       4.895  30.361  56.989  1.00  0.00    -0.236 NA
HETATM    8  C   UNL     1       5.472  29.565  56.065  1.00  0.00     0.119 A 
HETATM    9  C   UNL     1       6.816  29.240  56.065  1.00  0.00     0.020 A 
HETATM   10  C   UNL     1       7.618  29.767  57.074  1.00  0.00     0.023 A 
BRANCH   6  11
HETATM   11  O   UNL     1       5.110  31.674  58.921  1.00  0.00    -0.334 OA
BRANCH  11  12
HETATM   12  C   UNL     1       3.698  31.497  59.058  1.00  0.00     0.173 C 
HETATM   13  C   UNL     1       3.223  32.432  60.157  1.00  0.00     0.034 C 
ENDBRANCH  11  12
ENDBRANCH   6  11
ENDBRANCH   1   5
BRANCH   2  14
HETATM   14  C   UNL     1       8.470  31.377  61.522  1.00  0.00     0.114 C 
HETATM   15  C   UNL     1       9.396  30.274  62.039  1.00  0.00     0.037 C 
BRANCH  14  16
HETATM   16  C   UNL     1       7.541  31.953  62.579  1.00  0.00    -0.036 A 
HETATM   17  C   UNL     1       6.148  31.787  62.530  1.00  0.00     0.010 A 
HETATM   18  C   UNL     1       5.324  32.378  63.491  1.00  0.00     0.019 A 
HETATM   19  C   UNL     1       5.886  33.152  64.504  1.00  0.00     0.011 A 
HETATM   20 BR   UNL     1       4.769  33.961  65.796  1.00  0.00    -0.051 Br
HETATM   21  C   UNL     1       7.263  33.343  64.564  1.00  0.00     0.019 A 
HETATM   22  C   UNL     1       8.085  32.750  63.602  1.00  0.00     0.010 A 
ENDBRANCH  14  16
ENDBRANCH   2  14
TORSDOF 5
ENDMDL
MODEL 9
REMARK VINA RESULT:      -7.2      3.247      6.720
REMARK  5 active torsions:
REMARK  status: ('A' for Active; 'I' for Inactive)
REMARK    1  A    between atoms: C_2  and  O_3 
REMARK    2  A    between atoms: O_3  and  C_4 
REMARK    3  A    between atoms: C_9  and  C_10 
REMARK       I    between atoms: C_10  and  N_11 
REMARK    4  A    between atoms: N_11  and  C_12 
REMARK    5  A    between atoms: C_12  and  C_13 
ROOT
HETATM    1  C   UNL     1       7.919  31.412  62.252  1.00  0.00     0.256 C 
HETATM    2  N   UNL     1       7.818  31.722  60.919  1.00  0.00    -0.348 N 
HETATM    3  O   UNL     1       8.624  30.495  62.663  1.00  0.00    -0.267 OA
HETATM    4  H   UNL     1       7.255  32.521  60.643  1.00  0.00     0.163 HD
ENDROOT
BRANCH   1   5
HETATM    5  C   UNL     1       7.115  32.218  63.215  1.00  0.00     0.084 A 
HETATM    6  C   UNL     1       5.720  32.258  63.264  1.00  0.00     0.180 A 
HETATM    7  N   UNL     1       5.022  32.995  64.167  1.00  0.00    -0.236 NA
HETATM    8  C   UNL     1       5.732  33.721  65.056  1.00  0.00     0.119 A 
HETATM    9  C   UNL     1       7.113  33.754  65.089  1.00  0.00     0.020 A 
HETATM   10  C   UNL     1       7.810  32.993  64.155  1.00  0.00     0.023 A 
BRANCH   6  11
HETATM   11  O   UNL     1       5.002  31.519  62.343  1.00  0.00    -0.334 OA
BRANCH  11  12
HETATM   12  C   UNL     1       3.869  32.200  61.799  1.00  0.00     0.173 C 
HETATM   13  C   UNL     1       4.379  33.164  60.742  1.00  0.00     0.034 C 
ENDBRANCH  11  12
ENDBRANCH   6  11
ENDBRANCH   1   5
BRANCH   2  14
HETATM   14  C   UNL     1       8.543  31.015  59.880  1.00  0.00     0.114 C 
HETATM   15  C   UNL     1       9.635  31.900  59.275  1.00  0.00     0.037 C 
BRANCH  14  16
HETATM   16  C   UNL     1       7.542  30.486  58.865  1.00  0.00    -0.036 A 
HETATM   17  C   UNL     1       6.389  31.200  58.501  1.00  0.00     0.010 A 
HETATM   18  C   UNL     1       5.465  30.656  57.605  1.00  0.00     0.019 A 
HETATM   19  C   UNL     1       5.679  29.386  57.074  1.00  0.00     0.011 A 
HETATM   20 BR   UNL     1       4.423  28.646  55.872  1.00  0.00    -0.051 Br
HETATM   21  C   UNL     1       6.807  28.654  57.432  1.00  0.00     0.019 A 
HETATM   22  C   UNL     1       7.731  29.201  58.327  1.00  0.00     0.010 A 
ENDBRANCH  14  16
ENDBRANCH   2  14
TORSDOF 5
ENDMDL
MODEL 10
REMARK VINA RESULT:      -7.2      8.108     11.022
REMARK  5 active torsions:
REMARK  status: ('A' for Active; 'I' for Inactive)
REMARK    1  A    between atoms: C_2  and  O_3 
REMARK    2  A    between atoms: O_3  and  C_4 
REMARK    3  A    between atoms: C_9  and  C_10 
REMARK       I    between atoms: C_10  and  N_11 
REMARK    4  A    between atoms: N_11  and  C_12 
REMARK    5  A    between atoms: C_12  and  C_13 
ROOT
HETATM    1  C   UNL     1       7.414  24.897  53.533  1.00  0.00     0.256 C 
HETATM    2  N   UNL     1       6.245  25.526  53.882  1.00  0.00    -0.348 N 
HETATM    3  O   UNL     1       8.311  25.469  52.920  1.00  0.00    -0.267 OA
HETATM    4  H   UNL     1       5.560  25.015  54.429  1.00  0.00     0.163 HD
ENDROOT
BRANCH   1   5
HETATM    5  C   UNL     1       7.568  23.461  53.905  1.00  0.00     0.084 A 
HETATM    6  C   UNL     1       7.450  22.946  55.197  1.00  0.00     0.180 A 
HETATM    7  N   UNL     1       7.583  21.627  55.495  1.00  0.00    -0.236 NA
HETATM    8  C   UNL     1       7.844  20.785  54.473  1.00  0.00     0.119 A 
HETATM    9  C   UNL     1       7.984  21.193  53.160  1.00  0.00     0.020 A 
HETATM   10  C   UNL     1       7.845  22.549  52.876  1.00  0.00     0.023 A 
BRANCH   6  11
HETATM   11  O   UNL     1       7.192  23.818  56.238  1.00  0.00    -0.334 OA
BRANCH  11  12
HETATM   12  C   UNL     1       8.339  24.148  57.026  1.00  0.00     0.173 C 
HETATM   13  C   UNL     1       8.259  25.629  57.353  1.00  0.00     0.034 C 
ENDBRANCH  11  12
ENDBRANCH   6  11
ENDBRANCH   1   5
BRANCH   2  14
HETATM   14  C   UNL     1       5.968  26.917  53.578  1.00  0.00     0.114 C 
HETATM   15  C   UNL     1       4.934  27.493  54.548  1.00  0.00     0.037 C 
BRANCH  14  16
HETATM   16  C   UNL     1       5.570  27.023  52.114  1.00  0.00    -0.036 A 
HETATM   17  C   UNL     1       5.554  28.245  51.424  1.00  0.00     0.010 A 
HETATM   18  C   UNL     1       5.130  28.310  50.095  1.00  0.00     0.019 A 
HETATM   19  C   UNL     1       4.705  27.153  49.446  1.00  0.00     0.011 A 
HETATM   20 BR   UNL     1       4.119  27.244  47.652  1.00  0.00    -0.051 Br
HETATM   21  C   UNL     1       4.696  25.933  50.115  1.00  0.00     0.019 A 
HETATM   22  C   UNL     1       5.123  25.871  51.445  1.00  0.00     0.010 A 
ENDBRANCH  14  16
ENDBRANCH   2  14
TORSDOF 5
ENDMDL
