MODEL 1
REMARK VINA RESULT:      -9.1      0.000      0.000
REMARK  3 active torsions:
REMARK  status: ('A' for Active; 'I' for Inactive)
REMARK    1  A    between atoms: C_3  and  N_4 
REMARK       I    between atoms: N_4  and  C_5 
REMARK    2  A    between atoms: C_5  and  C_6 
REMARK    3  A    between atoms: C_6  and  C_7 
ROOT
HETATM    1  C   UNL     1       7.278  27.354  55.778  1.00  0.00     0.286 C 
HETATM    2  N   UNL     1       8.379  28.362  55.441  1.00  0.00    -0.056 N 
HETATM    3  H   UNL     1       9.051  27.971  54.774  1.00  0.00     0.278 HD
HETATM    4  H   UNL     1       7.899  29.154  54.960  1.00  0.00     0.278 HD
HETATM    5  C   UNL     1       9.057  28.885  56.672  1.00  0.00     0.209 C 
HETATM    6  C   UNL     1       7.992  29.570  57.555  1.00  0.00     0.115 C 
HETATM    7  N   UNL     1       6.894  28.662  57.872  1.00  0.00    -0.353 N 
HETATM    8  C   UNL     1       6.349  27.817  56.929  1.00  0.00     0.249 C 
HETATM    9  O   UNL     1       5.211  27.384  57.074  1.00  0.00    -0.271 OA
HETATM   10  C   UNL     1      10.166  29.853  56.278  1.00  0.00     0.035 C 
HETATM   11  C   UNL     1      10.817  30.444  57.529  1.00  0.00     0.002 C 
HETATM   12  C   UNL     1       9.790  31.092  58.458  1.00  0.00     0.002 C 
HETATM   13  C   UNL     1       8.644  30.142  58.814  1.00  0.00     0.027 C 
HETATM   14  H   UNL     1       6.208  28.967  58.562  1.00  0.00     0.163 HD
ENDROOT
BRANCH   1  15
HETATM   15  C   UNL     1       6.477  26.996  54.520  1.00  0.00     0.146 C 
BRANCH  15  16
HETATM   16  C   UNL     1       6.394  25.494  54.373  1.00  0.00     0.224 C 
HETATM   17  N   UNL     1       7.615  24.862  54.415  1.00  0.00    -0.327 N 
HETATM   18  H   UNL     1       8.422  25.402  54.121  1.00  0.00     0.169 HD
HETATM   19  O   UNL     1       5.306  24.976  54.120  1.00  0.00    -0.273 OA
BRANCH  17  20
HETATM   20  C   UNL     1       7.776  23.459  54.360  1.00  0.00     0.040 A 
HETATM   21  C   UNL     1       7.997  22.653  55.493  1.00  0.00    -0.035 A 
HETATM   22  C   UNL     1       8.207  23.193  56.881  1.00  0.00     0.050 C 
HETATM   23  C   UNL     1       8.093  21.260  55.321  1.00  0.00     0.009 A 
HETATM   24  C   UNL     1       8.023  20.683  54.053  1.00  0.00     0.001 A 
HETATM   25  C   UNL     1       7.873  21.492  52.933  1.00  0.00     0.002 A 
HETATM   26  C   UNL     1       7.764  22.875  53.085  1.00  0.00     0.030 A 
ENDBRANCH  17  20
ENDBRANCH  15  16
ENDBRANCH   1  15
TORSDOF 3
ENDMDL
MODEL 2
REMARK VINA RESULT:      -9.1      1.354      7.624
REMARK  3 active torsions:
REMARK  status: ('A' for Active; 'I' for Inactive)
REMARK    1  A    between atoms: C_3  and  N_4 
REMARK       I    between atoms: N_4  and  C_5 
REMARK    2  A    between atoms: C_5  and  C_6 
REMARK    3  A    between atoms: C_6  and  C_7 
ROOT
HETATM    1  C   UNL     1       7.587  25.179  55.573  1.00  0.00     0.286 C 
HETATM    2  N   UNL     1       7.278  23.747  56.014  1.00  0.00    -0.056 N 
HETATM    3  H   UNL     1       7.477  23.612  57.010  1.00  0.00     0.278 HD
HETATM    4  H   UNL     1       6.249  23.630  55.891  1.00  0.00     0.278 HD
HETATM    5  C   UNL     1       7.983  22.733  55.164  1.00  0.00     0.209 C 
HETATM    6  C   UNL     1       7.524  22.927  53.702  1.00  0.00     0.115 C 
HETATM    7  N   UNL     1       7.759  24.293  53.243  1.00  0.00    -0.353 N 
HETATM    8  C   UNL     1       7.494  25.386  54.040  1.00  0.00     0.249 C 
HETATM    9  O   UNL     1       7.301  26.486  53.534  1.00  0.00    -0.271 OA
HETATM   10  C   UNL     1       7.671  21.330  55.668  1.00  0.00     0.035 C 
HETATM   11  C   UNL     1       8.330  20.287  54.764  1.00  0.00     0.002 C 
HETATM   12  C   UNL     1       7.941  20.472  53.297  1.00  0.00     0.002 C 
HETATM   13  C   UNL     1       8.202  21.896  52.798  1.00  0.00     0.027 C 
HETATM   14  H   UNL     1       7.622  24.493  52.254  1.00  0.00     0.163 HD
ENDROOT
BRANCH   1  15
HETATM   15  C   UNL     1       6.698  26.175  56.329  1.00  0.00     0.146 C 
BRANCH  15  16
HETATM   16  C   UNL     1       7.554  27.097  57.166  1.00  0.00     0.224 C 
HETATM   17  N   UNL     1       7.955  28.237  56.507  1.00  0.00    -0.327 N 
HETATM   18  H   UNL     1       8.028  28.181  55.497  1.00  0.00     0.169 HD
HETATM   19  O   UNL     1       7.913  26.730  58.285  1.00  0.00    -0.273 OA
BRANCH  17  20
HETATM   20  C   UNL     1       8.707  29.270  57.110  1.00  0.00     0.040 A 
HETATM   21  C   UNL     1       8.144  30.283  57.908  1.00  0.00    -0.035 A 
HETATM   22  C   UNL     1       6.665  30.461  58.122  1.00  0.00     0.050 C 
HETATM   23  C   UNL     1       9.000  31.231  58.498  1.00  0.00     0.009 A 
HETATM   24  C   UNL     1      10.373  31.209  58.261  1.00  0.00     0.001 A 
HETATM   25  C   UNL     1      10.913  30.246  57.417  1.00  0.00     0.002 A 
HETATM   26  C   UNL     1      10.082  29.290  56.832  1.00  0.00     0.030 A 
ENDBRANCH  17  20
ENDBRANCH  15  16
ENDBRANCH   1  15
TORSDOF 3
ENDMDL
MODEL 3
REMARK VINA RESULT:      -9.0      4.484      7.010
REMARK  3 active torsions:
REMARK  status: ('A' for Active; 'I' for Inactive)
REMARK    1  A    between atoms: C_3  and  N_4 
REMARK       I    between atoms: N_4  and  C_5 
REMARK    2  A    between atoms: C_5  and  C_6 
REMARK    3  A    between atoms: C_6  and  C_7 
ROOT
HETATM    1  C   UNL     1       5.634  27.013  51.240  1.00  0.00     0.286 C 
HETATM    2  N   UNL     1       4.595  26.042  50.674  1.00  0.00    -0.056 N 
HETATM    3  H   UNL     1       4.845  25.069  50.878  1.00  0.00     0.278 HD
HETATM    4  H   UNL     1       3.711  26.243  51.189  1.00  0.00     0.278 HD
HETATM    5  C   UNL     1       4.361  26.260  49.209  1.00  0.00     0.209 C 
HETATM    6  C   UNL     1       3.865  27.709  49.012  1.00  0.00     0.115 C 
HETATM    7  N   UNL     1       4.802  28.678  49.573  1.00  0.00    -0.353 N 
HETATM    8  C   UNL     1       5.414  28.480  50.792  1.00  0.00     0.249 C 
HETATM    9  O   UNL     1       5.850  29.435  51.425  1.00  0.00    -0.271 OA
HETATM   10  C   UNL     1       3.349  25.246  48.691  1.00  0.00     0.035 C 
HETATM   11  C   UNL     1       3.052  25.506  47.214  1.00  0.00     0.002 C 
HETATM   12  C   UNL     1       2.603  26.946  46.965  1.00  0.00     0.002 C 
HETATM   13  C   UNL     1       3.588  27.972  47.531  1.00  0.00     0.027 C 
HETATM   14  H   UNL     1       4.642  29.665  49.376  1.00  0.00     0.163 HD
ENDROOT
BRANCH   1  15
HETATM   15  C   UNL     1       5.700  26.896  52.768  1.00  0.00     0.146 C 
BRANCH  15  16
HETATM   16  C   UNL     1       5.772  25.441  53.170  1.00  0.00     0.224 C 
HETATM   17  N   UNL     1       7.054  24.983  53.376  1.00  0.00    -0.327 N 
HETATM   18  H   UNL     1       7.796  25.454  52.869  1.00  0.00     0.169 HD
HETATM   19  O   UNL     1       4.741  24.768  53.174  1.00  0.00    -0.273 OA
BRANCH  17  20
HETATM   20  C   UNL     1       7.360  23.676  53.818  1.00  0.00     0.040 A 
HETATM   21  C   UNL     1       7.355  23.288  55.171  1.00  0.00    -0.035 A 
HETATM   22  C   UNL     1       7.139  24.238  56.318  1.00  0.00     0.050 C 
HETATM   23  C   UNL     1       7.627  21.945  55.488  1.00  0.00     0.009 A 
HETATM   24  C   UNL     1       7.949  21.021  54.495  1.00  0.00     0.001 A 
HETATM   25  C   UNL     1       8.019  21.428  53.168  1.00  0.00     0.002 A 
HETATM   26  C   UNL     1       7.740  22.754  52.833  1.00  0.00     0.030 A 
ENDBRANCH  17  20
ENDBRANCH  15  16
ENDBRANCH   1  15
TORSDOF 3
ENDMDL
MODEL 4
REMARK VINA RESULT:      -8.7      2.164      3.630
REMARK  3 active torsions:
REMARK  status: ('A' for Active; 'I' for Inactive)
REMARK    1  A    between atoms: C_3  and  N_4 
REMARK       I    between atoms: N_4  and  C_5 
REMARK    2  A    between atoms: C_5  and  C_6 
REMARK    3  A    between atoms: C_6  and  C_7 
ROOT
HETATM    1  C   UNL     1       7.382  27.309  56.587  1.00  0.00     0.286 C 
HETATM    2  N   UNL     1       6.090  27.153  55.781  1.00  0.00    -0.056 N 
HETATM    3  H   UNL     1       6.168  26.395  55.096  1.00  0.00     0.278 HD
HETATM    4  H   UNL     1       5.361  26.866  56.470  1.00  0.00     0.278 HD
HETATM    5  C   UNL     1       5.669  28.441  55.141  1.00  0.00     0.209 C 
HETATM    6  C   UNL     1       5.451  29.485  56.257  1.00  0.00     0.115 C 
HETATM    7  N   UNL     1       6.643  29.643  57.084  1.00  0.00    -0.353 N 
HETATM    8  C   UNL     1       7.393  28.563  57.497  1.00  0.00     0.249 C 
HETATM    9  O   UNL     1       8.111  28.653  58.487  1.00  0.00    -0.271 OA
HETATM   10  C   UNL     1       4.403  28.221  54.323  1.00  0.00     0.035 C 
HETATM   11  C   UNL     1       3.927  29.544  53.722  1.00  0.00     0.002 C 
HETATM   12  C   UNL     1       3.743  30.624  54.789  1.00  0.00     0.002 C 
HETATM   13  C   UNL     1       4.995  30.813  55.650  1.00  0.00     0.027 C 
HETATM   14  H   UNL     1       6.655  30.405  57.761  1.00  0.00     0.163 HD
ENDROOT
BRANCH   1  15
HETATM   15  C   UNL     1       7.672  26.032  57.387  1.00  0.00     0.146 C 
BRANCH  15  16
HETATM   16  C   UNL     1       7.253  24.819  56.590  1.00  0.00     0.224 C 
HETATM   17  N   UNL     1       8.264  24.272  55.835  1.00  0.00    -0.327 N 
HETATM   18  H   UNL     1       9.006  24.898  55.538  1.00  0.00     0.169 HD
HETATM   19  O   UNL     1       6.066  24.488  56.581  1.00  0.00    -0.273 OA
BRANCH  17  20
HETATM   20  C   UNL     1       8.120  23.098  55.060  1.00  0.00     0.040 A 
HETATM   21  C   UNL     1       7.997  23.099  53.658  1.00  0.00    -0.035 A 
HETATM   22  C   UNL     1       7.884  24.346  52.824  1.00  0.00     0.050 C 
HETATM   23  C   UNL     1       7.910  21.865  52.988  1.00  0.00     0.009 A 
HETATM   24  C   UNL     1       7.892  20.662  53.693  1.00  0.00     0.001 A 
HETATM   25  C   UNL     1       7.946  20.674  55.082  1.00  0.00     0.002 A 
HETATM   26  C   UNL     1       8.044  21.887  55.763  1.00  0.00     0.030 A 
ENDBRANCH  17  20
ENDBRANCH  15  16
ENDBRANCH   1  15
TORSDOF 3
ENDMDL
MODEL 5
REMARK VINA RESULT:      -8.6      2.950      6.499
REMARK  3 active torsions:
REMARK  status: ('A' for Active; 'I' for Inactive)
REMARK    1  A    between atoms: C_3  and  N_4 
REMARK       I    between atoms: N_4  and  C_5 
REMARK    2  A    between atoms: C_5  and  C_6 
REMARK    3  A    between atoms: C_6  and  C_7 
ROOT
HETATM    1  C   UNL     1       6.997  25.452  55.988  1.00  0.00     0.286 C 
HETATM    2  N   UNL     1       7.382  24.511  54.844  1.00  0.00    -0.056 N 
HETATM    3  H   UNL     1       6.789  24.661  54.022  1.00  0.00     0.278 HD
HETATM    4  H   UNL     1       8.352  24.780  54.572  1.00  0.00     0.278 HD
HETATM    5  C   UNL     1       7.382  23.075  55.275  1.00  0.00     0.209 C 
HETATM    6  C   UNL     1       8.397  22.918  56.428  1.00  0.00     0.115 C 
HETATM    7  N   UNL     1       8.099  23.826  57.531  1.00  0.00    -0.353 N 
HETATM    8  C   UNL     1       7.725  25.136  57.319  1.00  0.00     0.249 C 
HETATM    9  O   UNL     1       7.878  25.972  58.202  1.00  0.00    -0.271 OA
HETATM   10  C   UNL     1       7.734  22.181  54.092  1.00  0.00     0.035 C 
HETATM   11  C   UNL     1       7.805  20.721  54.539  1.00  0.00     0.002 C 
HETATM   12  C   UNL     1       8.764  20.526  55.714  1.00  0.00     0.002 C 
HETATM   13  C   UNL     1       8.449  21.459  56.885  1.00  0.00     0.027 C 
HETATM   14  H   UNL     1       8.621  23.709  58.399  1.00  0.00     0.163 HD
ENDROOT
BRANCH   1  15
HETATM   15  C   UNL     1       7.202  26.914  55.570  1.00  0.00     0.146 C 
BRANCH  15  16
HETATM   16  C   UNL     1       7.098  27.040  54.068  1.00  0.00     0.224 C 
HETATM   17  N   UNL     1       5.821  27.285  53.616  1.00  0.00    -0.327 N 
HETATM   18  H   UNL     1       5.057  26.955  54.197  1.00  0.00     0.169 HD
HETATM   19  O   UNL     1       8.091  26.810  53.377  1.00  0.00    -0.273 OA
BRANCH  17  20
HETATM   20  C   UNL     1       5.495  27.501  52.258  1.00  0.00     0.040 A 
HETATM   21  C   UNL     1       5.099  26.477  51.378  1.00  0.00    -0.035 A 
HETATM   22  C   UNL     1       5.086  25.016  51.738  1.00  0.00     0.050 C 
HETATM   23  C   UNL     1       4.750  26.819  50.059  1.00  0.00     0.009 A 
HETATM   24  C   UNL     1       4.842  28.135  49.607  1.00  0.00     0.001 A 
HETATM   25  C   UNL     1       5.300  29.129  50.463  1.00  0.00     0.002 A 
HETATM   26  C   UNL     1       5.639  28.811  51.779  1.00  0.00     0.030 A 
ENDBRANCH  17  20
ENDBRANCH  15  16
ENDBRANCH   1  15
TORSDOF 3
ENDMDL
MODEL 6
REMARK VINA RESULT:      -8.4      1.674      2.004
REMARK  3 active torsions:
REMARK  status: ('A' for Active; 'I' for Inactive)
REMARK    1  A    between atoms: C_3  and  N_4 
REMARK       I    between atoms: N_4  and  C_5 
REMARK    2  A    between atoms: C_5  and  C_6 
REMARK    3  A    between atoms: C_6  and  C_7 
ROOT
HETATM    1  C   UNL     1       5.918  28.505  56.727  1.00  0.00     0.286 C 
HETATM    2  N   UNL     1       7.385  28.938  56.794  1.00  0.00    -0.056 N 
HETATM    3  H   UNL     1       8.015  28.151  56.611  1.00  0.00     0.278 HD
HETATM    4  H   UNL     1       7.514  29.618  56.013  1.00  0.00     0.278 HD
HETATM    5  C   UNL     1       7.711  29.622  58.088  1.00  0.00     0.209 C 
HETATM    6  C   UNL     1       6.805  30.867  58.216  1.00  0.00     0.115 C 
HETATM    7  N   UNL     1       5.392  30.514  58.117  1.00  0.00    -0.353 N 
HETATM    8  C   UNL     1       4.930  29.605  57.189  1.00  0.00     0.249 C 
HETATM    9  O   UNL     1       3.754  29.624  56.841  1.00  0.00    -0.271 OA
HETATM   10  C   UNL     1       9.187  29.997  58.116  1.00  0.00     0.035 C 
HETATM   11  C   UNL     1       9.512  30.756  59.403  1.00  0.00     0.002 C 
HETATM   12  C   UNL     1       8.605  31.972  59.596  1.00  0.00     0.002 C 
HETATM   13  C   UNL     1       7.120  31.612  59.514  1.00  0.00     0.027 C 
HETATM   14  H   UNL     1       4.705  31.237  58.327  1.00  0.00     0.163 HD
ENDROOT
BRANCH   1  15
HETATM   15  C   UNL     1       5.574  27.996  55.322  1.00  0.00     0.146 C 
BRANCH  15  16
HETATM   16  C   UNL     1       6.622  27.010  54.860  1.00  0.00     0.224 C 
HETATM   17  N   UNL     1       6.323  25.699  55.154  1.00  0.00    -0.327 N 
HETATM   18  H   UNL     1       5.725  25.534  55.958  1.00  0.00     0.169 HD
HETATM   19  O   UNL     1       7.674  27.434  54.381  1.00  0.00    -0.273 OA
BRANCH  17  20
HETATM   20  C   UNL     1       7.125  24.603  54.765  1.00  0.00     0.040 A 
HETATM   21  C   UNL     1       8.120  24.035  55.581  1.00  0.00    -0.035 A 
HETATM   22  C   UNL     1       8.534  24.594  56.915  1.00  0.00     0.050 C 
HETATM   23  C   UNL     1       8.822  22.912  55.106  1.00  0.00     0.009 A 
HETATM   24  C   UNL     1       8.581  22.397  53.833  1.00  0.00     0.001 A 
HETATM   25  C   UNL     1       7.644  23.006  53.007  1.00  0.00     0.002 A 
HETATM   26  C   UNL     1       6.929  24.113  53.465  1.00  0.00     0.030 A 
ENDBRANCH  17  20
ENDBRANCH  15  16
ENDBRANCH   1  15
TORSDOF 3
ENDMDL
MODEL 7
REMARK VINA RESULT:      -8.3      1.855      2.604
REMARK  3 active torsions:
REMARK  status: ('A' for Active; 'I' for Inactive)
REMARK    1  A    between atoms: C_3  and  N_4 
REMARK       I    between atoms: N_4  and  C_5 
REMARK    2  A    between atoms: C_5  and  C_6 
REMARK    3  A    between atoms: C_6  and  C_7 
ROOT
HETATM    1  C   UNL     1       6.424  26.813  56.763  1.00  0.00     0.286 C 
HETATM    2  N   UNL     1       5.368  27.823  57.218  1.00  0.00    -0.056 N 
HETATM    3  H   UNL     1       4.498  27.716  56.688  1.00  0.00     0.278 HD
HETATM    4  H   UNL     1       5.153  27.578  58.209  1.00  0.00     0.278 HD
HETATM    5  C   UNL     1       5.880  29.231  57.170  1.00  0.00     0.209 C 
HETATM    6  C   UNL     1       7.112  29.329  58.096  1.00  0.00     0.115 C 
HETATM    7  N   UNL     1       8.136  28.355  57.730  1.00  0.00    -0.353 N 
HETATM    8  C   UNL     1       7.821  27.057  57.389  1.00  0.00     0.249 C 
HETATM    9  O   UNL     1       8.664  26.172  57.487  1.00  0.00    -0.271 OA
HETATM   10  C   UNL     1       4.780  30.195  57.595  1.00  0.00     0.035 C 
HETATM   11  C   UNL     1       5.314  31.628  57.615  1.00  0.00     0.002 C 
HETATM   12  C   UNL     1       6.565  31.761  58.484  1.00  0.00     0.002 C 
HETATM   13  C   UNL     1       7.655  30.758  58.097  1.00  0.00     0.027 C 
HETATM   14  H   UNL     1       9.044  28.426  58.186  1.00  0.00     0.163 HD
ENDROOT
BRANCH   1  15
HETATM   15  C   UNL     1       5.939  25.380  57.016  1.00  0.00     0.146 C 
BRANCH  15  16
HETATM   16  C   UNL     1       6.226  24.518  55.809  1.00  0.00     0.224 C 
HETATM   17  N   UNL     1       7.222  23.590  56.010  1.00  0.00    -0.327 N 
HETATM   18  H   UNL     1       7.924  23.814  56.709  1.00  0.00     0.169 HD
HETATM   19  O   UNL     1       5.660  24.769  54.745  1.00  0.00    -0.273 OA
BRANCH  17  20
HETATM   20  C   UNL     1       7.616  22.637  55.044  1.00  0.00     0.040 A 
HETATM   21  C   UNL     1       8.023  21.327  55.360  1.00  0.00    -0.035 A 
HETATM   22  C   UNL     1       8.202  20.818  56.764  1.00  0.00     0.050 C 
HETATM   23  C   UNL     1       8.345  20.449  54.309  1.00  0.00     0.009 A 
HETATM   24  C   UNL     1       8.316  20.874  52.981  1.00  0.00     0.001 A 
HETATM   25  C   UNL     1       7.979  22.188  52.682  1.00  0.00     0.002 A 
HETATM   26  C   UNL     1       7.645  23.070  53.711  1.00  0.00     0.030 A 
ENDBRANCH  17  20
ENDBRANCH  15  16
ENDBRANCH   1  15
TORSDOF 3
ENDMDL
MODEL 8
REMARK VINA RESULT:      -8.3      5.589      8.034
REMARK  3 active torsions:
REMARK  status: ('A' for Active; 'I' for Inactive)
REMARK    1  A    between atoms: C_3  and  N_4 
REMARK       I    between atoms: N_4  and  C_5 
REMARK    2  A    between atoms: C_5  and  C_6 
REMARK    3  A    between atoms: C_6  and  C_7 
ROOT
HETATM    1  C   UNL     1       5.198  26.917  51.750  1.00  0.00     0.286 C 
HETATM    2  N   UNL     1       6.548  26.206  51.626  1.00  0.00    -0.056 N 
HETATM    3  H   UNL     1       6.787  26.031  50.645  1.00  0.00     0.278 HD
HETATM    4  H   UNL     1       7.255  26.878  51.995  1.00  0.00     0.278 HD
HETATM    5  C   UNL     1       6.599  24.951  52.444  1.00  0.00     0.209 C 
HETATM    6  C   UNL     1       6.357  25.329  53.922  1.00  0.00     0.115 C 
HETATM    7  N   UNL     1       5.098  26.049  54.091  1.00  0.00    -0.353 N 
HETATM    8  C   UNL     1       4.693  27.030  53.211  1.00  0.00     0.249 C 
HETATM    9  O   UNL     1       3.887  27.882  53.566  1.00  0.00    -0.271 OA
HETATM   10  C   UNL     1       7.947  24.266  52.254  1.00  0.00     0.035 C 
HETATM   11  C   UNL     1       8.034  23.022  53.139  1.00  0.00     0.002 C 
HETATM   12  C   UNL     1       7.752  23.342  54.608  1.00  0.00     0.002 C 
HETATM   13  C   UNL     1       6.425  24.080  54.800  1.00  0.00     0.027 C 
HETATM   14  H   UNL     1       4.773  26.223  55.041  1.00  0.00     0.163 HD
ENDROOT
BRANCH   1  15
HETATM   15  C   UNL     1       5.251  28.289  51.067  1.00  0.00     0.146 C 
BRANCH  15  16
HETATM   16  C   UNL     1       4.567  28.221  49.721  1.00  0.00     0.224 C 
HETATM   17  N   UNL     1       3.252  27.821  49.783  1.00  0.00    -0.327 N 
HETATM   18  H   UNL     1       2.988  27.232  50.567  1.00  0.00     0.169 HD
HETATM   19  O   UNL     1       5.233  28.407  48.701  1.00  0.00    -0.273 OA
BRANCH  17  20
HETATM   20  C   UNL     1       2.400  27.745  48.658  1.00  0.00     0.040 A 
HETATM   21  C   UNL     1       2.261  26.594  47.860  1.00  0.00    -0.035 A 
HETATM   22  C   UNL     1       3.085  25.347  48.032  1.00  0.00     0.050 C 
HETATM   23  C   UNL     1       1.342  26.620  46.794  1.00  0.00     0.009 A 
HETATM   24  C   UNL     1       0.619  27.773  46.494  1.00  0.00     0.001 A 
HETATM   25  C   UNL     1       0.813  28.926  47.245  1.00  0.00     0.002 A 
HETATM   26  C   UNL     1       1.710  28.916  48.313  1.00  0.00     0.030 A 
ENDBRANCH  17  20
ENDBRANCH  15  16
ENDBRANCH   1  15
TORSDOF 3
ENDMDL
MODEL 9
REMARK VINA RESULT:      -8.1      4.908      7.397
REMARK  3 active torsions:
REMARK  status: ('A' for Active; 'I' for Inactive)
REMARK    1  A    between atoms: C_3  and  N_4 
REMARK       I    between atoms: N_4  and  C_5 
REMARK    2  A    between atoms: C_5  and  C_6 
REMARK    3  A    between atoms: C_6  and  C_7 
ROOT
HETATM    1  C   UNL     1       5.561  26.834  52.564  1.00  0.00     0.286 C 
HETATM    2  N   UNL     1       6.741  25.933  52.193  1.00  0.00    -0.056 N 
HETATM    3  H   UNL     1       6.756  25.734  51.188  1.00  0.00     0.278 HD
HETATM    4  H   UNL     1       7.598  26.488  52.405  1.00  0.00     0.278 HD
HETATM    5  C   UNL     1       6.767  24.676  53.010  1.00  0.00     0.209 C 
HETATM    6  C   UNL     1       6.876  25.071  54.498  1.00  0.00     0.115 C 
HETATM    7  N   UNL     1       5.795  25.967  54.896  1.00  0.00    -0.353 N 
HETATM    8  C   UNL     1       5.374  27.006  54.093  1.00  0.00     0.249 C 
HETATM    9  O   UNL     1       4.787  27.965  54.582  1.00  0.00    -0.271 OA
HETATM   10  C   UNL     1       7.935  23.801  52.574  1.00  0.00     0.035 C 
HETATM   11  C   UNL     1       8.010  22.549  53.449  1.00  0.00     0.002 C 
HETATM   12  C   UNL     1       8.071  22.892  54.938  1.00  0.00     0.002 C 
HETATM   13  C   UNL     1       6.930  23.816  55.371  1.00  0.00     0.027 C 
HETATM   14  H   UNL     1       5.691  26.178  55.888  1.00  0.00     0.163 HD
ENDROOT
BRANCH   1  15
HETATM   15  C   UNL     1       5.681  28.190  51.858  1.00  0.00     0.146 C 
BRANCH  15  16
HETATM   16  C   UNL     1       5.078  28.106  50.475  1.00  0.00     0.224 C 
HETATM   17  N   UNL     1       3.991  27.266  50.391  1.00  0.00    -0.327 N 
HETATM   18  H   UNL     1       3.946  26.505  51.061  1.00  0.00     0.169 HD
HETATM   19  O   UNL     1       5.642  28.674  49.539  1.00  0.00    -0.273 OA
BRANCH  17  20
HETATM   20  C   UNL     1       3.230  27.079  49.215  1.00  0.00     0.040 A 
HETATM   21  C   UNL     1       2.143  27.896  48.850  1.00  0.00    -0.035 A 
HETATM   22  C   UNL     1       1.584  28.989  49.719  1.00  0.00     0.050 C 
HETATM   23  C   UNL     1       1.491  27.645  47.629  1.00  0.00     0.009 A 
HETATM   24  C   UNL     1       1.872  26.579  46.815  1.00  0.00     0.001 A 
HETATM   25  C   UNL     1       2.902  25.737  47.215  1.00  0.00     0.002 A 
HETATM   26  C   UNL     1       3.568  25.977  48.417  1.00  0.00     0.030 A 
ENDBRANCH  17  20
ENDBRANCH  15  16
ENDBRANCH   1  15
TORSDOF 3
ENDMDL
MODEL 10
REMARK VINA RESULT:      -8.1      2.873      6.508
REMARK  3 active torsions:
REMARK  status: ('A' for Active; 'I' for Inactive)
REMARK    1  A    between atoms: C_3  and  N_4 
REMARK       I    between atoms: N_4  and  C_5 
REMARK    2  A    between atoms: C_5  and  C_6 
REMARK    3  A    between atoms: C_6  and  C_7 
ROOT
HETATM    1  C   UNL     1       7.278  25.440  55.938  1.00  0.00     0.286 C 
HETATM    2  N   UNL     1       7.733  24.590  54.749  1.00  0.00    -0.056 N 
HETATM    3  H   UNL     1       7.248  24.864  53.889  1.00  0.00     0.278 HD
HETATM    4  H   UNL     1       8.743  24.814  54.613  1.00  0.00     0.278 HD
HETATM    5  C   UNL     1       7.597  23.123  55.023  1.00  0.00     0.209 C 
HETATM    6  C   UNL     1       8.461  22.780  56.255  1.00  0.00     0.115 C 
HETATM    7  N   UNL     1       8.096  23.594  57.410  1.00  0.00    -0.353 N 
HETATM    8  C   UNL     1       7.828  24.942  57.298  1.00  0.00     0.249 C 
HETATM    9  O   UNL     1       7.930  25.674  58.276  1.00  0.00    -0.271 OA
HETATM   10  C   UNL     1       8.026  22.327  53.797  1.00  0.00     0.035 C 
HETATM   11  C   UNL     1       7.956  20.828  54.091  1.00  0.00     0.002 C 
HETATM   12  C   UNL     1       8.761  20.450  55.335  1.00  0.00     0.002 C 
HETATM   13  C   UNL     1       8.372  21.284  56.559  1.00  0.00     0.027 C 
HETATM   14  H   UNL     1       8.507  23.355  58.311  1.00  0.00     0.163 HD
ENDROOT
BRANCH   1  15
HETATM   15  C   UNL     1       7.618  26.917  55.702  1.00  0.00     0.146 C 
BRANCH  15  16
HETATM   16  C   UNL     1       7.199  27.326  54.309  1.00  0.00     0.224 C 
HETATM   17  N   UNL     1       5.967  26.842  53.933  1.00  0.00    -0.327 N 
HETATM   18  H   UNL     1       5.659  25.980  54.372  1.00  0.00     0.169 HD
HETATM   19  O   UNL     1       7.998  27.936  53.597  1.00  0.00    -0.273 OA
BRANCH  17  20
HETATM   20  C   UNL     1       5.345  27.146  52.701  1.00  0.00     0.040 A 
HETATM   21  C   UNL     1       4.499  28.254  52.506  1.00  0.00    -0.035 A 
HETATM   22  C   UNL     1       4.059  29.180  53.607  1.00  0.00     0.050 C 
HETATM   23  C   UNL     1       3.976  28.485  51.220  1.00  0.00     0.009 A 
HETATM   24  C   UNL     1       4.241  27.611  50.167  1.00  0.00     0.001 A 
HETATM   25  C   UNL     1       5.021  26.482  50.384  1.00  0.00     0.002 A 
HETATM   26  C   UNL     1       5.559  26.243  51.649  1.00  0.00     0.030 A 
ENDBRANCH  17  20
ENDBRANCH  15  16
ENDBRANCH   1  15
TORSDOF 3
ENDMDL
