MODEL 1
REMARK VINA RESULT:      -9.0      0.000      0.000
REMARK  8 active torsions:
REMARK  status: ('A' for Active; 'I' for Inactive)
REMARK    1  A    between atoms: C_2  and  N_3 
REMARK    2  A    between atoms: C_11  and  C_12 
REMARK    3  A    between atoms: C_14  and  O_15 
REMARK    4  A    between atoms: O_15  and  C_16 
REMARK    5  A    between atoms: C_18  and  O_19 
REMARK    6  A    between atoms: O_19  and  C_20 
REMARK    7  A    between atoms: C_20  and  C_21 
REMARK    8  A    between atoms: C_31  and  O_32 
ROOT
HETATM    1  N   UNL     1       3.271  29.392  46.628  1.00  0.00    -0.067 N 
HETATM    2  H   UNL     1       3.509  29.121  45.667  1.00  0.00     0.280 HD
HETATM    3  C   UNL     1       4.605  29.718  47.306  1.00  0.00     0.281 C 
HETATM    4  C   UNL     1       4.459  29.716  48.788  1.00  0.00     0.018 A 
HETATM    5  C   UNL     1       3.419  29.124  49.487  1.00  0.00    -0.024 A 
HETATM    6  C   UNL     1       3.576  29.313  50.896  1.00  0.00     0.057 A 
HETATM    7  C   UNL     1       4.726  30.003  51.187  1.00  0.00     0.087 A 
HETATM    8  N   UNL     1       5.081  30.287  52.454  1.00  0.00    -0.357 N 
HETATM    9  C   UNL     1       4.496  29.444  53.498  1.00  0.00     0.243 C 
HETATM   10  N   UNL     1       3.107  28.994  53.247  1.00  0.00    -0.235 NA
HETATM   11  C   UNL     1       2.755  28.930  52.016  1.00  0.00     0.173 C 
HETATM   12  S   UNL     1       5.605  30.451  49.809  1.00  0.00    -0.074 SA
HETATM   13  C   UNL     1       2.298  28.423  48.777  1.00  0.00     0.068 C 
HETATM   14  C   UNL     1       2.635  28.170  47.295  1.00  0.00     0.240 C 
HETATM   15  H   UNL     1       6.019  30.625  52.642  1.00  0.00     0.162 HD
ENDROOT
BRANCH   9  16
HETATM   16  C   UNL     1       5.448  28.278  53.797  1.00  0.00    -0.012 A 
HETATM   17  C   UNL     1       5.074  27.205  54.631  1.00  0.00     0.050 A 
HETATM   18  C   UNL     1       5.926  26.117  54.843  1.00  0.00     0.103 A 
HETATM   19  C   UNL     1       7.168  26.091  54.195  1.00  0.00     0.112 A 
HETATM   20  C   UNL     1       7.575  27.151  53.388  1.00  0.00     0.041 A 
HETATM   21  C   UNL     1       6.730  28.247  53.213  1.00  0.00     0.014 A 
BRANCH  18  22
HETATM   22  O   UNL     1       5.609  25.028  55.614  1.00  0.00    -0.349 OA
BRANCH  22  23
HETATM   23  C   UNL     1       5.481  25.269  57.016  1.00  0.00     0.171 C 
HETATM   24  C   UNL     1       6.867  25.540  57.574  1.00  0.00     0.034 C 
ENDBRANCH  22  23
ENDBRANCH  18  22
BRANCH  19  25
HETATM   25  O   UNL     1       7.925  24.904  54.329  1.00  0.00    -0.272 OA
BRANCH  25  26
HETATM   26  C   UNL     1       7.966  23.910  53.366  1.00  0.00     0.298 C 
HETATM   27  O   UNL     1       7.859  24.046  52.158  1.00  0.00    -0.259 OA
BRANCH  26  28
HETATM   28  C   UNL     1       8.099  22.591  54.041  1.00  0.00     0.039 A 
HETATM   29  C   UNL     1       8.437  21.479  53.260  1.00  0.00     0.017 A 
HETATM   30  C   UNL     1       8.548  20.216  53.845  1.00  0.00     0.001 A 
HETATM   31  C   UNL     1       8.330  20.060  55.213  1.00  0.00     0.000 A 
HETATM   32  C   UNL     1       8.005  21.164  56.001  1.00  0.00     0.001 A 
HETATM   33  C   UNL     1       7.889  22.429  55.419  1.00  0.00     0.017 A 
ENDBRANCH  26  28
ENDBRANCH  25  26
ENDBRANCH  19  25
ENDBRANCH   9  16
BRANCH  11  34
HETATM   34  O   UNL     1       1.524  28.474  51.726  1.00  0.00    -0.344 OA
HETATM   35  H   UNL     1       1.369  28.676  50.787  1.00  0.00     0.219 HD
ENDBRANCH  11  34
BRANCH   1  36
HETATM   36  C   UNL     1       2.384  30.616  46.529  1.00  0.00     0.231 C 
HETATM   37  C   UNL     1       3.142  31.791  45.937  1.00  0.00     0.034 C 
ENDBRANCH   1  36
TORSDOF 8
ENDMDL
MODEL 2
REMARK VINA RESULT:      -8.8      8.085     11.436
REMARK  8 active torsions:
REMARK  status: ('A' for Active; 'I' for Inactive)
REMARK    1  A    between atoms: C_2  and  N_3 
REMARK    2  A    between atoms: C_11  and  C_12 
REMARK    3  A    between atoms: C_14  and  O_15 
REMARK    4  A    between atoms: O_15  and  C_16 
REMARK    5  A    between atoms: C_18  and  O_19 
REMARK    6  A    between atoms: O_19  and  C_20 
REMARK    7  A    between atoms: C_20  and  C_21 
REMARK    8  A    between atoms: C_31  and  O_32 
ROOT
HETATM    1  N   UNL     1       6.516  24.869  56.690  1.00  0.00    -0.067 N 
HETATM    2  H   UNL     1       6.747  23.920  57.006  1.00  0.00     0.280 HD
HETATM    3  C   UNL     1       7.590  25.778  57.296  1.00  0.00     0.281 C 
HETATM    4  C   UNL     1       7.151  27.201  57.273  1.00  0.00     0.018 A 
HETATM    5  C   UNL     1       5.842  27.631  57.121  1.00  0.00    -0.024 A 
HETATM    6  C   UNL     1       5.767  29.059  57.134  1.00  0.00     0.057 A 
HETATM    7  C   UNL     1       7.002  29.627  57.324  1.00  0.00     0.087 A 
HETATM    8  N   UNL     1       7.168  30.961  57.381  1.00  0.00    -0.357 N 
HETATM    9  C   UNL     1       5.983  31.750  57.722  1.00  0.00     0.243 C 
HETATM   10  N   UNL     1       4.699  31.228  57.197  1.00  0.00    -0.235 NA
HETATM   11  C   UNL     1       4.661  29.966  56.973  1.00  0.00     0.173 C 
HETATM   12  S   UNL     1       8.249  28.487  57.459  1.00  0.00    -0.074 SA
HETATM   13  C   UNL     1       4.715  26.657  56.938  1.00  0.00     0.068 C 
HETATM   14  C   UNL     1       5.147  25.218  57.278  1.00  0.00     0.240 C 
HETATM   15  H   UNL     1       8.051  31.338  57.709  1.00  0.00     0.162 HD
ENDROOT
BRANCH   9  16
HETATM   16  C   UNL     1       5.949  31.979  59.239  1.00  0.00    -0.012 A 
HETATM   17  C   UNL     1       4.748  32.247  59.927  1.00  0.00     0.050 A 
HETATM   18  C   UNL     1       4.723  32.389  61.317  1.00  0.00     0.103 A 
HETATM   19  C   UNL     1       5.915  32.242  62.037  1.00  0.00     0.112 A 
HETATM   20  C   UNL     1       7.121  32.005  61.382  1.00  0.00     0.041 A 
HETATM   21  C   UNL     1       7.139  31.901  59.990  1.00  0.00     0.014 A 
BRANCH  18  22
HETATM   22  O   UNL     1       3.584  32.616  62.048  1.00  0.00    -0.349 OA
BRANCH  22  23
HETATM   23  C   UNL     1       3.072  33.948  62.011  1.00  0.00     0.171 C 
HETATM   24  C   UNL     1       2.062  34.094  63.135  1.00  0.00     0.034 C 
ENDBRANCH  22  23
ENDBRANCH  18  22
BRANCH  19  25
HETATM   25  O   UNL     1       5.806  32.250  63.448  1.00  0.00    -0.272 OA
BRANCH  25  26
HETATM   26  C   UNL     1       6.529  33.103  64.265  1.00  0.00     0.298 C 
HETATM   27  O   UNL     1       7.714  33.030  64.547  1.00  0.00    -0.259 OA
BRANCH  26  28
HETATM   28  C   UNL     1       5.606  34.126  64.828  1.00  0.00     0.039 A 
HETATM   29  C   UNL     1       4.768  33.750  65.885  1.00  0.00     0.017 A 
HETATM   30  C   UNL     1       3.867  34.668  66.429  1.00  0.00     0.001 A 
HETATM   31  C   UNL     1       3.805  35.966  65.925  1.00  0.00     0.000 A 
HETATM   32  C   UNL     1       4.645  36.352  64.880  1.00  0.00     0.001 A 
HETATM   33  C   UNL     1       5.544  35.436  64.331  1.00  0.00     0.017 A 
ENDBRANCH  26  28
ENDBRANCH  25  26
ENDBRANCH  19  25
ENDBRANCH   9  16
BRANCH  11  34
HETATM   34  O   UNL     1       3.503  29.428  56.549  1.00  0.00    -0.344 OA
HETATM   35  H   UNL     1       3.208  29.968  55.795  1.00  0.00     0.219 HD
ENDBRANCH  11  34
BRANCH   1  36
HETATM   36  C   UNL     1       6.591  24.854  55.177  1.00  0.00     0.231 C 
HETATM   37  C   UNL     1       7.961  24.404  54.704  1.00  0.00     0.034 C 
ENDBRANCH   1  36
TORSDOF 8
ENDMDL
MODEL 3
REMARK VINA RESULT:      -8.6      8.131     11.608
REMARK  8 active torsions:
REMARK  status: ('A' for Active; 'I' for Inactive)
REMARK    1  A    between atoms: C_2  and  N_3 
REMARK    2  A    between atoms: C_11  and  C_12 
REMARK    3  A    between atoms: C_14  and  O_15 
REMARK    4  A    between atoms: O_15  and  C_16 
REMARK    5  A    between atoms: C_18  and  O_19 
REMARK    6  A    between atoms: O_19  and  C_20 
REMARK    7  A    between atoms: C_20  and  C_21 
REMARK    8  A    between atoms: C_31  and  O_32 
ROOT
HETATM    1  N   UNL     1       6.858  25.166  56.714  1.00  0.00    -0.067 N 
HETATM    2  H   UNL     1       7.041  24.211  57.043  1.00  0.00     0.280 HD
HETATM    3  C   UNL     1       7.651  26.083  57.651  1.00  0.00     0.281 C 
HETATM    4  C   UNL     1       7.157  27.485  57.560  1.00  0.00     0.018 A 
HETATM    5  C   UNL     1       5.929  27.867  57.044  1.00  0.00    -0.024 A 
HETATM    6  C   UNL     1       5.771  29.287  57.096  1.00  0.00     0.057 A 
HETATM    7  C   UNL     1       6.859  29.895  57.669  1.00  0.00     0.087 A 
HETATM    8  N   UNL     1       6.923  31.230  57.830  1.00  0.00    -0.357 N 
HETATM    9  C   UNL     1       5.647  31.946  57.837  1.00  0.00     0.243 C 
HETATM   10  N   UNL     1       4.608  31.401  56.933  1.00  0.00    -0.235 NA
HETATM   11  C   UNL     1       4.710  30.154  56.653  1.00  0.00     0.173 C 
HETATM   12  S   UNL     1       8.076  28.803  58.119  1.00  0.00    -0.074 SA
HETATM   13  C   UNL     1       4.964  26.858  56.493  1.00  0.00     0.068 C 
HETATM   14  C   UNL     1       5.359  25.421  56.884  1.00  0.00     0.240 C 
HETATM   15  H   UNL     1       7.647  31.623  58.422  1.00  0.00     0.162 HD
ENDROOT
BRANCH   9  16
HETATM   16  C   UNL     1       5.155  32.085  59.285  1.00  0.00    -0.012 A 
HETATM   17  C   UNL     1       6.040  32.037  60.380  1.00  0.00     0.050 A 
HETATM   18  C   UNL     1       5.588  32.230  61.689  1.00  0.00     0.103 A 
HETATM   19  C   UNL     1       4.230  32.495  61.906  1.00  0.00     0.112 A 
HETATM   20  C   UNL     1       3.328  32.521  60.845  1.00  0.00     0.041 A 
HETATM   21  C   UNL     1       3.787  32.291  59.547  1.00  0.00     0.014 A 
BRANCH  18  22
HETATM   22  O   UNL     1       6.401  32.229  62.794  1.00  0.00    -0.349 OA
BRANCH  22  23
HETATM   23  C   UNL     1       7.144  33.427  63.025  1.00  0.00     0.171 C 
HETATM   24  C   UNL     1       7.264  33.621  64.527  1.00  0.00     0.034 C 
ENDBRANCH  22  23
ENDBRANCH  18  22
BRANCH  19  25
HETATM   25  O   UNL     1       3.855  32.826  63.230  1.00  0.00    -0.272 OA
BRANCH  25  26
HETATM   26  C   UNL     1       3.032  33.893  63.547  1.00  0.00     0.298 C 
HETATM   27  O   UNL     1       1.822  33.874  63.701  1.00  0.00    -0.259 OA
BRANCH  26  28
HETATM   28  C   UNL     1       3.855  35.131  63.613  1.00  0.00     0.039 A 
HETATM   29  C   UNL     1       4.137  35.671  64.875  1.00  0.00     0.017 A 
HETATM   30  C   UNL     1       4.885  36.846  64.985  1.00  0.00     0.001 A 
HETATM   31  C   UNL     1       5.360  37.481  63.839  1.00  0.00     0.000 A 
HETATM   32  C   UNL     1       5.093  36.943  62.579  1.00  0.00     0.001 A 
HETATM   33  C   UNL     1       4.343  35.770  62.464  1.00  0.00     0.017 A 
ENDBRANCH  26  28
ENDBRANCH  25  26
ENDBRANCH  19  25
ENDBRANCH   9  16
BRANCH  11  34
HETATM   34  O   UNL     1       3.762  29.594  55.882  1.00  0.00    -0.344 OA
HETATM   35  H   UNL     1       3.652  28.680  56.201  1.00  0.00     0.219 HD
ENDBRANCH  11  34
BRANCH   1  36
HETATM   36  C   UNL     1       7.376  25.243  55.293  1.00  0.00     0.231 C 
HETATM   37  C   UNL     1       7.395  23.870  54.645  1.00  0.00     0.034 C 
ENDBRANCH   1  36
TORSDOF 8
ENDMDL
MODEL 4
REMARK VINA RESULT:      -8.3      4.459      6.794
REMARK  8 active torsions:
REMARK  status: ('A' for Active; 'I' for Inactive)
REMARK    1  A    between atoms: C_2  and  N_3 
REMARK    2  A    between atoms: C_11  and  C_12 
REMARK    3  A    between atoms: C_14  and  O_15 
REMARK    4  A    between atoms: O_15  and  C_16 
REMARK    5  A    between atoms: C_18  and  O_19 
REMARK    6  A    between atoms: O_19  and  C_20 
REMARK    7  A    between atoms: C_20  and  C_21 
REMARK    8  A    between atoms: C_31  and  O_32 
ROOT
HETATM    1  N   UNL     1       3.812  29.483  48.670  1.00  0.00    -0.067 N 
HETATM    2  H   UNL     1       3.587  30.305  48.098  1.00  0.00     0.280 HD
HETATM    3  C   UNL     1       3.178  29.748  50.039  1.00  0.00     0.281 C 
HETATM    4  C   UNL     1       3.767  28.855  51.076  1.00  0.00     0.018 A 
HETATM    5  C   UNL     1       4.969  28.177  50.955  1.00  0.00    -0.024 A 
HETATM    6  C   UNL     1       5.239  27.401  52.125  1.00  0.00     0.057 A 
HETATM    7  C   UNL     1       4.255  27.555  53.070  1.00  0.00     0.087 A 
HETATM    8  N   UNL     1       4.307  26.923  54.258  1.00  0.00    -0.357 N 
HETATM    9  C   UNL     1       5.630  26.481  54.702  1.00  0.00     0.243 C 
HETATM   10  N   UNL     1       6.539  26.021  53.626  1.00  0.00    -0.235 NA
HETATM   11  C   UNL     1       6.318  26.509  52.462  1.00  0.00     0.173 C 
HETATM   12  S   UNL     1       3.005  28.585  52.573  1.00  0.00    -0.074 SA
HETATM   13  C   UNL     1       5.802  28.275  49.710  1.00  0.00     0.068 C 
HETATM   14  C   UNL     1       5.335  29.431  48.804  1.00  0.00     0.240 C 
HETATM   15  H   UNL     1       3.671  27.204  54.996  1.00  0.00     0.162 HD
ENDROOT
BRANCH   9  16
HETATM   16  C   UNL     1       6.258  27.571  55.579  1.00  0.00    -0.012 A 
HETATM   17  C   UNL     1       7.544  28.087  55.321  1.00  0.00     0.050 A 
HETATM   18  C   UNL     1       8.079  29.126  56.089  1.00  0.00     0.103 A 
HETATM   19  C   UNL     1       7.307  29.674  57.121  1.00  0.00     0.112 A 
HETATM   20  C   UNL     1       6.044  29.166  57.416  1.00  0.00     0.041 A 
HETATM   21  C   UNL     1       5.537  28.105  56.665  1.00  0.00     0.014 A 
BRANCH  18  22
HETATM   22  O   UNL     1       9.308  29.693  55.868  1.00  0.00    -0.349 OA
BRANCH  22  23
HETATM   23  C   UNL     1      10.401  29.119  56.586  1.00  0.00     0.171 C 
HETATM   24  C   UNL     1      11.111  30.235  57.331  1.00  0.00     0.034 C 
ENDBRANCH  22  23
ENDBRANCH  18  22
BRANCH  19  25
HETATM   25  O   UNL     1       7.837  30.815  57.767  1.00  0.00    -0.272 OA
BRANCH  25  26
HETATM   26  C   UNL     1       7.095  31.635  58.602  1.00  0.00     0.298 C 
HETATM   27  O   UNL     1       6.163  32.358  58.291  1.00  0.00    -0.259 OA
BRANCH  26  28
HETATM   28  C   UNL     1       7.659  31.556  59.977  1.00  0.00     0.039 A 
HETATM   29  C   UNL     1       7.129  32.403  60.959  1.00  0.00     0.017 A 
HETATM   30  C   UNL     1       7.643  32.383  62.257  1.00  0.00     0.001 A 
HETATM   31  C   UNL     1       8.683  31.513  62.582  1.00  0.00     0.000 A 
HETATM   32  C   UNL     1       9.209  30.658  61.613  1.00  0.00     0.001 A 
HETATM   33  C   UNL     1       8.700  30.677  60.312  1.00  0.00     0.017 A 
ENDBRANCH  26  28
ENDBRANCH  25  26
ENDBRANCH  19  25
ENDBRANCH   9  16
BRANCH  11  34
HETATM   34  O   UNL     1       7.148  26.171  51.460  1.00  0.00    -0.344 OA
HETATM   35  H   UNL     1       7.091  25.203  51.369  1.00  0.00     0.219 HD
ENDBRANCH  11  34
BRANCH   1  36
HETATM   36  C   UNL     1       3.176  28.290  47.985  1.00  0.00     0.231 C 
HETATM   37  C   UNL     1       2.103  28.732  47.007  1.00  0.00     0.034 C 
ENDBRANCH   1  36
TORSDOF 8
ENDMDL
MODEL 5
REMARK VINA RESULT:      -8.0      3.124      4.402
REMARK  8 active torsions:
REMARK  status: ('A' for Active; 'I' for Inactive)
REMARK    1  A    between atoms: C_2  and  N_3 
REMARK    2  A    between atoms: C_11  and  C_12 
REMARK    3  A    between atoms: C_14  and  O_15 
REMARK    4  A    between atoms: O_15  and  C_16 
REMARK    5  A    between atoms: C_18  and  O_19 
REMARK    6  A    between atoms: O_19  and  C_20 
REMARK    7  A    between atoms: C_20  and  C_21 
REMARK    8  A    between atoms: C_31  and  O_32 
ROOT
HETATM    1  N   UNL     1       5.170  35.222  53.316  1.00  0.00    -0.067 N 
HETATM    2  H   UNL     1       5.597  35.768  54.072  1.00  0.00     0.280 HD
HETATM    3  C   UNL     1       4.404  34.090  54.009  1.00  0.00     0.281 C 
HETATM    4  C   UNL     1       4.091  32.997  53.046  1.00  0.00     0.018 A 
HETATM    5  C   UNL     1       4.721  32.803  51.827  1.00  0.00    -0.024 A 
HETATM    6  C   UNL     1       4.177  31.670  51.145  1.00  0.00     0.057 A 
HETATM    7  C   UNL     1       3.199  31.056  51.887  1.00  0.00     0.087 A 
HETATM    8  N   UNL     1       2.555  29.961  51.443  1.00  0.00    -0.357 N 
HETATM    9  C   UNL     1       3.238  29.176  50.415  1.00  0.00     0.243 C 
HETATM   10  N   UNL     1       4.033  29.961  49.441  1.00  0.00    -0.235 NA
HETATM   11  C   UNL     1       4.460  31.096  49.855  1.00  0.00     0.173 C 
HETATM   12  S   UNL     1       2.902  31.824  53.368  1.00  0.00    -0.074 SA
HETATM   13  C   UNL     1       5.800  33.728  51.348  1.00  0.00     0.068 C 
HETATM   14  C   UNL     1       6.312  34.640  52.480  1.00  0.00     0.240 C 
HETATM   15  H   UNL     1       1.982  29.428  52.089  1.00  0.00     0.162 HD
ENDROOT
BRANCH   9  16
HETATM   16  C   UNL     1       4.059  28.068  51.088  1.00  0.00    -0.012 A 
HETATM   17  C   UNL     1       4.226  28.009  52.486  1.00  0.00     0.050 A 
HETATM   18  C   UNL     1       4.921  26.958  53.092  1.00  0.00     0.103 A 
HETATM   19  C   UNL     1       5.442  25.936  52.288  1.00  0.00     0.112 A 
HETATM   20  C   UNL     1       5.316  25.982  50.902  1.00  0.00     0.041 A 
HETATM   21  C   UNL     1       4.650  27.056  50.307  1.00  0.00     0.014 A 
BRANCH  18  22
HETATM   22  O   UNL     1       5.090  26.825  54.446  1.00  0.00    -0.349 OA
BRANCH  22  23
HETATM   23  C   UNL     1       6.158  27.579  55.021  1.00  0.00     0.171 C 
HETATM   24  C   UNL     1       6.905  26.675  55.986  1.00  0.00     0.034 C 
ENDBRANCH  22  23
ENDBRANCH  18  22
BRANCH  19  25
HETATM   25  O   UNL     1       6.006  24.827  52.962  1.00  0.00    -0.272 OA
BRANCH  25  26
HETATM   26  C   UNL     1       7.358  24.525  52.939  1.00  0.00     0.298 C 
HETATM   27  O   UNL     1       8.251  25.171  52.416  1.00  0.00    -0.259 OA
BRANCH  26  28
HETATM   28  C   UNL     1       7.568  23.214  53.611  1.00  0.00     0.039 A 
HETATM   29  C   UNL     1       7.854  22.100  52.812  1.00  0.00     0.017 A 
HETATM   30  C   UNL     1       8.034  20.844  53.396  1.00  0.00     0.001 A 
HETATM   31  C   UNL     1       7.937  20.698  54.780  1.00  0.00     0.000 A 
HETATM   32  C   UNL     1       7.665  21.805  55.583  1.00  0.00     0.001 A 
HETATM   33  C   UNL     1       7.480  23.062  55.003  1.00  0.00     0.017 A 
ENDBRANCH  26  28
ENDBRANCH  25  26
ENDBRANCH  19  25
ENDBRANCH   9  16
BRANCH  11  34
HETATM   34  O   UNL     1       5.235  31.825  49.033  1.00  0.00    -0.344 OA
HETATM   35  H   UNL     1       4.636  32.418  48.544  1.00  0.00     0.219 HD
ENDBRANCH  11  34
BRANCH   1  36
HETATM   36  C   UNL     1       4.232  36.156  52.580  1.00  0.00     0.231 C 
HETATM   37  C   UNL     1       5.007  37.185  51.777  1.00  0.00     0.034 C 
ENDBRANCH   1  36
TORSDOF 8
ENDMDL
MODEL 6
REMARK VINA RESULT:      -8.0      2.985      4.011
REMARK  8 active torsions:
REMARK  status: ('A' for Active; 'I' for Inactive)
REMARK    1  A    between atoms: C_2  and  N_3 
REMARK    2  A    between atoms: C_11  and  C_12 
REMARK    3  A    between atoms: C_14  and  O_15 
REMARK    4  A    between atoms: O_15  and  C_16 
REMARK    5  A    between atoms: C_18  and  O_19 
REMARK    6  A    between atoms: O_19  and  C_20 
REMARK    7  A    between atoms: C_20  and  C_21 
REMARK    8  A    between atoms: C_31  and  O_32 
ROOT
HETATM    1  N   UNL     1       6.662  35.032  49.389  1.00  0.00    -0.067 N 
HETATM    2  H   UNL     1       7.410  35.669  49.688  1.00  0.00     0.280 HD
HETATM    3  C   UNL     1       6.098  34.426  50.678  1.00  0.00     0.281 C 
HETATM    4  C   UNL     1       5.312  33.196  50.383  1.00  0.00     0.018 A 
HETATM    5  C   UNL     1       5.393  32.459  49.212  1.00  0.00    -0.024 A 
HETATM    6  C   UNL     1       4.499  31.343  49.247  1.00  0.00     0.057 A 
HETATM    7  C   UNL     1       3.821  31.277  50.438  1.00  0.00     0.087 A 
HETATM    8  N   UNL     1       2.932  30.300  50.696  1.00  0.00    -0.357 N 
HETATM    9  C   UNL     1       3.067  29.074  49.908  1.00  0.00     0.243 C 
HETATM   10  N   UNL     1       3.508  29.265  48.506  1.00  0.00    -0.235 NA
HETATM   11  C   UNL     1       4.191  30.325  48.276  1.00  0.00     0.173 C 
HETATM   12  S   UNL     1       4.212  32.538  51.502  1.00  0.00    -0.074 SA
HETATM   13  C   UNL     1       6.302  32.868  48.091  1.00  0.00     0.068 C 
HETATM   14  C   UNL     1       7.315  33.938  48.542  1.00  0.00     0.240 C 
HETATM   15  H   UNL     1       2.595  30.173  51.644  1.00  0.00     0.162 HD
ENDROOT
BRANCH   9  16
HETATM   16  C   UNL     1       3.949  28.077  50.672  1.00  0.00    -0.012 A 
HETATM   17  C   UNL     1       4.191  28.205  52.055  1.00  0.00     0.050 A 
HETATM   18  C   UNL     1       4.942  27.254  52.752  1.00  0.00     0.103 A 
HETATM   19  C   UNL     1       5.445  26.145  52.059  1.00  0.00     0.112 A 
HETATM   20  C   UNL     1       5.245  26.008  50.688  1.00  0.00     0.041 A 
HETATM   21  C   UNL     1       4.523  26.983  49.997  1.00  0.00     0.014 A 
BRANCH  18  22
HETATM   22  O   UNL     1       5.186  27.302  54.101  1.00  0.00    -0.349 OA
BRANCH  22  23
HETATM   23  C   UNL     1       6.163  28.252  54.528  1.00  0.00     0.171 C 
HETATM   24  C   UNL     1       7.262  27.500  55.257  1.00  0.00     0.034 C 
ENDBRANCH  22  23
ENDBRANCH  18  22
BRANCH  19  25
HETATM   25  O   UNL     1       6.072  25.145  52.840  1.00  0.00    -0.272 OA
BRANCH  25  26
HETATM   26  C   UNL     1       7.415  24.826  52.739  1.00  0.00     0.298 C 
HETATM   27  O   UNL     1       8.271  25.420  52.103  1.00  0.00    -0.259 OA
BRANCH  26  28
HETATM   28  C   UNL     1       7.668  23.568  53.492  1.00  0.00     0.039 A 
HETATM   29  C   UNL     1       7.683  23.627  54.892  1.00  0.00     0.017 A 
HETATM   30  C   UNL     1       7.941  22.478  55.641  1.00  0.00     0.001 A 
HETATM   31  C   UNL     1       8.178  21.264  54.997  1.00  0.00     0.000 A 
HETATM   32  C   UNL     1       8.153  21.194  53.604  1.00  0.00     0.001 A 
HETATM   33  C   UNL     1       7.899  22.342  52.851  1.00  0.00     0.017 A 
ENDBRANCH  26  28
ENDBRANCH  25  26
ENDBRANCH  19  25
ENDBRANCH   9  16
BRANCH  11  34
HETATM   34  O   UNL     1       4.666  30.521  47.034  1.00  0.00    -0.344 OA
HETATM   35  H   UNL     1       5.517  30.984  47.133  1.00  0.00     0.219 HD
ENDBRANCH  11  34
BRANCH   1  36
HETATM   36  C   UNL     1       5.628  35.880  48.676  1.00  0.00     0.231 C 
HETATM   37  C   UNL     1       6.242  36.610  47.495  1.00  0.00     0.034 C 
ENDBRANCH   1  36
TORSDOF 8
ENDMDL
MODEL 7
REMARK VINA RESULT:      -7.7      4.797      6.341
REMARK  8 active torsions:
REMARK  status: ('A' for Active; 'I' for Inactive)
REMARK    1  A    between atoms: C_2  and  N_3 
REMARK    2  A    between atoms: C_11  and  C_12 
REMARK    3  A    between atoms: C_14  and  O_15 
REMARK    4  A    between atoms: O_15  and  C_16 
REMARK    5  A    between atoms: C_18  and  O_19 
REMARK    6  A    between atoms: O_19  and  C_20 
REMARK    7  A    between atoms: C_20  and  C_21 
REMARK    8  A    between atoms: C_31  and  O_32 
ROOT
HETATM    1  N   UNL     1       4.594  36.953  54.821  1.00  0.00    -0.067 N 
HETATM    2  H   UNL     1       5.252  37.669  54.492  1.00  0.00     0.280 HD
HETATM    3  C   UNL     1       5.326  36.205  55.940  1.00  0.00     0.281 C 
HETATM    4  C   UNL     1       4.671  34.897  56.217  1.00  0.00     0.018 A 
HETATM    5  C   UNL     1       3.799  34.243  55.361  1.00  0.00    -0.024 A 
HETATM    6  C   UNL     1       3.343  33.015  55.934  1.00  0.00     0.057 A 
HETATM    7  C   UNL     1       3.909  32.792  57.164  1.00  0.00     0.087 A 
HETATM    8  N   UNL     1       3.630  31.689  57.883  1.00  0.00    -0.357 N 
HETATM    9  C   UNL     1       3.118  30.538  57.138  1.00  0.00     0.243 C 
HETATM   10  N   UNL     1       2.238  30.865  55.992  1.00  0.00    -0.235 NA
HETATM   11  C   UNL     1       2.415  32.019  55.464  1.00  0.00     0.173 C 
HETATM   12  S   UNL     1       4.952  34.034  57.656  1.00  0.00    -0.074 SA
HETATM   13  C   UNL     1       3.413  34.834  54.037  1.00  0.00     0.068 C 
HETATM   14  C   UNL     1       4.334  36.007  53.647  1.00  0.00     0.240 C 
HETATM   15  H   UNL     1       4.204  31.465  58.690  1.00  0.00     0.162 HD
ENDROOT
BRANCH   9  16
HETATM   16  C   UNL     1       4.291  29.632  56.741  1.00  0.00    -0.012 A 
HETATM   17  C   UNL     1       5.464  29.548  57.518  1.00  0.00     0.050 A 
HETATM   18  C   UNL     1       6.498  28.669  57.180  1.00  0.00     0.103 A 
HETATM   19  C   UNL     1       6.350  27.846  56.056  1.00  0.00     0.112 A 
HETATM   20  C   UNL     1       5.214  27.928  55.255  1.00  0.00     0.041 A 
HETATM   21  C   UNL     1       4.204  28.834  55.583  1.00  0.00     0.014 A 
BRANCH  18  22
HETATM   22  O   UNL     1       7.648  28.516  57.911  1.00  0.00    -0.349 OA
BRANCH  22  23
HETATM   23  C   UNL     1       8.553  29.621  57.895  1.00  0.00     0.171 C 
HETATM   24  C   UNL     1       9.793  29.202  57.124  1.00  0.00     0.034 C 
ENDBRANCH  22  23
ENDBRANCH  18  22
BRANCH  19  25
HETATM   25  O   UNL     1       7.360  26.877  55.846  1.00  0.00    -0.272 OA
BRANCH  25  26
HETATM   26  C   UNL     1       7.210  25.537  56.160  1.00  0.00     0.298 C 
HETATM   27  O   UNL     1       6.981  25.055  57.258  1.00  0.00    -0.259 OA
BRANCH  26  28
HETATM   28  C   UNL     1       7.444  24.727  54.934  1.00  0.00     0.039 A 
HETATM   29  C   UNL     1       7.497  23.333  55.062  1.00  0.00     0.017 A 
HETATM   30  C   UNL     1       7.739  22.533  53.943  1.00  0.00     0.001 A 
HETATM   31  C   UNL     1       7.921  23.121  52.692  1.00  0.00     0.000 A 
HETATM   32  C   UNL     1       7.857  24.508  52.554  1.00  0.00     0.001 A 
HETATM   33  C   UNL     1       7.619  25.312  53.671  1.00  0.00     0.017 A 
ENDBRANCH  26  28
ENDBRANCH  25  26
ENDBRANCH  19  25
ENDBRANCH   9  16
BRANCH  11  34
HETATM   34  O   UNL     1       1.683  32.347  54.385  1.00  0.00    -0.344 OA
HETATM   35  H   UNL     1       2.305  32.709  53.729  1.00  0.00     0.219 HD
ENDBRANCH  11  34
BRANCH   1  36
HETATM   36  C   UNL     1       3.379  37.689  55.348  1.00  0.00     0.231 C 
HETATM   37  C   UNL     1       3.717  38.467  56.607  1.00  0.00     0.034 C 
ENDBRANCH   1  36
TORSDOF 8
ENDMDL
MODEL 8
REMARK VINA RESULT:      -7.6      2.547      3.454
REMARK  8 active torsions:
REMARK  status: ('A' for Active; 'I' for Inactive)
REMARK    1  A    between atoms: C_2  and  N_3 
REMARK    2  A    between atoms: C_11  and  C_12 
REMARK    3  A    between atoms: C_14  and  O_15 
REMARK    4  A    between atoms: O_15  and  C_16 
REMARK    5  A    between atoms: C_18  and  O_19 
REMARK    6  A    between atoms: O_19  and  C_20 
REMARK    7  A    between atoms: C_20  and  C_21 
REMARK    8  A    between atoms: C_31  and  O_32 
ROOT
HETATM    1  N   UNL     1       5.291  34.006  50.149  1.00  0.00    -0.067 N 
HETATM    2  H   UNL     1       5.686  34.898  50.468  1.00  0.00     0.280 HD
HETATM    3  C   UNL     1       4.812  33.291  51.416  1.00  0.00     0.281 C 
HETATM    4  C   UNL     1       4.607  31.839  51.157  1.00  0.00     0.018 A 
HETATM    5  C   UNL     1       5.138  31.136  50.087  1.00  0.00    -0.024 A 
HETATM    6  C   UNL     1       4.741  29.763  50.130  1.00  0.00     0.057 A 
HETATM    7  C   UNL     1       3.967  29.495  51.231  1.00  0.00     0.087 A 
HETATM    8  N   UNL     1       3.489  28.261  51.479  1.00  0.00    -0.357 N 
HETATM    9  C   UNL     1       4.197  27.149  50.844  1.00  0.00     0.243 C 
HETATM   10  N   UNL     1       4.739  27.429  49.494  1.00  0.00    -0.235 NA
HETATM   11  C   UNL     1       4.995  28.659  49.239  1.00  0.00     0.173 C 
HETATM   12  S   UNL     1       3.684  30.858  52.197  1.00  0.00    -0.074 SA
HETATM   13  C   UNL     1       5.982  31.813  49.048  1.00  0.00     0.068 C 
HETATM   14  C   UNL     1       6.431  33.214  49.505  1.00  0.00     0.240 C 
HETATM   15  H   UNL     1       3.086  28.059  52.388  1.00  0.00     0.162 HD
ENDROOT
BRANCH   9  16
HETATM   16  C   UNL     1       5.265  26.615  51.809  1.00  0.00    -0.012 A 
HETATM   17  C   UNL     1       5.402  27.114  53.119  1.00  0.00     0.050 A 
HETATM   18  C   UNL     1       6.335  26.574  54.009  1.00  0.00     0.103 A 
HETATM   19  C   UNL     1       7.134  25.503  53.588  1.00  0.00     0.112 A 
HETATM   20  C   UNL     1       7.040  25.009  52.290  1.00  0.00     0.041 A 
HETATM   21  C   UNL     1       6.128  25.580  51.400  1.00  0.00     0.014 A 
BRANCH  18  22
HETATM   22  O   UNL     1       6.494  26.991  55.306  1.00  0.00    -0.349 OA
BRANCH  22  23
HETATM   23  C   UNL     1       6.961  28.330  55.481  1.00  0.00     0.171 C 
HETATM   24  C   UNL     1       6.577  28.782  56.879  1.00  0.00     0.034 C 
ENDBRANCH  22  23
ENDBRANCH  18  22
BRANCH  19  25
HETATM   25  O   UNL     1       7.955  24.904  54.572  1.00  0.00    -0.272 OA
BRANCH  25  26
HETATM   26  C   UNL     1       7.497  23.964  55.481  1.00  0.00     0.298 C 
HETATM   27  O   UNL     1       6.874  24.171  56.509  1.00  0.00    -0.259 OA
BRANCH  26  28
HETATM   28  C   UNL     1       7.948  22.615  55.044  1.00  0.00     0.039 A 
HETATM   29  C   UNL     1       8.652  21.824  55.961  1.00  0.00     0.017 A 
HETATM   30  C   UNL     1       9.117  20.561  55.589  1.00  0.00     0.001 A 
HETATM   31  C   UNL     1       8.874  20.080  54.303  1.00  0.00     0.000 A 
HETATM   32  C   UNL     1       8.164  20.856  53.387  1.00  0.00     0.001 A 
HETATM   33  C   UNL     1       7.700  22.122  53.755  1.00  0.00     0.017 A 
ENDBRANCH  26  28
ENDBRANCH  25  26
ENDBRANCH  19  25
ENDBRANCH   9  16
BRANCH  11  34
HETATM   34  O   UNL     1       5.541  28.965  48.050  1.00  0.00    -0.344 OA
HETATM   35  H   UNL     1       5.063  28.441  47.383  1.00  0.00     0.219 HD
ENDBRANCH  11  34
BRANCH   1  36
HETATM   36  C   UNL     1       4.134  34.347  49.233  1.00  0.00     0.231 C 
HETATM   37  C   UNL     1       3.015  35.028  49.999  1.00  0.00     0.034 C 
ENDBRANCH   1  36
TORSDOF 8
ENDMDL
MODEL 9
REMARK VINA RESULT:      -7.6      3.966      4.799
REMARK  8 active torsions:
REMARK  status: ('A' for Active; 'I' for Inactive)
REMARK    1  A    between atoms: C_2  and  N_3 
REMARK    2  A    between atoms: C_11  and  C_12 
REMARK    3  A    between atoms: C_14  and  O_15 
REMARK    4  A    between atoms: O_15  and  C_16 
REMARK    5  A    between atoms: C_18  and  O_19 
REMARK    6  A    between atoms: O_19  and  C_20 
REMARK    7  A    between atoms: C_20  and  C_21 
REMARK    8  A    between atoms: C_31  and  O_32 
ROOT
HETATM    1  N   UNL     1       2.503  35.175  51.252  1.00  0.00    -0.067 N 
HETATM    2  H   UNL     1       2.584  35.425  50.259  1.00  0.00     0.280 HD
HETATM    3  C   UNL     1       3.934  34.906  51.726  1.00  0.00     0.281 C 
HETATM    4  C   UNL     1       3.932  34.140  53.004  1.00  0.00     0.018 A 
HETATM    5  C   UNL     1       2.858  33.418  53.499  1.00  0.00    -0.024 A 
HETATM    6  C   UNL     1       3.184  32.810  54.752  1.00  0.00     0.057 A 
HETATM    7  C   UNL     1       4.480  33.074  55.118  1.00  0.00     0.087 A 
HETATM    8  N   UNL     1       5.007  32.592  56.259  1.00  0.00    -0.357 N 
HETATM    9  C   UNL     1       4.352  31.415  56.832  1.00  0.00     0.243 C 
HETATM   10  N   UNL     1       2.880  31.364  56.666  1.00  0.00    -0.235 NA
HETATM   11  C   UNL     1       2.409  32.010  55.664  1.00  0.00     0.173 C 
HETATM   12  S   UNL     1       5.302  34.057  54.009  1.00  0.00    -0.074 SA
HETATM   13  C   UNL     1       1.549  33.362  52.769  1.00  0.00     0.068 C 
HETATM   14  C   UNL     1       1.680  33.888  51.326  1.00  0.00     0.240 C 
HETATM   15  H   UNL     1       6.009  32.646  56.404  1.00  0.00     0.162 HD
ENDROOT
BRANCH   9  16
HETATM   16  C   UNL     1       5.048  30.149  56.315  1.00  0.00    -0.012 A 
HETATM   17  C   UNL     1       6.450  30.003  56.347  1.00  0.00     0.050 A 
HETATM   18  C   UNL     1       7.067  28.819  55.933  1.00  0.00     0.103 A 
HETATM   19  C   UNL     1       6.269  27.753  55.498  1.00  0.00     0.112 A 
HETATM   20  C   UNL     1       4.884  27.879  55.430  1.00  0.00     0.041 A 
HETATM   21  C   UNL     1       4.282  29.079  55.812  1.00  0.00     0.014 A 
BRANCH  18  22
HETATM   22  O   UNL     1       8.421  28.602  55.971  1.00  0.00    -0.349 OA
BRANCH  22  23
HETATM   23  C   UNL     1       9.118  29.182  57.074  1.00  0.00     0.171 C 
HETATM   24  C   UNL     1      10.509  29.565  56.601  1.00  0.00     0.034 C 
ENDBRANCH  22  23
ENDBRANCH  18  22
BRANCH  19  25
HETATM   25  O   UNL     1       6.935  26.534  55.231  1.00  0.00    -0.272 OA
BRANCH  25  26
HETATM   26  C   UNL     1       7.183  26.062  53.953  1.00  0.00     0.298 C 
HETATM   27  O   UNL     1       7.177  26.702  52.914  1.00  0.00    -0.259 OA
BRANCH  26  28
HETATM   28  C   UNL     1       7.401  24.592  54.018  1.00  0.00     0.039 A 
HETATM   29  C   UNL     1       7.319  23.966  55.269  1.00  0.00     0.017 A 
HETATM   30  C   UNL     1       7.541  22.592  55.383  1.00  0.00     0.001 A 
HETATM   31  C   UNL     1       7.839  21.837  54.249  1.00  0.00     0.000 A 
HETATM   32  C   UNL     1       7.912  22.450  52.999  1.00  0.00     0.001 A 
HETATM   33  C   UNL     1       7.693  23.825  52.880  1.00  0.00     0.017 A 
ENDBRANCH  26  28
ENDBRANCH  25  26
ENDBRANCH  19  25
ENDBRANCH   9  16
BRANCH  11  34
HETATM   34  O   UNL     1       1.086  31.951  55.432  1.00  0.00    -0.344 OA
HETATM   35  H   UNL     1       0.835  31.013  55.501  1.00  0.00     0.219 HD
ENDBRANCH  11  34
BRANCH   1  36
HETATM   36  C   UNL     1       1.902  36.376  51.954  1.00  0.00     0.231 C 
HETATM   37  C   UNL     1       0.481  36.627  51.484  1.00  0.00     0.034 C 
ENDBRANCH   1  36
TORSDOF 8
ENDMDL
MODEL 10
REMARK VINA RESULT:      -7.6      3.677      9.599
REMARK  8 active torsions:
REMARK  status: ('A' for Active; 'I' for Inactive)
REMARK    1  A    between atoms: C_2  and  N_3 
REMARK    2  A    between atoms: C_11  and  C_12 
REMARK    3  A    between atoms: C_14  and  O_15 
REMARK    4  A    between atoms: O_15  and  C_16 
REMARK    5  A    between atoms: C_18  and  O_19 
REMARK    6  A    between atoms: O_19  and  C_20 
REMARK    7  A    between atoms: C_20  and  C_21 
REMARK    8  A    between atoms: C_31  and  O_32 
ROOT
HETATM    1  N   UNL     1       8.372  22.973  55.107  1.00  0.00    -0.067 N 
HETATM    2  H   UNL     1       9.204  22.403  54.911  1.00  0.00     0.280 HD
HETATM    3  C   UNL     1       7.651  23.123  53.764  1.00  0.00     0.281 C 
HETATM    4  C   UNL     1       6.679  24.251  53.810  1.00  0.00     0.018 A 
HETATM    5  C   UNL     1       6.687  25.274  54.745  1.00  0.00    -0.024 A 
HETATM    6  C   UNL     1       5.612  26.188  54.512  1.00  0.00     0.057 A 
HETATM    7  C   UNL     1       4.877  25.832  53.409  1.00  0.00     0.087 A 
HETATM    8  N   UNL     1       3.821  26.558  52.996  1.00  0.00    -0.357 N 
HETATM    9  C   UNL     1       3.779  27.953  53.435  1.00  0.00     0.243 C 
HETATM   10  N   UNL     1       4.313  28.208  54.793  1.00  0.00    -0.235 NA
HETATM   11  C   UNL     1       5.180  27.366  55.219  1.00  0.00     0.173 C 
HETATM   12  S   UNL     1       5.429  24.412  52.667  1.00  0.00    -0.074 SA
HETATM   13  C   UNL     1       7.705  25.320  55.845  1.00  0.00     0.068 C 
HETATM   14  C   UNL     1       8.865  24.339  55.588  1.00  0.00     0.240 C 
HETATM   15  H   UNL     1       3.423  26.377  52.081  1.00  0.00     0.162 HD
ENDROOT
BRANCH   9  16
HETATM   16  C   UNL     1       4.438  28.837  52.367  1.00  0.00    -0.012 A 
HETATM   17  C   UNL     1       4.945  28.302  51.166  1.00  0.00     0.050 A 
HETATM   18  C   UNL     1       5.483  29.127  50.173  1.00  0.00     0.103 A 
HETATM   19  C   UNL     1       5.498  30.513  50.376  1.00  0.00     0.112 A 
HETATM   20  C   UNL     1       5.030  31.066  51.564  1.00  0.00     0.041 A 
HETATM   21  C   UNL     1       4.527  30.229  52.562  1.00  0.00     0.014 A 
BRANCH  18  22
HETATM   22  O   UNL     1       5.961  28.673  48.970  1.00  0.00    -0.349 OA
BRANCH  22  23
HETATM   23  C   UNL     1       5.061  27.875  48.199  1.00  0.00     0.171 C 
HETATM   24  C   UNL     1       4.087  28.808  47.502  1.00  0.00     0.034 C 
ENDBRANCH  22  23
ENDBRANCH  18  22
BRANCH  19  25
HETATM   25  O   UNL     1       5.919  31.306  49.282  1.00  0.00    -0.272 OA
BRANCH  25  26
HETATM   26  C   UNL     1       5.275  32.467  48.887  1.00  0.00     0.298 C 
HETATM   27  O   UNL     1       4.104  32.591  48.567  1.00  0.00    -0.259 OA
BRANCH  26  28
HETATM   28  C   UNL     1       6.268  33.574  48.842  1.00  0.00     0.039 A 
HETATM   29  C   UNL     1       6.170  34.589  49.803  1.00  0.00     0.017 A 
HETATM   30  C   UNL     1       7.063  35.662  49.785  1.00  0.00     0.001 A 
HETATM   31  C   UNL     1       8.062  35.722  48.814  1.00  0.00     0.000 A 
HETATM   32  C   UNL     1       8.174  34.710  47.861  1.00  0.00     0.001 A 
HETATM   33  C   UNL     1       7.280  33.636  47.873  1.00  0.00     0.017 A 
ENDBRANCH  26  28
ENDBRANCH  25  26
ENDBRANCH  19  25
ENDBRANCH   9  16
BRANCH  11  34
HETATM   34  O   UNL     1       5.740  27.580  56.423  1.00  0.00    -0.344 OA
HETATM   35  H   UNL     1       5.024  27.507  57.077  1.00  0.00     0.219 HD
ENDBRANCH  11  34
BRANCH   1  36
HETATM   36  C   UNL     1       7.536  22.193  56.101  1.00  0.00     0.231 C 
HETATM   37  C   UNL     1       7.637  20.700  55.846  1.00  0.00     0.034 C 
ENDBRANCH   1  36
TORSDOF 8
ENDMDL
