MODEL 1
REMARK VINA RESULT:     -10.5      0.000      0.000
REMARK  6 active torsions:
REMARK  status: ('A' for Active; 'I' for Inactive)
REMARK    1  A    between atoms: C_4  and  C_5 
REMARK    2  A    between atoms: C_5  and  C_6 
REMARK    3  A    between atoms: C_8  and  C_9 
REMARK    4  A    between atoms: C_9  and  C_10 
REMARK       I    between atoms: C_10  and  N_11 
REMARK    5  A    between atoms: N_11  and  N_12 
REMARK       I    between atoms: N_12  and  C_13 
REMARK       I    between atoms: C_13  and  N_14 
REMARK    6  A    between atoms: N_14  and  C_15 
ROOT
HETATM    1  C   UNL     1       7.415  28.910  57.167  1.00  0.00     0.238 C 
HETATM    2  N   UNL     1       8.302  29.736  57.823  1.00  0.00    -0.266 N 
HETATM    3  O   UNL     1       6.600  28.204  57.756  1.00  0.00    -0.272 OA
HETATM    4  H   UNL     1       9.060  30.244  57.364  1.00  0.00     0.190 HD
ENDROOT
BRANCH   1   5
HETATM    5  C   UNL     1       7.551  28.979  55.667  1.00  0.00     0.139 C 
BRANCH   5   6
HETATM    6  C   UNL     1       7.153  27.667  54.994  1.00  0.00     0.185 C 
HETATM    7  N   UNL     1       7.649  26.531  55.768  1.00  0.00    -0.363 N 
HETATM    8  C   UNL     1       6.899  25.380  55.843  1.00  0.00     0.125 C 
HETATM    9  H   UNL     1       8.657  26.399  55.692  1.00  0.00     0.161 HD
HETATM   10  N   UNL     1       5.636  25.300  55.539  1.00  0.00    -0.159 NA
HETATM   11  N   UNL     1       5.020  26.428  55.094  1.00  0.00    -0.244 N 
HETATM   12  C   UNL     1       5.631  27.633  54.843  1.00  0.00     0.261 C 
HETATM   13  H   UNL     1       4.017  26.371  54.958  1.00  0.00     0.192 HD
HETATM   14  O   UNL     1       4.976  28.606  54.467  1.00  0.00    -0.269 OA
BRANCH   8  15
HETATM   15  C   UNL     1       7.590  24.105  56.318  1.00  0.00     0.118 C 
BRANCH  15  16
HETATM   16  C   UNL     1       7.756  23.076  55.225  1.00  0.00    -0.051 A 
HETATM   17  C   UNL     1       7.730  21.707  55.531  1.00  0.00     0.007 A 
HETATM   18  C   UNL     1       7.835  20.752  54.518  1.00  0.00     0.001 A 
HETATM   19  C   UNL     1       7.963  21.151  53.189  1.00  0.00     0.000 A 
HETATM   20  C   UNL     1       7.981  22.508  52.872  1.00  0.00     0.001 A 
HETATM   21  C   UNL     1       7.871  23.464  53.882  1.00  0.00     0.007 A 
ENDBRANCH  15  16
ENDBRANCH   8  15
ENDBRANCH   5   6
ENDBRANCH   1   5
BRANCH   2  22
HETATM   22  N   UNL     1       8.296  29.760  59.226  1.00  0.00    -0.249 N 
HETATM   23  C   UNL     1       7.668  30.842  59.825  1.00  0.00     0.339 C 
HETATM   24  N   UNL     1       7.779  30.796  61.197  1.00  0.00    -0.308 N 
HETATM   25  O   UNL     1       7.068  31.679  59.158  1.00  0.00    -0.245 OA
HETATM   26  H   UNL     1       8.184  29.950  61.570  1.00  0.00     0.170 HD
HETATM   27  H   UNL     1       9.117  29.345  59.659  1.00  0.00     0.192 HD
BRANCH  24  28
HETATM   28  C   UNL     1       7.268  31.720  62.132  1.00  0.00     0.038 A 
HETATM   29  C   UNL     1       5.945  32.169  62.143  1.00  0.00     0.055 A 
HETATM   30  C   UNL     1       5.511  33.085  63.112  1.00  0.00     0.058 A 
HETATM   31 CL   UNL     1       3.857  33.587  63.062  1.00  0.00    -0.082 Cl
HETATM   32  C   UNL     1       6.405  33.561  64.076  1.00  0.00     0.055 A 
HETATM   33 CL   UNL     1       5.941  34.688  65.301  1.00  0.00    -0.083 Cl
HETATM   34  C   UNL     1       7.730  33.122  64.063  1.00  0.00     0.028 A 
HETATM   35  C   UNL     1       8.158  32.209  63.096  1.00  0.00     0.031 A 
ENDBRANCH  24  28
ENDBRANCH   2  22
TORSDOF 6
ENDMDL
MODEL 2
REMARK VINA RESULT:     -10.3      5.029      9.253
REMARK  6 active torsions:
REMARK  status: ('A' for Active; 'I' for Inactive)
REMARK    1  A    between atoms: C_4  and  C_5 
REMARK    2  A    between atoms: C_5  and  C_6 
REMARK    3  A    between atoms: C_8  and  C_9 
REMARK    4  A    between atoms: C_9  and  C_10 
REMARK       I    between atoms: C_10  and  N_11 
REMARK    5  A    between atoms: N_11  and  N_12 
REMARK       I    between atoms: N_12  and  C_13 
REMARK       I    between atoms: C_13  and  N_14 
REMARK    6  A    between atoms: N_14  and  C_15 
ROOT
HETATM    1  C   UNL     1       4.252  29.392  56.193  1.00  0.00     0.238 C 
HETATM    2  N   UNL     1       4.128  28.020  56.143  1.00  0.00    -0.266 N 
HETATM    3  O   UNL     1       5.112  30.008  55.566  1.00  0.00    -0.272 OA
HETATM    4  H   UNL     1       3.499  27.479  56.738  1.00  0.00     0.190 HD
ENDROOT
BRANCH   1   5
HETATM    5  C   UNL     1       3.222  30.041  57.081  1.00  0.00     0.139 C 
BRANCH   5   6
HETATM    6  C   UNL     1       3.852  31.017  58.073  1.00  0.00     0.185 C 
HETATM    7  N   UNL     1       5.194  30.569  58.440  1.00  0.00    -0.363 N 
HETATM    8  C   UNL     1       6.182  31.498  58.669  1.00  0.00     0.125 C 
HETATM    9  H   UNL     1       5.194  29.759  59.059  1.00  0.00     0.161 HD
HETATM   10  N   UNL     1       6.126  32.744  58.298  1.00  0.00    -0.159 NA
HETATM   11  N   UNL     1       5.001  33.163  57.656  1.00  0.00    -0.244 N 
HETATM   12  C   UNL     1       3.869  32.413  57.445  1.00  0.00     0.261 C 
HETATM   13  H   UNL     1       5.016  34.107  57.288  1.00  0.00     0.192 HD
HETATM   14  O   UNL     1       2.911  32.878  56.827  1.00  0.00    -0.269 OA
BRANCH   8  15
HETATM   15  C   UNL     1       7.435  31.042  59.410  1.00  0.00     0.118 C 
BRANCH  15  16
HETATM   16  C   UNL     1       8.511  30.513  58.490  1.00  0.00    -0.051 A 
HETATM   17  C   UNL     1       9.717  31.213  58.335  1.00  0.00     0.007 A 
HETATM   18  C   UNL     1      10.733  30.703  57.524  1.00  0.00     0.001 A 
HETATM   19  C   UNL     1      10.558  29.490  56.861  1.00  0.00     0.000 A 
HETATM   20  C   UNL     1       9.368  28.781  57.015  1.00  0.00     0.001 A 
HETATM   21  C   UNL     1       8.354  29.286  57.830  1.00  0.00     0.007 A 
ENDBRANCH  15  16
ENDBRANCH   8  15
ENDBRANCH   5   6
ENDBRANCH   1   5
BRANCH   2  22
HETATM   22  N   UNL     1       5.034  27.285  55.364  1.00  0.00    -0.249 N 
HETATM   23  C   UNL     1       5.467  26.076  55.890  1.00  0.00     0.339 C 
HETATM   24  N   UNL     1       6.399  25.474  55.075  1.00  0.00    -0.308 N 
HETATM   25  O   UNL     1       5.004  25.636  56.938  1.00  0.00    -0.245 OA
HETATM   26  H   UNL     1       6.544  25.920  54.181  1.00  0.00     0.170 HD
HETATM   27  H   UNL     1       5.666  27.851  54.803  1.00  0.00     0.192 HD
BRANCH  24  28
HETATM   28  C   UNL     1       7.057  24.244  55.285  1.00  0.00     0.038 A 
HETATM   29  C   UNL     1       7.098  23.210  54.346  1.00  0.00     0.055 A 
HETATM   30  C   UNL     1       7.781  22.018  54.628  1.00  0.00     0.058 A 
HETATM   31 CL   UNL     1       7.790  20.789  53.412  1.00  0.00    -0.082 Cl
HETATM   32  C   UNL     1       8.425  21.853  55.857  1.00  0.00     0.055 A 
HETATM   33 CL   UNL     1       9.287  20.415  56.272  1.00  0.00    -0.083 Cl
HETATM   34  C   UNL     1       8.379  22.880  56.802  1.00  0.00     0.028 A 
HETATM   35  C   UNL     1       7.698  24.066  56.517  1.00  0.00     0.031 A 
ENDBRANCH  24  28
ENDBRANCH   2  22
TORSDOF 6
ENDMDL
MODEL 3
REMARK VINA RESULT:     -10.3      1.458      2.052
REMARK  6 active torsions:
REMARK  status: ('A' for Active; 'I' for Inactive)
REMARK    1  A    between atoms: C_4  and  C_5 
REMARK    2  A    between atoms: C_5  and  C_6 
REMARK    3  A    between atoms: C_8  and  C_9 
REMARK    4  A    between atoms: C_9  and  C_10 
REMARK       I    between atoms: C_10  and  N_11 
REMARK    5  A    between atoms: N_11  and  N_12 
REMARK       I    between atoms: N_12  and  C_13 
REMARK       I    between atoms: C_13  and  N_14 
REMARK    6  A    between atoms: N_14  and  C_15 
ROOT
HETATM    1  C   UNL     1       6.741  29.016  56.818  1.00  0.00     0.238 C 
HETATM    2  N   UNL     1       5.955  30.144  56.916  1.00  0.00    -0.266 N 
HETATM    3  O   UNL     1       6.924  28.246  57.758  1.00  0.00    -0.272 OA
HETATM    4  H   UNL     1       5.879  30.856  56.187  1.00  0.00     0.190 HD
ENDROOT
BRANCH   1   5
HETATM    5  C   UNL     1       7.333  28.833  55.444  1.00  0.00     0.139 C 
BRANCH   5   6
HETATM    6  C   UNL     1       6.976  27.476  54.841  1.00  0.00     0.185 C 
HETATM    7  N   UNL     1       7.584  26.400  55.622  1.00  0.00    -0.363 N 
HETATM    8  C   UNL     1       6.910  25.212  55.782  1.00  0.00     0.125 C 
HETATM    9  H   UNL     1       8.592  26.324  55.489  1.00  0.00     0.161 HD
HETATM   10  N   UNL     1       5.639  25.047  55.558  1.00  0.00    -0.159 NA
HETATM   11  N   UNL     1       4.931  26.121  55.114  1.00  0.00    -0.244 N 
HETATM   12  C   UNL     1       5.453  27.349  54.785  1.00  0.00     0.261 C 
HETATM   13  H   UNL     1       3.926  26.001  55.041  1.00  0.00     0.192 HD
HETATM   14  O   UNL     1       4.719  28.268  54.417  1.00  0.00    -0.269 OA
BRANCH   8  15
HETATM   15  C   UNL     1       7.703  23.998  56.256  1.00  0.00     0.118 C 
BRANCH  15  16
HETATM   16  C   UNL     1       7.768  22.891  55.230  1.00  0.00    -0.051 A 
HETATM   17  C   UNL     1       7.933  23.194  53.871  1.00  0.00     0.007 A 
HETATM   18  C   UNL     1       8.042  22.172  52.924  1.00  0.00     0.001 A 
HETATM   19  C   UNL     1       7.990  20.839  53.325  1.00  0.00     0.000 A 
HETATM   20  C   UNL     1       7.836  20.525  54.674  1.00  0.00     0.001 A 
HETATM   21  C   UNL     1       7.732  21.544  55.621  1.00  0.00     0.007 A 
ENDBRANCH  15  16
ENDBRANCH   8  15
ENDBRANCH   5   6
ENDBRANCH   1   5
BRANCH   2  22
HETATM   22  N   UNL     1       5.352  30.446  58.146  1.00  0.00    -0.249 N 
HETATM   23  C   UNL     1       5.816  31.576  58.804  1.00  0.00     0.339 C 
HETATM   24  N   UNL     1       5.202  31.739  60.026  1.00  0.00    -0.308 N 
HETATM   25  O   UNL     1       6.642  32.320  58.285  1.00  0.00    -0.245 OA
HETATM   26  H   UNL     1       4.440  31.103  60.215  1.00  0.00     0.170 HD
HETATM   27  H   UNL     1       5.051  29.635  58.680  1.00  0.00     0.192 HD
BRANCH  24  28
HETATM   28  C   UNL     1       5.418  32.768  60.966  1.00  0.00     0.038 A 
HETATM   29  C   UNL     1       6.270  32.652  62.067  1.00  0.00     0.055 A 
HETATM   30  C   UNL     1       6.438  33.725  62.954  1.00  0.00     0.058 A 
HETATM   31 CL   UNL     1       7.513  33.504  64.290  1.00  0.00    -0.082 Cl
HETATM   32  C   UNL     1       5.749  34.922  62.744  1.00  0.00     0.055 A 
HETATM   33 CL   UNL     1       5.908  36.286  63.792  1.00  0.00    -0.083 Cl
HETATM   34  C   UNL     1       4.890  35.040  61.650  1.00  0.00     0.028 A 
HETATM   35  C   UNL     1       4.726  33.968  60.768  1.00  0.00     0.031 A 
ENDBRANCH  24  28
ENDBRANCH   2  22
TORSDOF 6
ENDMDL
MODEL 4
REMARK VINA RESULT:     -10.3      1.767      2.489
REMARK  6 active torsions:
REMARK  status: ('A' for Active; 'I' for Inactive)
REMARK    1  A    between atoms: C_4  and  C_5 
REMARK    2  A    between atoms: C_5  and  C_6 
REMARK    3  A    between atoms: C_8  and  C_9 
REMARK    4  A    between atoms: C_9  and  C_10 
REMARK       I    between atoms: C_10  and  N_11 
REMARK    5  A    between atoms: N_11  and  N_12 
REMARK       I    between atoms: N_12  and  C_13 
REMARK       I    between atoms: C_13  and  N_14 
REMARK    6  A    between atoms: N_14  and  C_15 
ROOT
HETATM    1  C   UNL     1       6.734  28.323  54.870  1.00  0.00     0.238 C 
HETATM    2  N   UNL     1       7.460  29.348  55.437  1.00  0.00    -0.266 N 
HETATM    3  O   UNL     1       6.487  27.274  55.460  1.00  0.00    -0.272 OA
HETATM    4  H   UNL     1       7.773  30.178  54.931  1.00  0.00     0.190 HD
ENDROOT
BRANCH   1   5
HETATM    5  C   UNL     1       6.274  28.636  53.469  1.00  0.00     0.139 C 
BRANCH   5   6
HETATM    6  C   UNL     1       5.986  27.372  52.663  1.00  0.00     0.185 C 
HETATM    7  N   UNL     1       7.070  26.406  52.834  1.00  0.00    -0.363 N 
HETATM    8  C   UNL     1       6.783  25.061  52.867  1.00  0.00     0.125 C 
HETATM    9  H   UNL     1       7.924  26.666  52.341  1.00  0.00     0.161 HD
HETATM   10  N   UNL     1       5.597  24.563  53.064  1.00  0.00    -0.159 NA
HETATM   11  N   UNL     1       4.564  25.434  53.228  1.00  0.00    -0.244 N 
HETATM   12  C   UNL     1       4.638  26.801  53.109  1.00  0.00     0.261 C 
HETATM   13  H   UNL     1       3.668  25.030  53.479  1.00  0.00     0.192 HD
HETATM   14  O   UNL     1       3.647  27.505  53.304  1.00  0.00    -0.269 OA
BRANCH   8  15
HETATM   15  C   UNL     1       7.932  24.079  52.660  1.00  0.00     0.118 C 
BRANCH  15  16
HETATM   16  C   UNL     1       7.879  22.895  53.596  1.00  0.00    -0.051 A 
HETATM   17  C   UNL     1       7.877  21.588  53.086  1.00  0.00     0.007 A 
HETATM   18  C   UNL     1       7.877  20.490  53.949  1.00  0.00     0.001 A 
HETATM   19  C   UNL     1       7.883  20.684  55.329  1.00  0.00     0.000 A 
HETATM   20  C   UNL     1       7.894  21.977  55.848  1.00  0.00     0.001 A 
HETATM   21  C   UNL     1       7.900  23.075  54.987  1.00  0.00     0.007 A 
ENDBRANCH  15  16
ENDBRANCH   8  15
ENDBRANCH   5   6
ENDBRANCH   1   5
BRANCH   2  22
HETATM   22  N   UNL     1       7.965  29.185  56.736  1.00  0.00    -0.249 N 
HETATM   23  C   UNL     1       7.626  30.163  57.661  1.00  0.00     0.339 C 
HETATM   24  N   UNL     1       8.226  29.936  58.879  1.00  0.00    -0.308 N 
HETATM   25  O   UNL     1       6.849  31.067  57.374  1.00  0.00    -0.245 OA
HETATM   26  H   UNL     1       8.716  29.057  58.964  1.00  0.00     0.170 HD
HETATM   27  H   UNL     1       8.875  28.734  56.783  1.00  0.00     0.192 HD
BRANCH  24  28
HETATM   28  C   UNL     1       8.115  30.716  60.049  1.00  0.00     0.038 A 
HETATM   29  C   UNL     1       7.138  31.694  60.246  1.00  0.00     0.055 A 
HETATM   30  C   UNL     1       7.089  32.422  61.443  1.00  0.00     0.058 A 
HETATM   31 CL   UNL     1       5.845  33.612  61.612  1.00  0.00    -0.082 Cl
HETATM   32  C   UNL     1       8.025  32.177  62.451  1.00  0.00     0.055 A 
HETATM   33 CL   UNL     1       8.025  33.033  63.952  1.00  0.00    -0.083 Cl
HETATM   34  C   UNL     1       9.010  31.207  62.256  1.00  0.00     0.028 A 
HETATM   35  C   UNL     1       9.054  30.483  61.061  1.00  0.00     0.031 A 
ENDBRANCH  24  28
ENDBRANCH   2  22
TORSDOF 6
ENDMDL
MODEL 5
REMARK VINA RESULT:     -10.2      1.651      2.356
REMARK  6 active torsions:
REMARK  status: ('A' for Active; 'I' for Inactive)
REMARK    1  A    between atoms: C_4  and  C_5 
REMARK    2  A    between atoms: C_5  and  C_6 
REMARK    3  A    between atoms: C_8  and  C_9 
REMARK    4  A    between atoms: C_9  and  C_10 
REMARK       I    between atoms: C_10  and  N_11 
REMARK    5  A    between atoms: N_11  and  N_12 
REMARK       I    between atoms: N_12  and  C_13 
REMARK       I    between atoms: C_13  and  N_14 
REMARK    6  A    between atoms: N_14  and  C_15 
ROOT
HETATM    1  C   UNL     1       7.818  28.705  54.343  1.00  0.00     0.238 C 
HETATM    2  N   UNL     1       7.284  29.183  55.520  1.00  0.00    -0.266 N 
HETATM    3  O   UNL     1       9.027  28.611  54.147  1.00  0.00    -0.272 OA
HETATM    4  H   UNL     1       6.292  29.376  55.664  1.00  0.00     0.190 HD
ENDROOT
BRANCH   1   5
HETATM    5  C   UNL     1       6.763  28.306  53.342  1.00  0.00     0.139 C 
BRANCH   5   6
HETATM    6  C   UNL     1       6.516  26.799  53.337  1.00  0.00     0.185 C 
HETATM    7  N   UNL     1       7.437  26.134  54.256  1.00  0.00    -0.363 N 
HETATM    8  C   UNL     1       7.012  25.035  54.968  1.00  0.00     0.125 C 
HETATM    9  H   UNL     1       8.395  26.094  53.911  1.00  0.00     0.161 HD
HETATM   10  N   UNL     1       5.766  24.700  55.135  1.00  0.00    -0.159 NA
HETATM   11  N   UNL     1       4.817  25.479  54.548  1.00  0.00    -0.244 N 
HETATM   12  C   UNL     1       5.054  26.540  53.707  1.00  0.00     0.261 C 
HETATM   13  H   UNL     1       3.852  25.261  54.770  1.00  0.00     0.192 HD
HETATM   14  O   UNL     1       4.122  27.201  53.247  1.00  0.00    -0.269 OA
BRANCH   8  15
HETATM   15  C   UNL     1       8.071  24.144  55.608  1.00  0.00     0.118 C 
BRANCH  15  16
HETATM   16  C   UNL     1       8.124  22.757  55.011  1.00  0.00    -0.051 A 
HETATM   17  C   UNL     1       8.101  22.584  53.620  1.00  0.00     0.007 A 
HETATM   18  C   UNL     1       8.198  21.307  53.063  1.00  0.00     0.001 A 
HETATM   19  C   UNL     1       8.322  20.191  53.887  1.00  0.00     0.000 A 
HETATM   20  C   UNL     1       8.354  20.351  55.271  1.00  0.00     0.001 A 
HETATM   21  C   UNL     1       8.263  21.627  55.829  1.00  0.00     0.007 A 
ENDBRANCH  15  16
ENDBRANCH   8  15
ENDBRANCH   5   6
ENDBRANCH   1   5
BRANCH   2  22
HETATM   22  N   UNL     1       8.154  29.606  56.537  1.00  0.00    -0.249 N 
HETATM   23  C   UNL     1       7.566  30.108  57.689  1.00  0.00     0.339 C 
HETATM   24  N   UNL     1       8.510  30.550  58.588  1.00  0.00    -0.308 N 
HETATM   25  O   UNL     1       6.349  30.090  57.841  1.00  0.00    -0.245 OA
HETATM   26  H   UNL     1       9.469  30.346  58.345  1.00  0.00     0.170 HD
HETATM   27  H   UNL     1       9.035  29.992  56.206  1.00  0.00     0.192 HD
BRANCH  24  28
HETATM   28  C   UNL     1       8.286  31.120  59.859  1.00  0.00     0.038 A 
HETATM   29  C   UNL     1       7.354  32.130  60.108  1.00  0.00     0.055 A 
HETATM   30  C   UNL     1       7.184  32.640  61.403  1.00  0.00     0.058 A 
HETATM   31 CL   UNL     1       6.007  33.886  61.630  1.00  0.00    -0.082 Cl
HETATM   32  C   UNL     1       7.952  32.141  62.459  1.00  0.00     0.055 A 
HETATM   33 CL   UNL     1       7.796  32.718  64.080  1.00  0.00    -0.083 Cl
HETATM   34  C   UNL     1       8.890  31.137  62.213  1.00  0.00     0.028 A 
HETATM   35  C   UNL     1       9.056  30.632  60.921  1.00  0.00     0.031 A 
ENDBRANCH  24  28
ENDBRANCH   2  22
TORSDOF 6
ENDMDL
MODEL 6
REMARK VINA RESULT:     -10.0      4.901     10.624
REMARK  6 active torsions:
REMARK  status: ('A' for Active; 'I' for Inactive)
REMARK    1  A    between atoms: C_4  and  C_5 
REMARK    2  A    between atoms: C_5  and  C_6 
REMARK    3  A    between atoms: C_8  and  C_9 
REMARK    4  A    between atoms: C_9  and  C_10 
REMARK       I    between atoms: C_10  and  N_11 
REMARK    5  A    between atoms: N_11  and  N_12 
REMARK       I    between atoms: N_12  and  C_13 
REMARK       I    between atoms: C_13  and  N_14 
REMARK    6  A    between atoms: N_14  and  C_15 
ROOT
HETATM    1  C   UNL     1       5.286  29.145  56.724  1.00  0.00     0.238 C 
HETATM    2  N   UNL     1       5.294  27.848  57.189  1.00  0.00    -0.266 N 
HETATM    3  O   UNL     1       6.229  29.642  56.112  1.00  0.00    -0.272 OA
HETATM    4  H   UNL     1       4.574  27.450  57.794  1.00  0.00     0.190 HD
ENDROOT
BRANCH   1   5
HETATM    5  C   UNL     1       4.002  29.871  57.038  1.00  0.00     0.139 C 
BRANCH   5   6
HETATM    6  C   UNL     1       4.190  30.925  58.127  1.00  0.00     0.185 C 
HETATM    7  N   UNL     1       5.556  30.881  58.643  1.00  0.00    -0.363 N 
HETATM    8  C   UNL     1       6.179  32.049  59.019  1.00  0.00     0.125 C 
HETATM    9  H   UNL     1       5.740  30.070  59.233  1.00  0.00     0.161 HD
HETATM   10  N   UNL     1       5.782  33.241  58.680  1.00  0.00    -0.159 NA
HETATM   11  N   UNL     1       4.658  33.340  57.918  1.00  0.00    -0.244 N 
HETATM   12  C   UNL     1       3.842  32.298  57.548  1.00  0.00     0.261 C 
HETATM   13  H   UNL     1       4.421  34.267  57.582  1.00  0.00     0.192 HD
HETATM   14  O   UNL     1       2.860  32.490  56.830  1.00  0.00    -0.269 OA
BRANCH   8  15
HETATM   15  C   UNL     1       7.425  31.946  59.894  1.00  0.00     0.118 C 
BRANCH  15  16
HETATM   16  C   UNL     1       7.170  32.312  61.337  1.00  0.00    -0.051 A 
HETATM   17  C   UNL     1       5.859  32.489  61.803  1.00  0.00     0.007 A 
HETATM   18  C   UNL     1       5.617  32.780  63.147  1.00  0.00     0.001 A 
HETATM   19  C   UNL     1       6.680  32.893  64.041  1.00  0.00     0.000 A 
HETATM   20  C   UNL     1       7.986  32.711  63.592  1.00  0.00     0.001 A 
HETATM   21  C   UNL     1       8.230  32.415  62.251  1.00  0.00     0.007 A 
ENDBRANCH  15  16
ENDBRANCH   8  15
ENDBRANCH   5   6
ENDBRANCH   1   5
BRANCH   2  22
HETATM   22  N   UNL     1       6.436  27.060  56.980  1.00  0.00    -0.249 N 
HETATM   23  C   UNL     1       6.282  25.950  56.161  1.00  0.00     0.339 C 
HETATM   24  N   UNL     1       7.445  25.217  56.078  1.00  0.00    -0.308 N 
HETATM   25  O   UNL     1       5.225  25.731  55.578  1.00  0.00    -0.245 OA
HETATM   26  H   UNL     1       8.254  25.638  56.513  1.00  0.00     0.170 HD
HETATM   27  H   UNL     1       7.076  27.025  57.769  1.00  0.00     0.192 HD
BRANCH  24  28
HETATM   28  C   UNL     1       7.664  24.033  55.344  1.00  0.00     0.038 A 
HETATM   29  C   UNL     1       7.757  22.763  55.920  1.00  0.00     0.055 A 
HETATM   30  C   UNL     1       7.969  21.632  55.120  1.00  0.00     0.058 A 
HETATM   31 CL   UNL     1       8.067  20.095  55.908  1.00  0.00    -0.082 Cl
HETATM   32  C   UNL     1       8.092  21.766  53.734  1.00  0.00     0.055 A 
HETATM   33 CL   UNL     1       8.350  20.418  52.686  1.00  0.00    -0.083 Cl
HETATM   34  C   UNL     1       8.008  23.033  53.155  1.00  0.00     0.028 A 
HETATM   35  C   UNL     1       7.797  24.159  53.957  1.00  0.00     0.031 A 
ENDBRANCH  24  28
ENDBRANCH   2  22
TORSDOF 6
ENDMDL
MODEL 7
REMARK VINA RESULT:      -9.8      4.628     11.403
REMARK  6 active torsions:
REMARK  status: ('A' for Active; 'I' for Inactive)
REMARK    1  A    between atoms: C_4  and  C_5 
REMARK    2  A    between atoms: C_5  and  C_6 
REMARK    3  A    between atoms: C_8  and  C_9 
REMARK    4  A    between atoms: C_9  and  C_10 
REMARK       I    between atoms: C_10  and  N_11 
REMARK    5  A    between atoms: N_11  and  N_12 
REMARK       I    between atoms: N_12  and  C_13 
REMARK       I    between atoms: C_13  and  N_14 
REMARK    6  A    between atoms: N_14  and  C_15 
ROOT
HETATM    1  C   UNL     1       8.106  28.998  57.631  1.00  0.00     0.238 C 
HETATM    2  N   UNL     1       7.751  27.720  58.006  1.00  0.00    -0.266 N 
HETATM    3  O   UNL     1       7.815  29.477  56.538  1.00  0.00    -0.272 OA
HETATM    4  H   UNL     1       8.076  27.261  58.859  1.00  0.00     0.190 HD
ENDROOT
BRANCH   1   5
HETATM    5  C   UNL     1       8.869  29.732  58.703  1.00  0.00     0.139 C 
BRANCH   5   6
HETATM    6  C   UNL     1       8.130  30.979  59.183  1.00  0.00     0.185 C 
HETATM    7  N   UNL     1       7.393  30.688  60.412  1.00  0.00    -0.363 N 
HETATM    8  C   UNL     1       7.281  31.657  61.383  1.00  0.00     0.125 C 
HETATM    9  H   UNL     1       6.565  30.114  60.260  1.00  0.00     0.161 HD
HETATM   10  N   UNL     1       8.025  32.722  61.454  1.00  0.00    -0.159 NA
HETATM   11  N   UNL     1       8.966  32.901  60.488  1.00  0.00    -0.244 N 
HETATM   12  C   UNL     1       9.144  32.107  59.381  1.00  0.00     0.261 C 
HETATM   13  H   UNL     1       9.600  33.682  60.614  1.00  0.00     0.192 HD
HETATM   14  O   UNL     1      10.047  32.340  58.576  1.00  0.00    -0.269 OA
BRANCH   8  15
HETATM   15  C   UNL     1       6.211  31.474  62.455  1.00  0.00     0.118 C 
BRANCH  15  16
HETATM   16  C   UNL     1       6.155  32.617  63.441  1.00  0.00    -0.051 A 
HETATM   17  C   UNL     1       7.198  32.813  64.358  1.00  0.00     0.007 A 
HETATM   18  C   UNL     1       7.173  33.896  65.240  1.00  0.00     0.001 A 
HETATM   19  C   UNL     1       6.110  34.797  65.213  1.00  0.00     0.000 A 
HETATM   20  C   UNL     1       5.072  34.617  64.300  1.00  0.00     0.001 A 
HETATM   21  C   UNL     1       5.098  33.539  63.415  1.00  0.00     0.007 A 
ENDBRANCH  15  16
ENDBRANCH   8  15
ENDBRANCH   5   6
ENDBRANCH   1   5
BRANCH   2  22
HETATM   22  N   UNL     1       7.048  26.916  57.096  1.00  0.00    -0.249 N 
HETATM   23  C   UNL     1       7.697  25.774  56.646  1.00  0.00     0.339 C 
HETATM   24  N   UNL     1       6.943  25.099  55.712  1.00  0.00    -0.308 N 
HETATM   25  O   UNL     1       8.788  25.442  57.099  1.00  0.00    -0.245 OA
HETATM   26  H   UNL     1       6.006  25.450  55.576  1.00  0.00     0.170 HD
HETATM   27  H   UNL     1       6.427  27.426  56.473  1.00  0.00     0.192 HD
BRANCH  24  28
HETATM   28  C   UNL     1       7.278  23.906  55.039  1.00  0.00     0.038 A 
HETATM   29  C   UNL     1       7.523  22.689  55.681  1.00  0.00     0.055 A 
HETATM   30  C   UNL     1       7.843  21.544  54.940  1.00  0.00     0.058 A 
HETATM   31 CL   UNL     1       8.128  20.076  55.808  1.00  0.00    -0.082 Cl
HETATM   32  C   UNL     1       7.923  21.611  53.546  1.00  0.00     0.055 A 
HETATM   33 CL   UNL     1       8.308  20.240  52.567  1.00  0.00    -0.083 Cl
HETATM   34  C   UNL     1       7.687  22.825  52.900  1.00  0.00     0.028 A 
HETATM   35  C   UNL     1       7.368  23.965  53.643  1.00  0.00     0.031 A 
ENDBRANCH  24  28
ENDBRANCH   2  22
TORSDOF 6
ENDMDL
MODEL 8
REMARK VINA RESULT:      -9.6      4.722     11.069
REMARK  6 active torsions:
REMARK  status: ('A' for Active; 'I' for Inactive)
REMARK    1  A    between atoms: C_4  and  C_5 
REMARK    2  A    between atoms: C_5  and  C_6 
REMARK    3  A    between atoms: C_8  and  C_9 
REMARK    4  A    between atoms: C_9  and  C_10 
REMARK       I    between atoms: C_10  and  N_11 
REMARK    5  A    between atoms: N_11  and  N_12 
REMARK       I    between atoms: N_12  and  C_13 
REMARK       I    between atoms: C_13  and  N_14 
REMARK    6  A    between atoms: N_14  and  C_15 
ROOT
HETATM    1  C   UNL     1       5.252  29.616  57.024  1.00  0.00     0.238 C 
HETATM    2  N   UNL     1       6.119  28.556  56.864  1.00  0.00    -0.266 N 
HETATM    3  O   UNL     1       4.105  29.613  56.584  1.00  0.00    -0.272 OA
HETATM    4  H   UNL     1       7.107  28.579  57.120  1.00  0.00     0.190 HD
ENDROOT
BRANCH   1   5
HETATM    5  C   UNL     1       5.860  30.758  57.799  1.00  0.00     0.139 C 
BRANCH   5   6
HETATM    6  C   UNL     1       4.797  31.669  58.408  1.00  0.00     0.185 C 
HETATM    7  N   UNL     1       4.821  31.568  59.866  1.00  0.00    -0.363 N 
HETATM    8  C   UNL     1       4.562  32.683  60.629  1.00  0.00     0.125 C 
HETATM    9  H   UNL     1       4.436  30.691  60.217  1.00  0.00     0.161 HD
HETATM   10  N   UNL     1       4.591  33.905  60.186  1.00  0.00    -0.159 NA
HETATM   11  N   UNL     1       4.877  34.093  58.868  1.00  0.00    -0.244 N 
HETATM   12  C   UNL     1       5.046  33.102  57.932  1.00  0.00     0.261 C 
HETATM   13  H   UNL     1       4.993  35.053  58.564  1.00  0.00     0.192 HD
HETATM   14  O   UNL     1       5.331  33.377  56.766  1.00  0.00    -0.269 OA
BRANCH   8  15
HETATM   15  C   UNL     1       4.216  32.477  62.101  1.00  0.00     0.118 C 
BRANCH  15  16
HETATM   16  C   UNL     1       5.376  32.753  63.029  1.00  0.00    -0.051 A 
HETATM   17  C   UNL     1       6.690  32.479  62.621  1.00  0.00     0.007 A 
HETATM   18  C   UNL     1       7.769  32.776  63.457  1.00  0.00     0.001 A 
HETATM   19  C   UNL     1       7.548  33.353  64.706  1.00  0.00     0.000 A 
HETATM   20  C   UNL     1       6.248  33.638  65.119  1.00  0.00     0.001 A 
HETATM   21  C   UNL     1       5.169  33.347  64.283  1.00  0.00     0.007 A 
ENDBRANCH  15  16
ENDBRANCH   8  15
ENDBRANCH   5   6
ENDBRANCH   1   5
BRANCH   2  22
HETATM   22  N   UNL     1       5.687  27.430  56.148  1.00  0.00    -0.249 N 
HETATM   23  C   UNL     1       6.624  26.426  55.947  1.00  0.00     0.339 C 
HETATM   24  N   UNL     1       6.113  25.403  55.180  1.00  0.00    -0.308 N 
HETATM   25  O   UNL     1       7.739  26.486  56.454  1.00  0.00    -0.245 OA
HETATM   26  H   UNL     1       5.126  25.466  54.977  1.00  0.00     0.170 HD
HETATM   27  H   UNL     1       4.989  27.624  55.434  1.00  0.00     0.192 HD
BRANCH  24  28
HETATM   28  C   UNL     1       6.770  24.223  54.773  1.00  0.00     0.038 A 
HETATM   29  C   UNL     1       7.162  23.206  55.646  1.00  0.00     0.055 A 
HETATM   30  C   UNL     1       7.805  22.059  55.162  1.00  0.00     0.058 A 
HETATM   31 CL   UNL     1       8.253  20.842  56.307  1.00  0.00    -0.082 Cl
HETATM   32  C   UNL     1       8.065  21.925  53.796  1.00  0.00     0.055 A 
HETATM   33 CL   UNL     1       8.851  20.539  53.127  1.00  0.00    -0.083 Cl
HETATM   34  C   UNL     1       7.684  22.942  52.919  1.00  0.00     0.028 A 
HETATM   35  C   UNL     1       7.042  24.084  53.406  1.00  0.00     0.031 A 
ENDBRANCH  24  28
ENDBRANCH   2  22
TORSDOF 6
ENDMDL
MODEL 9
REMARK VINA RESULT:      -9.6      1.763      2.789
REMARK  6 active torsions:
REMARK  status: ('A' for Active; 'I' for Inactive)
REMARK    1  A    between atoms: C_4  and  C_5 
REMARK    2  A    between atoms: C_5  and  C_6 
REMARK    3  A    between atoms: C_8  and  C_9 
REMARK    4  A    between atoms: C_9  and  C_10 
REMARK       I    between atoms: C_10  and  N_11 
REMARK    5  A    between atoms: N_11  and  N_12 
REMARK       I    between atoms: N_12  and  C_13 
REMARK       I    between atoms: C_13  and  N_14 
REMARK    6  A    between atoms: N_14  and  C_15 
ROOT
HETATM    1  C   UNL     1       8.225  30.446  58.781  1.00  0.00     0.238 C 
HETATM    2  N   UNL     1       7.430  30.724  59.872  1.00  0.00    -0.266 N 
HETATM    3  O   UNL     1       9.122  31.195  58.400  1.00  0.00    -0.272 OA
HETATM    4  H   UNL     1       6.611  30.177  60.140  1.00  0.00     0.190 HD
ENDROOT
BRANCH   1   5
HETATM    5  C   UNL     1       7.881  29.133  58.126  1.00  0.00     0.139 C 
BRANCH   5   6
HETATM    6  C   UNL     1       7.257  29.326  56.746  1.00  0.00     0.185 C 
HETATM    7  N   UNL     1       7.806  28.353  55.803  1.00  0.00    -0.363 N 
HETATM    8  C   UNL     1       6.998  27.827  54.822  1.00  0.00     0.125 C 
HETATM    9  H   UNL     1       8.766  28.556  55.525  1.00  0.00     0.161 HD
HETATM   10  N   UNL     1       5.698  27.878  54.828  1.00  0.00    -0.159 NA
HETATM   11  N   UNL     1       5.095  28.518  55.868  1.00  0.00    -0.244 N 
HETATM   12  C   UNL     1       5.737  29.203  56.871  1.00  0.00     0.261 C 
HETATM   13  H   UNL     1       4.084  28.462  55.907  1.00  0.00     0.192 HD
HETATM   14  O   UNL     1       5.099  29.726  57.786  1.00  0.00    -0.269 OA
BRANCH   8  15
HETATM   15  C   UNL     1       7.667  27.130  53.641  1.00  0.00     0.118 C 
BRANCH  15  16
HETATM   16  C   UNL     1       7.595  25.623  53.720  1.00  0.00    -0.051 A 
HETATM   17  C   UNL     1       7.838  24.842  52.581  1.00  0.00     0.007 A 
HETATM   18  C   UNL     1       7.820  23.447  52.660  1.00  0.00     0.001 A 
HETATM   19  C   UNL     1       7.563  22.818  53.876  1.00  0.00     0.000 A 
HETATM   20  C   UNL     1       7.328  23.584  55.017  1.00  0.00     0.001 A 
HETATM   21  C   UNL     1       7.352  24.977  54.941  1.00  0.00     0.007 A 
ENDBRANCH  15  16
ENDBRANCH   8  15
ENDBRANCH   5   6
ENDBRANCH   1   5
BRANCH   2  22
HETATM   22  N   UNL     1       7.632  31.925  60.570  1.00  0.00    -0.249 N 
HETATM   23  C   UNL     1       6.974  32.055  61.785  1.00  0.00     0.339 C 
HETATM   24  N   UNL     1       7.191  33.293  62.348  1.00  0.00    -0.308 N 
HETATM   25  O   UNL     1       6.330  31.127  62.262  1.00  0.00    -0.245 OA
HETATM   26  H   UNL     1       7.871  33.871  61.874  1.00  0.00     0.170 HD
HETATM   27  H   UNL     1       7.771  32.740  59.977  1.00  0.00     0.192 HD
BRANCH  24  28
HETATM   28  C   UNL     1       6.686  33.781  63.571  1.00  0.00     0.038 A 
HETATM   29  C   UNL     1       5.573  34.617  63.678  1.00  0.00     0.055 A 
HETATM   30  C   UNL     1       5.127  35.054  64.934  1.00  0.00     0.058 A 
HETATM   31 CL   UNL     1       3.738  36.083  64.982  1.00  0.00    -0.082 Cl
HETATM   32  C   UNL     1       5.800  34.657  66.093  1.00  0.00     0.055 A 
HETATM   33 CL   UNL     1       5.307  35.153  67.673  1.00  0.00    -0.083 Cl
HETATM   34  C   UNL     1       6.918  33.828  65.990  1.00  0.00     0.028 A 
HETATM   35  C   UNL     1       7.358  33.395  64.737  1.00  0.00     0.031 A 
ENDBRANCH  24  28
ENDBRANCH   2  22
TORSDOF 6
ENDMDL
MODEL 10
REMARK VINA RESULT:      -9.5      6.569      9.405
REMARK  6 active torsions:
REMARK  status: ('A' for Active; 'I' for Inactive)
REMARK    1  A    between atoms: C_4  and  C_5 
REMARK    2  A    between atoms: C_5  and  C_6 
REMARK    3  A    between atoms: C_8  and  C_9 
REMARK    4  A    between atoms: C_9  and  C_10 
REMARK       I    between atoms: C_10  and  N_11 
REMARK    5  A    between atoms: N_11  and  N_12 
REMARK       I    between atoms: N_12  and  C_13 
REMARK       I    between atoms: C_13  and  N_14 
REMARK    6  A    between atoms: N_14  and  C_15 
ROOT
HETATM    1  C   UNL     1       5.506  26.300  55.275  1.00  0.00     0.238 C 
HETATM    2  N   UNL     1       5.698  27.543  54.712  1.00  0.00    -0.266 N 
HETATM    3  O   UNL     1       5.540  25.259  54.623  1.00  0.00    -0.272 OA
HETATM    4  H   UNL     1       5.564  28.425  55.209  1.00  0.00     0.190 HD
ENDROOT
BRANCH   1   5
HETATM    5  C   UNL     1       5.263  26.361  56.761  1.00  0.00     0.139 C 
BRANCH   5   6
HETATM    6  C   UNL     1       6.421  25.764  57.558  1.00  0.00     0.185 C 
HETATM    7  N   UNL     1       6.720  24.415  57.081  1.00  0.00    -0.363 N 
HETATM    8  C   UNL     1       8.023  23.974  57.062  1.00  0.00     0.125 C 
HETATM    9  H   UNL     1       6.022  23.725  57.358  1.00  0.00     0.161 HD
HETATM   10  N   UNL     1       9.066  24.747  57.144  1.00  0.00    -0.159 NA
HETATM   11  N   UNL     1       8.854  26.084  57.280  1.00  0.00    -0.244 N 
HETATM   12  C   UNL     1       7.631  26.692  57.437  1.00  0.00     0.261 C 
HETATM   13  H   UNL     1       9.674  26.678  57.243  1.00  0.00     0.192 HD
HETATM   14  O   UNL     1       7.543  27.918  57.525  1.00  0.00    -0.269 OA
BRANCH   8  15
HETATM   15  C   UNL     1       8.268  22.474  56.934  1.00  0.00     0.118 C 
BRANCH  15  16
HETATM   16  C   UNL     1       8.184  21.976  55.510  1.00  0.00    -0.051 A 
HETATM   17  C   UNL     1       7.964  22.876  54.457  1.00  0.00     0.007 A 
HETATM   18  C   UNL     1       7.934  22.427  53.135  1.00  0.00     0.001 A 
HETATM   19  C   UNL     1       8.127  21.077  52.849  1.00  0.00     0.000 A 
HETATM   20  C   UNL     1       8.356  20.174  53.886  1.00  0.00     0.001 A 
HETATM   21  C   UNL     1       8.392  20.622  55.207  1.00  0.00     0.007 A 
ENDBRANCH  15  16
ENDBRANCH   8  15
ENDBRANCH   5   6
ENDBRANCH   1   5
BRANCH   2  22
HETATM   22  N   UNL     1       5.920  27.635  53.330  1.00  0.00    -0.249 N 
HETATM   23  C   UNL     1       4.794  27.647  52.520  1.00  0.00     0.339 C 
HETATM   24  N   UNL     1       5.131  27.674  51.185  1.00  0.00    -0.308 N 
HETATM   25  O   UNL     1       3.665  27.673  53.000  1.00  0.00    -0.245 OA
HETATM   26  H   UNL     1       6.114  27.798  50.989  1.00  0.00     0.170 HD
HETATM   27  H   UNL     1       6.774  27.185  53.008  1.00  0.00     0.192 HD
BRANCH  24  28
HETATM   28  C   UNL     1       4.256  27.692  50.079  1.00  0.00     0.038 A 
HETATM   29  C   UNL     1       4.043  26.600  49.234  1.00  0.00     0.055 A 
HETATM   30  C   UNL     1       3.150  26.695  48.157  1.00  0.00     0.058 A 
HETATM   31 CL   UNL     1       2.938  25.297  47.162  1.00  0.00    -0.082 Cl
HETATM   32  C   UNL     1       2.466  27.890  47.918  1.00  0.00     0.055 A 
HETATM   33 CL   UNL     1       1.349  28.079  46.614  1.00  0.00    -0.083 Cl
HETATM   34  C   UNL     1       2.682  28.986  48.754  1.00  0.00     0.028 A 
HETATM   35  C   UNL     1       3.573  28.887  49.826  1.00  0.00     0.031 A 
ENDBRANCH  24  28
ENDBRANCH   2  22
TORSDOF 6
ENDMDL
