MODEL 1
REMARK VINA RESULT:      -9.3      0.000      0.000
REMARK  6 active torsions:
REMARK  status: ('A' for Active; 'I' for Inactive)
REMARK    1  A    between atoms: C_2  and  O_3 
REMARK    2  A    between atoms: O_3  and  C_4 
REMARK    3  A    between atoms: C_6  and  C_7 
REMARK       I    between atoms: C_7  and  N_8 
REMARK    4  A    between atoms: C_10  and  N_11 
REMARK       I    between atoms: N_11  and  C_12 
REMARK    5  A    between atoms: C_12  and  C_13 
REMARK    6  A    between atoms: N_15  and  C_16 
ROOT
HETATM    1  N   UNL     1       7.831  28.261  56.596  1.00  0.00    -0.319 N 
HETATM    2  C   UNL     1       7.755  26.943  57.023  1.00  0.00     0.295 C 
HETATM    3  O   UNL     1       7.742  26.580  58.195  1.00  0.00    -0.264 OA
HETATM    4  H   UNL     1       7.685  28.392  55.595  1.00  0.00     0.169 HD
ENDROOT
BRANCH   1   5
HETATM    5  C   UNL     1       8.037  29.417  57.385  1.00  0.00     0.051 A 
HETATM    6  C   UNL     1       9.272  30.094  57.349  1.00  0.00     0.061 A 
HETATM    7  C   UNL     1       9.510  31.190  58.195  1.00  0.00     0.056 A 
HETATM    8  C   UNL     1       8.524  31.643  59.070  1.00  0.00     0.069 A 
HETATM    9  C   UNL     1       7.298  30.987  59.103  1.00  0.00     0.039 A 
HETATM   10  C   UNL     1       7.058  29.886  58.267  1.00  0.00     0.033 A 
BRANCH   6  11
HETATM   11  C   UNL     1      10.366  29.742  56.407  1.00  0.00     0.251 C 
HETATM   12  N   UNL     1      11.576  29.425  56.962  1.00  0.00    -0.366 N 
HETATM   13  H   UNL     1      11.643  29.164  57.938  1.00  0.00     0.159 HD
HETATM   14  H   UNL     1      12.255  29.017  56.330  1.00  0.00     0.159 HD
HETATM   15  O   UNL     1      10.189  29.681  55.199  1.00  0.00    -0.268 OA
ENDBRANCH   6  11
BRANCH   8  16
HETATM   16  O   UNL     1       8.875  32.728  59.823  1.00  0.00    -0.351 OA
BRANCH  16  17
HETATM   17  C   UNL     1       8.472  32.727  61.193  1.00  0.00     0.171 C 
HETATM   18  C   UNL     1       9.339  31.729  61.939  1.00  0.00     0.034 C 
ENDBRANCH  16  17
ENDBRANCH   8  16
ENDBRANCH   1   5
BRANCH   2  19
HETATM   19  C   UNL     1       7.637  25.984  55.901  1.00  0.00     0.239 A 
HETATM   20  N   UNL     1       8.080  24.712  55.976  1.00  0.00    -0.140 NA
HETATM   21  N   UNL     1       7.689  24.192  54.782  1.00  0.00    -0.225 N 
HETATM   22  C   UNL     1       7.140  25.185  54.013  1.00  0.00     0.237 A 
HETATM   23  N   UNL     1       7.079  26.308  54.686  1.00  0.00    -0.216 NA
BRANCH  21  24
HETATM   24  C   UNL     1       7.839  22.815  54.471  1.00  0.00     0.059 A 
HETATM   25  C   UNL     1       7.841  22.406  53.129  1.00  0.00     0.031 A 
HETATM   26  C   UNL     1       8.028  21.060  52.805  1.00  0.00     0.002 A 
HETATM   27  C   UNL     1       8.205  20.116  53.816  1.00  0.00     0.000 A 
HETATM   28  C   UNL     1       8.195  20.514  55.151  1.00  0.00     0.002 A 
HETATM   29  C   UNL     1       8.015  21.859  55.483  1.00  0.00     0.031 A 
ENDBRANCH  21  24
ENDBRANCH   2  19
TORSDOF 6
ENDMDL
MODEL 2
REMARK VINA RESULT:      -9.2      1.546      2.507
REMARK  6 active torsions:
REMARK  status: ('A' for Active; 'I' for Inactive)
REMARK    1  A    between atoms: C_2  and  O_3 
REMARK    2  A    between atoms: O_3  and  C_4 
REMARK    3  A    between atoms: C_6  and  C_7 
REMARK       I    between atoms: C_7  and  N_8 
REMARK    4  A    between atoms: C_10  and  N_11 
REMARK       I    between atoms: N_11  and  C_12 
REMARK    5  A    between atoms: C_12  and  C_13 
REMARK    6  A    between atoms: N_15  and  C_16 
ROOT
HETATM    1  N   UNL     1       7.667  27.657  56.382  1.00  0.00    -0.319 N 
HETATM    2  C   UNL     1       7.604  27.544  55.000  1.00  0.00     0.295 C 
HETATM    3  O   UNL     1       7.912  28.425  54.204  1.00  0.00    -0.264 OA
HETATM    4  H   UNL     1       7.513  26.784  56.887  1.00  0.00     0.169 HD
ENDROOT
BRANCH   1   5
HETATM    5  C   UNL     1       7.961  28.812  57.144  1.00  0.00     0.051 A 
HETATM    6  C   UNL     1       6.927  29.672  57.562  1.00  0.00     0.061 A 
HETATM    7  C   UNL     1       7.223  30.864  58.243  1.00  0.00     0.056 A 
HETATM    8  C   UNL     1       8.541  31.210  58.539  1.00  0.00     0.069 A 
HETATM    9  C   UNL     1       9.567  30.359  58.139  1.00  0.00     0.039 A 
HETATM   10  C   UNL     1       9.278  29.172  57.450  1.00  0.00     0.033 A 
BRANCH   6  11
HETATM   11  C   UNL     1       5.487  29.369  57.363  1.00  0.00     0.251 C 
HETATM   12  N   UNL     1       4.615  29.902  58.275  1.00  0.00    -0.366 N 
HETATM   13  H   UNL     1       4.894  30.678  58.862  1.00  0.00     0.159 HD
HETATM   14  H   UNL     1       3.633  29.840  58.030  1.00  0.00     0.159 HD
HETATM   15  O   UNL     1       5.084  28.723  56.406  1.00  0.00    -0.268 OA
ENDBRANCH   6  11
BRANCH   8  16
HETATM   16  O   UNL     1       8.691  32.384  59.222  1.00  0.00    -0.351 OA
BRANCH  16  17
HETATM   17  C   UNL     1       8.310  32.390  60.597  1.00  0.00     0.171 C 
HETATM   18  C   UNL     1       9.507  31.952  61.421  1.00  0.00     0.034 C 
ENDBRANCH  16  17
ENDBRANCH   8  16
ENDBRANCH   1   5
BRANCH   2  19
HETATM   19  C   UNL     1       7.163  26.201  54.557  1.00  0.00     0.239 A 
HETATM   20  N   UNL     1       7.951  25.109  54.638  1.00  0.00    -0.140 NA
HETATM   21  N   UNL     1       7.124  24.115  54.216  1.00  0.00    -0.225 N 
HETATM   22  C   UNL     1       5.935  24.661  53.803  1.00  0.00     0.237 A 
HETATM   23  N   UNL     1       5.923  25.953  54.016  1.00  0.00    -0.216 NA
BRANCH  21  24
HETATM   24  C   UNL     1       7.501  22.748  54.257  1.00  0.00     0.059 A 
HETATM   25  C   UNL     1       7.840  22.089  53.066  1.00  0.00     0.031 A 
HETATM   26  C   UNL     1       8.253  20.755  53.094  1.00  0.00     0.002 A 
HETATM   27  C   UNL     1       8.321  20.070  54.307  1.00  0.00     0.000 A 
HETATM   28  C   UNL     1       7.977  20.715  55.493  1.00  0.00     0.002 A 
HETATM   29  C   UNL     1       7.569  22.052  55.473  1.00  0.00     0.031 A 
ENDBRANCH  21  24
ENDBRANCH   2  19
TORSDOF 6
ENDMDL
MODEL 3
REMARK VINA RESULT:      -9.1      1.386      2.386
REMARK  6 active torsions:
REMARK  status: ('A' for Active; 'I' for Inactive)
REMARK    1  A    between atoms: C_2  and  O_3 
REMARK    2  A    between atoms: O_3  and  C_4 
REMARK    3  A    between atoms: C_6  and  C_7 
REMARK       I    between atoms: C_7  and  N_8 
REMARK    4  A    between atoms: C_10  and  N_11 
REMARK       I    between atoms: N_11  and  C_12 
REMARK    5  A    between atoms: C_12  and  C_13 
REMARK    6  A    between atoms: N_15  and  C_16 
ROOT
HETATM    1  N   UNL     1       7.926  27.963  56.663  1.00  0.00    -0.319 N 
HETATM    2  C   UNL     1       7.849  26.641  57.075  1.00  0.00     0.295 C 
HETATM    3  O   UNL     1       7.807  26.266  58.243  1.00  0.00    -0.264 OA
HETATM    4  H   UNL     1       7.806  28.103  55.659  1.00  0.00     0.169 HD
ENDROOT
BRANCH   1   5
HETATM    5  C   UNL     1       8.102  29.113  57.467  1.00  0.00     0.051 A 
HETATM    6  C   UNL     1       7.002  29.931  57.792  1.00  0.00     0.061 A 
HETATM    7  C   UNL     1       7.186  31.120  58.517  1.00  0.00     0.056 A 
HETATM    8  C   UNL     1       8.455  31.503  58.949  1.00  0.00     0.069 A 
HETATM    9  C   UNL     1       9.545  30.695  58.642  1.00  0.00     0.039 A 
HETATM   10  C   UNL     1       9.368  29.511  57.910  1.00  0.00     0.033 A 
BRANCH   6  11
HETATM   11  C   UNL     1       5.600  29.584  57.444  1.00  0.00     0.251 C 
HETATM   12  N   UNL     1       4.630  29.997  58.318  1.00  0.00    -0.366 N 
HETATM   13  H   UNL     1       4.820  30.731  58.989  1.00  0.00     0.159 HD
HETATM   14  H   UNL     1       3.676  29.914  57.985  1.00  0.00     0.159 HD
HETATM   15  O   UNL     1       5.311  29.007  56.406  1.00  0.00    -0.268 OA
ENDBRANCH   6  11
BRANCH   8  16
HETATM   16  O   UNL     1       8.495  32.669  59.660  1.00  0.00    -0.351 OA
BRANCH  16  17
HETATM   17  C   UNL     1       7.896  32.661  60.956  1.00  0.00     0.171 C 
HETATM   18  C   UNL     1       8.867  32.005  61.921  1.00  0.00     0.034 C 
ENDBRANCH  16  17
ENDBRANCH   8  16
ENDBRANCH   1   5
BRANCH   2  19
HETATM   19  C   UNL     1       7.768  25.692  55.941  1.00  0.00     0.239 A 
HETATM   20  N   UNL     1       8.334  24.468  55.970  1.00  0.00    -0.140 NA
HETATM   21  N   UNL     1       7.937  23.929  54.786  1.00  0.00    -0.225 N 
HETATM   22  C   UNL     1       7.256  24.876  54.064  1.00  0.00     0.237 A 
HETATM   23  N   UNL     1       7.121  25.977  54.761  1.00  0.00    -0.216 NA
BRANCH  21  24
HETATM   24  C   UNL     1       8.204  22.579  54.441  1.00  0.00     0.059 A 
HETATM   25  C   UNL     1       8.714  21.705  55.413  1.00  0.00     0.031 A 
HETATM   26  C   UNL     1       8.943  20.363  55.099  1.00  0.00     0.002 A 
HETATM   27  C   UNL     1       8.673  19.889  53.817  1.00  0.00     0.000 A 
HETATM   28  C   UNL     1       8.174  20.753  52.844  1.00  0.00     0.002 A 
HETATM   29  C   UNL     1       7.936  22.095  53.151  1.00  0.00     0.031 A 
ENDBRANCH  21  24
ENDBRANCH   2  19
TORSDOF 6
ENDMDL
MODEL 4
REMARK VINA RESULT:      -8.9      3.154      5.666
REMARK  6 active torsions:
REMARK  status: ('A' for Active; 'I' for Inactive)
REMARK    1  A    between atoms: C_2  and  O_3 
REMARK    2  A    between atoms: O_3  and  C_4 
REMARK    3  A    between atoms: C_6  and  C_7 
REMARK       I    between atoms: C_7  and  N_8 
REMARK    4  A    between atoms: C_10  and  N_11 
REMARK       I    between atoms: N_11  and  C_12 
REMARK    5  A    between atoms: C_12  and  C_13 
REMARK    6  A    between atoms: N_15  and  C_16 
ROOT
HETATM    1  N   UNL     1       7.892  30.890  60.551  1.00  0.00    -0.319 N 
HETATM    2  C   UNL     1       8.647  31.199  59.428  1.00  0.00     0.295 C 
HETATM    3  O   UNL     1       9.196  32.276  59.220  1.00  0.00    -0.264 OA
HETATM    4  H   UNL     1       7.631  29.906  60.630  1.00  0.00     0.169 HD
ENDROOT
BRANCH   1   5
HETATM    5  C   UNL     1       7.496  31.758  61.595  1.00  0.00     0.051 A 
HETATM    6  C   UNL     1       6.347  32.561  61.457  1.00  0.00     0.061 A 
HETATM    7  C   UNL     1       5.999  33.487  62.454  1.00  0.00     0.056 A 
HETATM    8  C   UNL     1       6.771  33.616  63.608  1.00  0.00     0.069 A 
HETATM    9  C   UNL     1       7.901  32.819  63.757  1.00  0.00     0.039 A 
HETATM   10  C   UNL     1       8.258  31.898  62.760  1.00  0.00     0.033 A 
BRANCH   6  11
HETATM   11  C   UNL     1       5.416  32.457  60.304  1.00  0.00     0.251 C 
HETATM   12  N   UNL     1       4.210  31.853  60.540  1.00  0.00    -0.366 N 
HETATM   13  H   UNL     1       3.861  31.751  61.485  1.00  0.00     0.159 HD
HETATM   14  H   UNL     1       3.521  31.948  59.803  1.00  0.00     0.159 HD
HETATM   15  O   UNL     1       5.681  32.932  59.209  1.00  0.00    -0.268 OA
ENDBRANCH   6  11
BRANCH   8  16
HETATM   16  O   UNL     1       6.314  34.538  64.508  1.00  0.00    -0.351 OA
BRANCH  16  17
HETATM   17  C   UNL     1       6.021  34.072  65.825  1.00  0.00     0.171 C 
HETATM   18  C   UNL     1       4.522  33.861  65.929  1.00  0.00     0.034 C 
ENDBRANCH  16  17
ENDBRANCH   8  16
ENDBRANCH   1   5
BRANCH   2  19
HETATM   19  C   UNL     1       8.776  30.057  58.494  1.00  0.00     0.239 A 
HETATM   20  N   UNL     1       7.974  28.973  58.548  1.00  0.00    -0.140 NA
HETATM   21  N   UNL     1       8.385  28.247  57.474  1.00  0.00    -0.225 N 
HETATM   22  C   UNL     1       9.468  28.861  56.900  1.00  0.00     0.237 A 
HETATM   23  N   UNL     1       9.726  29.996  57.502  1.00  0.00    -0.216 NA
BRANCH  21  24
HETATM   24  C   UNL     1       7.721  27.062  57.063  1.00  0.00     0.059 A 
HETATM   25  C   UNL     1       8.326  25.817  57.289  1.00  0.00     0.031 A 
HETATM   26  C   UNL     1       7.667  24.640  56.926  1.00  0.00     0.002 A 
HETATM   27  C   UNL     1       6.408  24.698  56.331  1.00  0.00     0.000 A 
HETATM   28  C   UNL     1       5.804  25.932  56.096  1.00  0.00     0.002 A 
HETATM   29  C   UNL     1       6.454  27.114  56.461  1.00  0.00     0.031 A 
ENDBRANCH  21  24
ENDBRANCH   2  19
TORSDOF 6
ENDMDL
MODEL 5
REMARK VINA RESULT:      -8.9      2.170      8.968
REMARK  6 active torsions:
REMARK  status: ('A' for Active; 'I' for Inactive)
REMARK    1  A    between atoms: C_2  and  O_3 
REMARK    2  A    between atoms: O_3  and  C_4 
REMARK    3  A    between atoms: C_6  and  C_7 
REMARK       I    between atoms: C_7  and  N_8 
REMARK    4  A    between atoms: C_10  and  N_11 
REMARK       I    between atoms: N_11  and  C_12 
REMARK    5  A    between atoms: C_12  and  C_13 
REMARK    6  A    between atoms: N_15  and  C_16 
ROOT
HETATM    1  N   UNL     1       6.819  27.303  55.968  1.00  0.00    -0.319 N 
HETATM    2  C   UNL     1       7.561  28.470  55.852  1.00  0.00     0.295 C 
HETATM    3  O   UNL     1       8.379  28.703  54.967  1.00  0.00    -0.264 OA
HETATM    4  H   UNL     1       6.084  27.336  56.675  1.00  0.00     0.169 HD
ENDROOT
BRANCH   1   5
HETATM    5  C   UNL     1       6.938  26.122  55.201  1.00  0.00     0.051 A 
HETATM    6  C   UNL     1       7.617  25.001  55.719  1.00  0.00     0.061 A 
HETATM    7  C   UNL     1       7.813  23.857  54.928  1.00  0.00     0.056 A 
HETATM    8  C   UNL     1       7.322  23.798  53.625  1.00  0.00     0.069 A 
HETATM    9  C   UNL     1       6.640  24.896  53.110  1.00  0.00     0.039 A 
HETATM   10  C   UNL     1       6.450  26.045  53.892  1.00  0.00     0.033 A 
BRANCH   6  11
HETATM   11  C   UNL     1       8.119  24.928  57.115  1.00  0.00     0.251 C 
HETATM   12  N   UNL     1       8.286  23.676  57.644  1.00  0.00    -0.366 N 
HETATM   13  H   UNL     1       8.344  22.865  57.040  1.00  0.00     0.159 HD
HETATM   14  H   UNL     1       8.792  23.635  58.520  1.00  0.00     0.159 HD
HETATM   15  O   UNL     1       8.424  25.928  57.750  1.00  0.00    -0.268 OA
ENDBRANCH   6  11
BRANCH   8  16
HETATM   16  O   UNL     1       7.562  22.623  52.970  1.00  0.00    -0.351 OA
BRANCH  16  17
HETATM   17  C   UNL     1       8.074  21.539  53.744  1.00  0.00     0.171 C 
HETATM   18  C   UNL     1       8.361  20.381  52.805  1.00  0.00     0.034 C 
ENDBRANCH  16  17
ENDBRANCH   8  16
ENDBRANCH   1   5
BRANCH   2  19
HETATM   19  C   UNL     1       7.229  29.465  56.897  1.00  0.00     0.239 A 
HETATM   20  N   UNL     1       7.841  29.495  58.100  1.00  0.00    -0.140 NA
HETATM   21  N   UNL     1       7.298  30.598  58.681  1.00  0.00    -0.225 N 
HETATM   22  C   UNL     1       6.323  31.108  57.862  1.00  0.00     0.237 A 
HETATM   23  N   UNL     1       6.266  30.435  56.739  1.00  0.00    -0.216 NA
BRANCH  21  24
HETATM   24  C   UNL     1       7.749  31.094  59.932  1.00  0.00     0.059 A 
HETATM   25  C   UNL     1       8.945  30.605  60.478  1.00  0.00     0.031 A 
HETATM   26  C   UNL     1       9.423  31.113  61.689  1.00  0.00     0.002 A 
HETATM   27  C   UNL     1       8.709  32.102  62.363  1.00  0.00     0.000 A 
HETATM   28  C   UNL     1       7.515  32.586  61.830  1.00  0.00     0.002 A 
HETATM   29  C   UNL     1       7.034  32.088  60.617  1.00  0.00     0.031 A 
ENDBRANCH  21  24
ENDBRANCH   2  19
TORSDOF 6
ENDMDL
MODEL 6
REMARK VINA RESULT:      -8.8      2.314      9.180
REMARK  6 active torsions:
REMARK  status: ('A' for Active; 'I' for Inactive)
REMARK    1  A    between atoms: C_2  and  O_3 
REMARK    2  A    between atoms: O_3  and  C_4 
REMARK    3  A    between atoms: C_6  and  C_7 
REMARK       I    between atoms: C_7  and  N_8 
REMARK    4  A    between atoms: C_10  and  N_11 
REMARK       I    between atoms: N_11  and  C_12 
REMARK    5  A    between atoms: C_12  and  C_13 
REMARK    6  A    between atoms: N_15  and  C_16 
ROOT
HETATM    1  N   UNL     1       8.015  27.953  57.735  1.00  0.00    -0.319 N 
HETATM    2  C   UNL     1       8.765  29.017  57.255  1.00  0.00     0.295 C 
HETATM    3  O   UNL     1       9.278  29.074  56.141  1.00  0.00    -0.264 OA
HETATM    4  H   UNL     1       7.543  28.133  58.623  1.00  0.00     0.169 HD
ENDROOT
BRANCH   1   5
HETATM    5  C   UNL     1       7.801  26.697  57.122  1.00  0.00     0.051 A 
HETATM    6  C   UNL     1       6.612  26.445  56.410  1.00  0.00     0.061 A 
HETATM    7  C   UNL     1       6.357  25.172  55.874  1.00  0.00     0.056 A 
HETATM    8  C   UNL     1       7.283  24.139  56.017  1.00  0.00     0.069 A 
HETATM    9  C   UNL     1       8.465  24.384  56.710  1.00  0.00     0.039 A 
HETATM   10  C   UNL     1       8.720  25.650  57.255  1.00  0.00     0.033 A 
BRANCH   6  11
HETATM   11  C   UNL     1       5.590  27.488  56.137  1.00  0.00     0.251 C 
HETATM   12  N   UNL     1       4.342  27.278  56.660  1.00  0.00    -0.366 N 
HETATM   13  H   UNL     1       4.205  26.618  57.416  1.00  0.00     0.159 HD
HETATM   14  H   UNL     1       3.712  28.071  56.622  1.00  0.00     0.159 HD
HETATM   15  O   UNL     1       5.854  28.513  55.524  1.00  0.00    -0.268 OA
ENDBRANCH   6  11
BRANCH   8  16
HETATM   16  O   UNL     1       6.924  22.957  55.434  1.00  0.00    -0.351 OA
BRANCH  16  17
HETATM   17  C   UNL     1       7.891  22.325  54.594  1.00  0.00     0.171 C 
HETATM   18  C   UNL     1       7.739  22.889  53.193  1.00  0.00     0.034 C 
ENDBRANCH  16  17
ENDBRANCH   8  16
ENDBRANCH   1   5
BRANCH   2  19
HETATM   19  C   UNL     1       8.851  30.138  58.219  1.00  0.00     0.239 A 
HETATM   20  N   UNL     1       7.921  30.356  59.171  1.00  0.00    -0.140 NA
HETATM   21  N   UNL     1       8.444  31.405  59.861  1.00  0.00    -0.225 N 
HETATM   22  C   UNL     1       9.588  31.832  59.237  1.00  0.00     0.237 A 
HETATM   23  N   UNL     1       9.876  31.055  58.222  1.00  0.00    -0.216 NA
BRANCH  21  24
HETATM   24  C   UNL     1       7.850  31.901  61.051  1.00  0.00     0.059 A 
HETATM   25  C   UNL     1       8.605  31.952  62.231  1.00  0.00     0.031 A 
HETATM   26  C   UNL     1       8.047  32.475  63.400  1.00  0.00     0.002 A 
HETATM   27  C   UNL     1       6.733  32.942  63.400  1.00  0.00     0.000 A 
HETATM   28  C   UNL     1       5.974  32.885  62.233  1.00  0.00     0.002 A 
HETATM   29  C   UNL     1       6.527  32.369  61.058  1.00  0.00     0.031 A 
ENDBRANCH  21  24
ENDBRANCH   2  19
TORSDOF 6
ENDMDL
MODEL 7
REMARK VINA RESULT:      -8.4      2.004      2.799
REMARK  6 active torsions:
REMARK  status: ('A' for Active; 'I' for Inactive)
REMARK    1  A    between atoms: C_2  and  O_3 
REMARK    2  A    between atoms: O_3  and  C_4 
REMARK    3  A    between atoms: C_6  and  C_7 
REMARK       I    between atoms: C_7  and  N_8 
REMARK    4  A    between atoms: C_10  and  N_11 
REMARK       I    between atoms: N_11  and  C_12 
REMARK    5  A    between atoms: C_12  and  C_13 
REMARK    6  A    between atoms: N_15  and  C_16 
ROOT
HETATM    1  N   UNL     1       6.223  27.946  55.648  1.00  0.00    -0.319 N 
HETATM    2  C   UNL     1       7.021  27.571  54.576  1.00  0.00     0.295 C 
HETATM    3  O   UNL     1       7.862  28.284  54.038  1.00  0.00    -0.264 OA
HETATM    4  H   UNL     1       5.684  27.186  56.063  1.00  0.00     0.169 HD
ENDROOT
BRANCH   1   5
HETATM    5  C   UNL     1       6.116  29.225  56.242  1.00  0.00     0.051 A 
HETATM    6  C   UNL     1       6.979  29.599  57.290  1.00  0.00     0.061 A 
HETATM    7  C   UNL     1       6.819  30.834  57.940  1.00  0.00     0.056 A 
HETATM    8  C   UNL     1       5.819  31.722  57.549  1.00  0.00     0.069 A 
HETATM    9  C   UNL     1       4.969  31.365  56.507  1.00  0.00     0.039 A 
HETATM   10  C   UNL     1       5.118  30.129  55.860  1.00  0.00     0.033 A 
BRANCH   6  11
HETATM   11  C   UNL     1       8.121  28.763  57.742  1.00  0.00     0.251 C 
HETATM   12  N   UNL     1       9.358  29.349  57.723  1.00  0.00    -0.366 N 
HETATM   13  H   UNL     1       9.450  30.357  57.687  1.00  0.00     0.159 HD
HETATM   14  H   UNL     1      10.093  28.837  58.196  1.00  0.00     0.159 HD
HETATM   15  O   UNL     1       7.967  27.625  58.162  1.00  0.00    -0.268 OA
ENDBRANCH   6  11
BRANCH   8  16
HETATM   16  O   UNL     1       5.782  32.896  58.248  1.00  0.00    -0.351 OA
BRANCH  16  17
HETATM   17  C   UNL     1       5.647  32.804  59.666  1.00  0.00     0.171 C 
HETATM   18  C   UNL     1       4.243  33.247  60.037  1.00  0.00     0.034 C 
ENDBRANCH  16  17
ENDBRANCH   8  16
ENDBRANCH   1   5
BRANCH   2  19
HETATM   19  C   UNL     1       6.794  26.168  54.159  1.00  0.00     0.239 A 
HETATM   20  N   UNL     1       7.664  25.174  54.433  1.00  0.00    -0.140 NA
HETATM   21  N   UNL     1       7.019  24.076  53.954  1.00  0.00    -0.225 N 
HETATM   22  C   UNL     1       5.865  24.468  53.326  1.00  0.00     0.237 A 
HETATM   23  N   UNL     1       5.689  25.760  53.450  1.00  0.00    -0.216 NA
BRANCH  21  24
HETATM   24  C   UNL     1       7.520  22.762  54.143  1.00  0.00     0.059 A 
HETATM   25  C   UNL     1       7.594  22.230  55.439  1.00  0.00     0.031 A 
HETATM   26  C   UNL     1       8.047  20.923  55.636  1.00  0.00     0.002 A 
HETATM   27  C   UNL     1       8.434  20.145  54.547  1.00  0.00     0.000 A 
HETATM   28  C   UNL     1       8.372  20.670  53.257  1.00  0.00     0.002 A 
HETATM   29  C   UNL     1       7.914  21.974  53.050  1.00  0.00     0.031 A 
ENDBRANCH  21  24
ENDBRANCH   2  19
TORSDOF 6
ENDMDL
MODEL 8
REMARK VINA RESULT:      -8.3      2.293      2.921
REMARK  6 active torsions:
REMARK  status: ('A' for Active; 'I' for Inactive)
REMARK    1  A    between atoms: C_2  and  O_3 
REMARK    2  A    between atoms: O_3  and  C_4 
REMARK    3  A    between atoms: C_6  and  C_7 
REMARK       I    between atoms: C_7  and  N_8 
REMARK    4  A    between atoms: C_10  and  N_11 
REMARK       I    between atoms: N_11  and  C_12 
REMARK    5  A    between atoms: C_12  and  C_13 
REMARK    6  A    between atoms: N_15  and  C_16 
ROOT
HETATM    1  N   UNL     1       6.737  28.237  57.323  1.00  0.00    -0.319 N 
HETATM    2  C   UNL     1       7.455  27.728  56.250  1.00  0.00     0.295 C 
HETATM    3  O   UNL     1       7.864  28.385  55.297  1.00  0.00    -0.264 OA
HETATM    4  H   UNL     1       6.604  27.582  58.094  1.00  0.00     0.169 HD
ENDROOT
BRANCH   1   5
HETATM    5  C   UNL     1       6.225  29.545  57.479  1.00  0.00     0.051 A 
HETATM    6  C   UNL     1       6.877  30.472  58.317  1.00  0.00     0.061 A 
HETATM    7  C   UNL     1       6.324  31.742  58.543  1.00  0.00     0.056 A 
HETATM    8  C   UNL     1       5.132  32.121  57.928  1.00  0.00     0.069 A 
HETATM    9  C   UNL     1       4.487  31.216  57.091  1.00  0.00     0.039 A 
HETATM   10  C   UNL     1       5.030  29.942  56.869  1.00  0.00     0.033 A 
BRANCH   6  11
HETATM   11  C   UNL     1       8.185  30.200  58.966  1.00  0.00     0.251 C 
HETATM   12  N   UNL     1       8.222  30.279  60.332  1.00  0.00    -0.366 N 
HETATM   13  H   UNL     1       7.368  30.234  60.874  1.00  0.00     0.159 HD
HETATM   14  H   UNL     1       9.063  29.920  60.769  1.00  0.00     0.159 HD
HETATM   15  O   UNL     1       9.173  29.868  58.325  1.00  0.00    -0.268 OA
ENDBRANCH   6  11
BRANCH   8  16
HETATM   16  O   UNL     1       4.711  33.389  58.215  1.00  0.00    -0.351 OA
BRANCH  16  17
HETATM   17  C   UNL     1       4.577  33.734  59.594  1.00  0.00     0.171 C 
HETATM   18  C   UNL     1       3.245  33.199  60.088  1.00  0.00     0.034 C 
ENDBRANCH  16  17
ENDBRANCH   8  16
ENDBRANCH   1   5
BRANCH   2  19
HETATM   19  C   UNL     1       7.738  26.280  56.387  1.00  0.00     0.239 A 
HETATM   20  N   UNL     1       7.386  25.375  55.450  1.00  0.00    -0.140 NA
HETATM   21  N   UNL     1       7.913  24.222  55.941  1.00  0.00    -0.225 N 
HETATM   22  C   UNL     1       8.451  24.461  57.179  1.00  0.00     0.237 A 
HETATM   23  N   UNL     1       8.372  25.734  57.478  1.00  0.00    -0.216 NA
BRANCH  21  24
HETATM   24  C   UNL     1       7.892  23.007  55.207  1.00  0.00     0.059 A 
HETATM   25  C   UNL     1       7.882  23.048  53.805  1.00  0.00     0.031 A 
HETATM   26  C   UNL     1       7.902  21.861  53.068  1.00  0.00     0.002 A 
HETATM   27  C   UNL     1       7.924  20.631  53.724  1.00  0.00     0.000 A 
HETATM   28  C   UNL     1       7.925  20.583  55.117  1.00  0.00     0.002 A 
HETATM   29  C   UNL     1       7.911  21.766  55.861  1.00  0.00     0.031 A 
ENDBRANCH  21  24
ENDBRANCH   2  19
TORSDOF 6
ENDMDL
MODEL 9
REMARK VINA RESULT:      -8.1      5.057      9.011
REMARK  6 active torsions:
REMARK  status: ('A' for Active; 'I' for Inactive)
REMARK    1  A    between atoms: C_2  and  O_3 
REMARK    2  A    between atoms: O_3  and  C_4 
REMARK    3  A    between atoms: C_6  and  C_7 
REMARK       I    between atoms: C_7  and  N_8 
REMARK    4  A    between atoms: C_10  and  N_11 
REMARK       I    between atoms: N_11  and  C_12 
REMARK    5  A    between atoms: C_12  and  C_13 
REMARK    6  A    between atoms: N_15  and  C_16 
ROOT
HETATM    1  N   UNL     1       6.647  25.422  52.035  1.00  0.00    -0.319 N 
HETATM    2  C   UNL     1       5.296  25.561  51.751  1.00  0.00     0.295 C 
HETATM    3  O   UNL     1       4.385  25.018  52.368  1.00  0.00    -0.264 OA
HETATM    4  H   UNL     1       7.257  26.056  51.517  1.00  0.00     0.169 HD
ENDROOT
BRANCH   1   5
HETATM    5  C   UNL     1       7.250  24.554  52.974  1.00  0.00     0.051 A 
HETATM    6  C   UNL     1       7.245  24.872  54.346  1.00  0.00     0.061 A 
HETATM    7  C   UNL     1       7.918  24.057  55.270  1.00  0.00     0.056 A 
HETATM    8  C   UNL     1       8.585  22.906  54.854  1.00  0.00     0.069 A 
HETATM    9  C   UNL     1       8.585  22.578  53.501  1.00  0.00     0.039 A 
HETATM   10  C   UNL     1       7.922  23.394  52.573  1.00  0.00     0.033 A 
BRANCH   6  11
HETATM   11  C   UNL     1       6.510  26.034  54.908  1.00  0.00     0.251 C 
HETATM   12  N   UNL     1       5.254  25.788  55.396  1.00  0.00    -0.366 N 
HETATM   13  H   UNL     1       4.966  24.845  55.625  1.00  0.00     0.159 HD
HETATM   14  H   UNL     1       4.838  26.540  55.934  1.00  0.00     0.159 HD
HETATM   15  O   UNL     1       7.012  27.146  54.987  1.00  0.00    -0.268 OA
ENDBRANCH   6  11
BRANCH   8  16
HETATM   16  O   UNL     1       9.183  22.190  55.853  1.00  0.00    -0.351 OA
BRANCH  16  17
HETATM   17  C   UNL     1       9.139  20.767  55.750  1.00  0.00     0.171 C 
HETATM   18  C   UNL     1       7.767  20.302  56.204  1.00  0.00     0.034 C 
ENDBRANCH  16  17
ENDBRANCH   8  16
ENDBRANCH   1   5
BRANCH   2  19
HETATM   19  C   UNL     1       5.040  26.496  50.631  1.00  0.00     0.239 A 
HETATM   20  N   UNL     1       5.196  27.831  50.742  1.00  0.00    -0.140 NA
HETATM   21  N   UNL     1       4.947  28.265  49.477  1.00  0.00    -0.225 N 
HETATM   22  C   UNL     1       4.552  27.203  48.704  1.00  0.00     0.237 A 
HETATM   23  N   UNL     1       4.615  26.087  49.388  1.00  0.00    -0.216 NA
BRANCH  21  24
HETATM   24  C   UNL     1       5.121  29.620  49.094  1.00  0.00     0.059 A 
HETATM   25  C   UNL     1       5.856  30.483  49.920  1.00  0.00     0.031 A 
HETATM   26  C   UNL     1       6.071  31.809  49.536  1.00  0.00     0.002 A 
HETATM   27  C   UNL     1       5.548  32.282  48.334  1.00  0.00     0.000 A 
HETATM   28  C   UNL     1       4.808  31.433  47.512  1.00  0.00     0.002 A 
HETATM   29  C   UNL     1       4.595  30.103  47.886  1.00  0.00     0.031 A 
ENDBRANCH  21  24
ENDBRANCH   2  19
TORSDOF 6
ENDMDL
MODEL 10
REMARK VINA RESULT:      -8.0      2.780      9.306
REMARK  6 active torsions:
REMARK  status: ('A' for Active; 'I' for Inactive)
REMARK    1  A    between atoms: C_2  and  O_3 
REMARK    2  A    between atoms: O_3  and  C_4 
REMARK    3  A    between atoms: C_6  and  C_7 
REMARK       I    between atoms: C_7  and  N_8 
REMARK    4  A    between atoms: C_10  and  N_11 
REMARK       I    between atoms: N_11  and  C_12 
REMARK    5  A    between atoms: C_12  and  C_13 
REMARK    6  A    between atoms: N_15  and  C_16 
ROOT
HETATM    1  N   UNL     1       7.706  29.399  56.410  1.00  0.00    -0.319 N 
HETATM    2  C   UNL     1       8.106  29.041  57.689  1.00  0.00     0.295 C 
HETATM    3  O   UNL     1       8.282  27.890  58.078  1.00  0.00    -0.264 OA
HETATM    4  H   UNL     1       7.749  30.401  56.217  1.00  0.00     0.169 HD
ENDROOT
BRANCH   1   5
HETATM    5  C   UNL     1       7.301  28.546  55.358  1.00  0.00     0.051 A 
HETATM    6  C   UNL     1       6.047  27.905  55.402  1.00  0.00     0.061 A 
HETATM    7  C   UNL     1       5.677  26.990  54.403  1.00  0.00     0.056 A 
HETATM    8  C   UNL     1       6.532  26.714  53.337  1.00  0.00     0.069 A 
HETATM    9  C   UNL     1       7.768  27.351  53.280  1.00  0.00     0.039 A 
HETATM   10  C   UNL     1       8.146  28.259  54.280  1.00  0.00     0.033 A 
BRANCH   6  11
HETATM   11  C   UNL     1       5.031  28.178  56.451  1.00  0.00     0.251 C 
HETATM   12  N   UNL     1       4.411  27.089  57.004  1.00  0.00    -0.366 N 
HETATM   13  H   UNL     1       4.819  26.166  56.919  1.00  0.00     0.159 HD
HETATM   14  H   UNL     1       3.859  27.274  57.833  1.00  0.00     0.159 HD
HETATM   15  O   UNL     1       4.792  29.310  56.847  1.00  0.00    -0.268 OA
ENDBRANCH   6  11
BRANCH   8  16
HETATM   16  O   UNL     1       6.047  25.821  52.423  1.00  0.00    -0.351 OA
BRANCH  16  17
HETATM   17  C   UNL     1       5.748  24.507  52.893  1.00  0.00     0.171 C 
HETATM   18  C   UNL     1       7.052  23.740  53.015  1.00  0.00     0.034 C 
ENDBRANCH  16  17
ENDBRANCH   8  16
ENDBRANCH   1   5
BRANCH   2  19
HETATM   19  C   UNL     1       8.358  30.213  58.559  1.00  0.00     0.239 A 
HETATM   20  N   UNL     1       7.520  30.583  59.549  1.00  0.00    -0.140 NA
HETATM   21  N   UNL     1       8.181  31.623  60.124  1.00  0.00    -0.225 N 
HETATM   22  C   UNL     1       9.312  31.897  59.398  1.00  0.00     0.237 A 
HETATM   23  N   UNL     1       9.458  31.028  58.429  1.00  0.00    -0.216 NA
BRANCH  21  24
HETATM   24  C   UNL     1       7.717  32.253  61.308  1.00  0.00     0.059 A 
HETATM   25  C   UNL     1       8.429  32.086  62.504  1.00  0.00     0.031 A 
HETATM   26  C   UNL     1       8.008  32.733  63.668  1.00  0.00     0.002 A 
HETATM   27  C   UNL     1       6.873  33.541  63.648  1.00  0.00     0.000 A 
HETATM   28  C   UNL     1       6.155  33.705  62.465  1.00  0.00     0.002 A 
HETATM   29  C   UNL     1       6.573  33.066  61.294  1.00  0.00     0.031 A 
ENDBRANCH  21  24
ENDBRANCH   2  19
TORSDOF 6
ENDMDL
