MODEL 1
REMARK VINA RESULT:     -10.1      0.000      0.000
REMARK  5 active torsions:
REMARK  status: ('A' for Active; 'I' for Inactive)
REMARK    1  A    between atoms: C_7  and  C_8 
REMARK    2  A    between atoms: C_16  and  C_17 
REMARK    3  A    between atoms: C_20  and  O_21 
REMARK    4  A    between atoms: C_24  and  C_25 
REMARK       I    between atoms: C_25  and  N_26 
REMARK    5  A    between atoms: N_26  and  C_27 
ROOT
HETATM    1  C   UNL     1       5.302  28.035  50.436  1.00  0.00     0.070 C 
HETATM    2  C   UNL     1       5.654  27.267  51.687  1.00  0.00     0.037 C 
HETATM    3  N   UNL     1       6.532  26.197  51.513  1.00  0.00    -0.192 N 
HETATM    4  C   UNL     1       6.761  25.279  52.473  1.00  0.00     0.726 A 
HETATM    5  N   UNL     1       6.269  25.494  53.726  1.00  0.00    -0.083 N 
HETATM    6  N   UNL     1       6.538  24.466  54.552  1.00  0.00    -0.135 NA
HETATM    7  C   UNL     1       7.232  23.651  53.735  1.00  0.00     0.200 A 
HETATM    8  N   UNL     1       7.392  24.136  52.449  1.00  0.00    -0.041 NA
HETATM    9  C   UNL     1       5.583  26.721  54.135  1.00  0.00     0.202 C 
HETATM   10  C   UNL     1       5.167  27.551  52.924  1.00  0.00     0.062 C 
HETATM   11  H   UNL     1       6.787  25.959  50.557  1.00  0.00     0.184 HD
ENDROOT
BRANCH  10  12
HETATM   12  C   UNL     1       4.049  28.526  53.094  1.00  0.00     0.256 C 
HETATM   13  N   UNL     1       4.441  29.780  53.510  1.00  0.00    -0.323 N 
HETATM   14  H   UNL     1       5.428  29.962  53.628  1.00  0.00     0.169 HD
HETATM   15  O   UNL     1       2.898  28.152  52.899  1.00  0.00    -0.267 OA
BRANCH  13  16
HETATM   16  C   UNL     1       3.609  30.881  53.810  1.00  0.00     0.035 A 
HETATM   17  C   UNL     1       3.184  31.823  52.871  1.00  0.00     0.029 A 
HETATM   18  C   UNL     1       2.360  32.885  53.257  1.00  0.00     0.002 A 
HETATM   19  C   UNL     1       1.944  33.008  54.581  1.00  0.00     0.000 A 
HETATM   20  C   UNL     1       2.361  32.073  55.524  1.00  0.00     0.002 A 
HETATM   21  C   UNL     1       3.195  31.020  55.142  1.00  0.00     0.029 A 
ENDBRANCH  13  16
ENDBRANCH  10  12
BRANCH   9  22
HETATM   22  C   UNL     1       6.490  27.477  55.108  1.00  0.00    -0.028 A 
HETATM   23  C   UNL     1       7.614  28.201  54.661  1.00  0.00     0.012 A 
HETATM   24  C   UNL     1       8.431  28.882  55.566  1.00  0.00     0.037 A 
HETATM   25  C   UNL     1       8.134  28.835  56.923  1.00  0.00     0.065 A 
HETATM   26  C   UNL     1       7.040  28.118  57.389  1.00  0.00     0.037 A 
HETATM   27  C   UNL     1       6.220  27.438  56.487  1.00  0.00     0.012 A 
BRANCH  25  28
HETATM   28  O   UNL     1       8.909  29.479  57.842  1.00  0.00    -0.361 OA
HETATM   29  H   UNL     1       9.017  30.404  57.566  1.00  0.00     0.217 HD
ENDBRANCH  25  28
ENDBRANCH   9  22
BRANCH   7  30
HETATM   30  C   UNL     1       7.840  22.410  54.197  1.00  0.00     0.036 A 
HETATM   31  C   UNL     1       8.285  22.216  55.512  1.00  0.00     0.048 A 
HETATM   32 CL   UNL     1       8.233  23.451  56.722  1.00  0.00    -0.083 Cl
HETATM   33  C   UNL     1       8.847  20.988  55.890  1.00  0.00     0.025 A 
HETATM   34  C   UNL     1       8.974  19.950  54.966  1.00  0.00     0.002 A 
HETATM   35  C   UNL     1       8.545  20.135  53.655  1.00  0.00     0.001 A 
HETATM   36  C   UNL     1       7.986  21.355  53.274  1.00  0.00     0.017 A 
ENDBRANCH   7  30
TORSDOF 5
ENDMDL
MODEL 2
REMARK VINA RESULT:     -10.1      3.232      4.439
REMARK  5 active torsions:
REMARK  status: ('A' for Active; 'I' for Inactive)
REMARK    1  A    between atoms: C_7  and  C_8 
REMARK    2  A    between atoms: C_16  and  C_17 
REMARK    3  A    between atoms: C_20  and  O_21 
REMARK    4  A    between atoms: C_24  and  C_25 
REMARK       I    between atoms: C_25  and  N_26 
REMARK    5  A    between atoms: N_26  and  C_27 
ROOT
HETATM    1  C   UNL     1       3.790  30.703  54.941  1.00  0.00     0.070 C 
HETATM    2  C   UNL     1       4.784  29.650  55.369  1.00  0.00     0.037 C 
HETATM    3  N   UNL     1       5.075  28.673  54.417  1.00  0.00    -0.192 N 
HETATM    4  C   UNL     1       5.753  27.546  54.715  1.00  0.00     0.726 A 
HETATM    5  N   UNL     1       6.339  27.429  55.939  1.00  0.00    -0.083 N 
HETATM    6  N   UNL     1       6.930  26.231  56.100  1.00  0.00    -0.135 NA
HETATM    7  C   UNL     1       6.685  25.659  54.905  1.00  0.00     0.200 A 
HETATM    8  N   UNL     1       5.970  26.456  54.030  1.00  0.00    -0.041 NA
HETATM    9  C   UNL     1       6.372  28.502  56.936  1.00  0.00     0.202 C 
HETATM   10  C   UNL     1       5.374  29.604  56.592  1.00  0.00     0.062 C 
HETATM   11  H   UNL     1       4.533  28.688  53.557  1.00  0.00     0.184 HD
ENDROOT
BRANCH  10  12
HETATM   12  C   UNL     1       4.898  30.488  57.698  1.00  0.00     0.256 C 
HETATM   13  N   UNL     1       5.809  31.437  58.106  1.00  0.00    -0.323 N 
HETATM   14  H   UNL     1       6.692  31.499  57.618  1.00  0.00     0.169 HD
HETATM   15  O   UNL     1       3.788  30.293  58.179  1.00  0.00    -0.267 OA
BRANCH  13  16
HETATM   16  C   UNL     1       5.664  32.365  59.160  1.00  0.00     0.035 A 
HETATM   17  C   UNL     1       4.712  33.386  59.183  1.00  0.00     0.029 A 
HETATM   18  C   UNL     1       4.639  34.263  60.270  1.00  0.00     0.002 A 
HETATM   19  C   UNL     1       5.511  34.121  61.347  1.00  0.00     0.000 A 
HETATM   20  C   UNL     1       6.463  33.106  61.335  1.00  0.00     0.002 A 
HETATM   21  C   UNL     1       6.544  32.238  60.244  1.00  0.00     0.029 A 
ENDBRANCH  13  16
ENDBRANCH  10  12
BRANCH   9  22
HETATM   22  C   UNL     1       7.813  29.003  57.056  1.00  0.00    -0.028 A 
HETATM   23  C   UNL     1       8.362  29.392  58.294  1.00  0.00     0.012 A 
HETATM   24  C   UNL     1       9.679  29.848  58.381  1.00  0.00     0.037 A 
HETATM   25  C   UNL     1      10.450  29.929  57.228  1.00  0.00     0.065 A 
HETATM   26  C   UNL     1       9.928  29.565  55.993  1.00  0.00     0.037 A 
HETATM   27  C   UNL     1       8.613  29.106  55.904  1.00  0.00     0.012 A 
BRANCH  25  28
HETATM   28  O   UNL     1      11.738  30.376  57.265  1.00  0.00    -0.361 OA
HETATM   29  H   UNL     1      12.046  30.517  56.355  1.00  0.00     0.217 HD
ENDBRANCH  25  28
ENDBRANCH   9  22
BRANCH   7  30
HETATM   30  C   UNL     1       7.213  24.352  54.538  1.00  0.00     0.036 A 
HETATM   31  C   UNL     1       7.761  24.070  53.279  1.00  0.00     0.048 A 
HETATM   32 CL   UNL     1       7.804  25.219  51.986  1.00  0.00    -0.083 Cl
HETATM   33  C   UNL     1       8.265  22.791  53.001  1.00  0.00     0.025 A 
HETATM   34  C   UNL     1       8.227  21.787  53.969  1.00  0.00     0.002 A 
HETATM   35  C   UNL     1       7.677  22.052  55.219  1.00  0.00     0.001 A 
HETATM   36  C   UNL     1       7.172  23.323  55.499  1.00  0.00     0.017 A 
ENDBRANCH   7  30
TORSDOF 5
ENDMDL
MODEL 3
REMARK VINA RESULT:     -10.1      5.339      9.500
REMARK  5 active torsions:
REMARK  status: ('A' for Active; 'I' for Inactive)
REMARK    1  A    between atoms: C_7  and  C_8 
REMARK    2  A    between atoms: C_16  and  C_17 
REMARK    3  A    between atoms: C_20  and  O_21 
REMARK    4  A    between atoms: C_24  and  C_25 
REMARK       I    between atoms: C_25  and  N_26 
REMARK    5  A    between atoms: N_26  and  C_27 
ROOT
HETATM    1  C   UNL     1      10.597  29.937  56.617  1.00  0.00     0.070 C 
HETATM    2  C   UNL     1       9.427  30.246  57.520  1.00  0.00     0.037 C 
HETATM    3  N   UNL     1       9.588  31.348  58.360  1.00  0.00    -0.192 N 
HETATM    4  C   UNL     1       8.746  31.616  59.378  1.00  0.00     0.726 A 
HETATM    5  N   UNL     1       7.590  30.902  59.488  1.00  0.00    -0.083 N 
HETATM    6  N   UNL     1       6.887  31.253  60.580  1.00  0.00    -0.135 NA
HETATM    7  C   UNL     1       7.669  32.222  61.092  1.00  0.00     0.200 A 
HETATM    8  N   UNL     1       8.816  32.472  60.362  1.00  0.00    -0.041 NA
HETATM    9  C   UNL     1       7.142  29.915  58.503  1.00  0.00     0.202 C 
HETATM   10  C   UNL     1       8.276  29.524  57.559  1.00  0.00     0.062 C 
HETATM   11  H   UNL     1      10.503  31.793  58.370  1.00  0.00     0.184 HD
ENDROOT
BRANCH  10  12
HETATM   12  C   UNL     1       8.179  28.212  56.854  1.00  0.00     0.256 C 
HETATM   13  N   UNL     1       7.476  28.248  55.670  1.00  0.00    -0.323 N 
HETATM   14  H   UNL     1       7.121  29.137  55.347  1.00  0.00     0.169 HD
HETATM   15  O   UNL     1       8.677  27.219  57.373  1.00  0.00    -0.267 OA
BRANCH  13  16
HETATM   16  C   UNL     1       7.171  27.161  54.822  1.00  0.00     0.035 A 
HETATM   17  C   UNL     1       7.811  26.910  53.607  1.00  0.00     0.029 A 
HETATM   18  C   UNL     1       7.444  25.808  52.828  1.00  0.00     0.002 A 
HETATM   19  C   UNL     1       6.443  24.941  53.262  1.00  0.00     0.000 A 
HETATM   20  C   UNL     1       5.800  25.182  54.473  1.00  0.00     0.002 A 
HETATM   21  C   UNL     1       6.158  26.290  55.245  1.00  0.00     0.029 A 
ENDBRANCH  13  16
ENDBRANCH  10  12
BRANCH   9  22
HETATM   22  C   UNL     1       5.917  30.479  57.780  1.00  0.00    -0.028 A 
HETATM   23  C   UNL     1       5.818  31.844  57.445  1.00  0.00     0.012 A 
HETATM   24  C   UNL     1       4.689  32.338  56.787  1.00  0.00     0.037 A 
HETATM   25  C   UNL     1       3.649  31.472  56.472  1.00  0.00     0.065 A 
HETATM   26  C   UNL     1       3.718  30.125  56.803  1.00  0.00     0.037 A 
HETATM   27  C   UNL     1       4.845  29.628  57.459  1.00  0.00     0.012 A 
BRANCH  25  28
HETATM   28  O   UNL     1       2.526  31.913  55.837  1.00  0.00    -0.361 OA
HETATM   29  H   UNL     1       2.660  32.837  55.571  1.00  0.00     0.217 HD
ENDBRANCH  25  28
ENDBRANCH   9  22
BRANCH   7  30
HETATM   30  C   UNL     1       7.287  33.002  62.262  1.00  0.00     0.036 A 
HETATM   31  C   UNL     1       6.228  33.921  62.260  1.00  0.00     0.048 A 
HETATM   32 CL   UNL     1       5.299  34.294  60.849  1.00  0.00    -0.083 Cl
HETATM   33  C   UNL     1       5.907  34.627  63.429  1.00  0.00     0.025 A 
HETATM   34  C   UNL     1       6.634  34.426  64.602  1.00  0.00     0.002 A 
HETATM   35  C   UNL     1       7.693  33.523  64.613  1.00  0.00     0.001 A 
HETATM   36  C   UNL     1       8.018  32.821  63.452  1.00  0.00     0.017 A 
ENDBRANCH   7  30
TORSDOF 5
ENDMDL
MODEL 4
REMARK VINA RESULT:      -9.2      2.627      9.012
REMARK  5 active torsions:
REMARK  status: ('A' for Active; 'I' for Inactive)
REMARK    1  A    between atoms: C_7  and  C_8 
REMARK    2  A    between atoms: C_16  and  C_17 
REMARK    3  A    between atoms: C_20  and  O_21 
REMARK    4  A    between atoms: C_24  and  C_25 
REMARK       I    between atoms: C_25  and  N_26 
REMARK    5  A    between atoms: N_26  and  C_27 
ROOT
HETATM    1  C   UNL     1       8.735  27.244  57.077  1.00  0.00     0.070 C 
HETATM    2  C   UNL     1       7.460  27.629  56.366  1.00  0.00     0.037 C 
HETATM    3  N   UNL     1       7.239  28.999  56.223  1.00  0.00    -0.192 N 
HETATM    4  C   UNL     1       6.055  29.507  55.826  1.00  0.00     0.726 A 
HETATM    5  N   UNL     1       5.090  28.661  55.368  1.00  0.00    -0.083 N 
HETATM    6  N   UNL     1       3.955  29.315  55.062  1.00  0.00    -0.135 NA
HETATM    7  C   UNL     1       4.306  30.586  55.336  1.00  0.00     0.200 A 
HETATM    8  N   UNL     1       5.601  30.731  55.798  1.00  0.00    -0.041 NA
HETATM    9  C   UNL     1       5.287  27.222  55.179  1.00  0.00     0.202 C 
HETATM   10  C   UNL     1       6.549  26.740  55.889  1.00  0.00     0.062 C 
HETATM   11  H   UNL     1       7.894  29.624  56.685  1.00  0.00     0.184 HD
ENDROOT
BRANCH  10  12
HETATM   12  C   UNL     1       6.643  25.293  56.244  1.00  0.00     0.256 C 
HETATM   13  N   UNL     1       7.550  24.577  55.494  1.00  0.00    -0.323 N 
HETATM   14  H   UNL     1       8.102  25.070  54.805  1.00  0.00     0.169 HD
HETATM   15  O   UNL     1       5.909  24.844  57.118  1.00  0.00    -0.267 OA
BRANCH  13  16
HETATM   16  C   UNL     1       7.811  23.191  55.560  1.00  0.00     0.035 A 
HETATM   17  C   UNL     1       8.266  22.532  56.704  1.00  0.00     0.029 A 
HETATM   18  C   UNL     1       8.500  21.153  56.680  1.00  0.00     0.002 A 
HETATM   19  C   UNL     1       8.272  20.420  55.518  1.00  0.00     0.000 A 
HETATM   20  C   UNL     1       7.817  21.068  54.373  1.00  0.00     0.002 A 
HETATM   21  C   UNL     1       7.595  22.446  54.392  1.00  0.00     0.029 A 
ENDBRANCH  13  16
ENDBRANCH  10  12
BRANCH   9  22
HETATM   22  C   UNL     1       5.287  26.931  53.676  1.00  0.00    -0.028 A 
HETATM   23  C   UNL     1       4.938  25.664  53.168  1.00  0.00     0.012 A 
HETATM   24  C   UNL     1       4.947  25.419  51.793  1.00  0.00     0.037 A 
HETATM   25  C   UNL     1       5.316  26.435  50.920  1.00  0.00     0.065 A 
HETATM   26  C   UNL     1       5.678  27.689  51.399  1.00  0.00     0.037 A 
HETATM   27  C   UNL     1       5.667  27.937  52.772  1.00  0.00     0.012 A 
BRANCH  25  28
HETATM   28  O   UNL     1       5.347  26.238  49.572  1.00  0.00    -0.361 OA
HETATM   29  H   UNL     1       6.271  26.142  49.291  1.00  0.00     0.217 HD
ENDBRANCH  25  28
ENDBRANCH   9  22
BRANCH   7  30
HETATM   30  C   UNL     1       3.424  31.716  55.075  1.00  0.00     0.036 A 
HETATM   31  C   UNL     1       2.861  31.977  53.818  1.00  0.00     0.048 A 
HETATM   32 CL   UNL     1       3.206  31.032  52.410  1.00  0.00    -0.083 Cl
HETATM   33  C   UNL     1       2.008  33.077  53.644  1.00  0.00     0.025 A 
HETATM   34  C   UNL     1       1.712  33.923  54.713  1.00  0.00     0.002 A 
HETATM   35  C   UNL     1       2.273  33.679  55.963  1.00  0.00     0.001 A 
HETATM   36  C   UNL     1       3.124  32.587  56.141  1.00  0.00     0.017 A 
ENDBRANCH   7  30
TORSDOF 5
ENDMDL
MODEL 5
REMARK VINA RESULT:      -9.1      3.303      5.850
REMARK  5 active torsions:
REMARK  status: ('A' for Active; 'I' for Inactive)
REMARK    1  A    between atoms: C_7  and  C_8 
REMARK    2  A    between atoms: C_16  and  C_17 
REMARK    3  A    between atoms: C_20  and  O_21 
REMARK    4  A    between atoms: C_24  and  C_25 
REMARK       I    between atoms: C_25  and  N_26 
REMARK    5  A    between atoms: N_26  and  C_27 
ROOT
HETATM    1  C   UNL     1       2.968  31.109  52.916  1.00  0.00     0.070 C 
HETATM    2  C   UNL     1       3.781  29.942  52.410  1.00  0.00     0.037 C 
HETATM    3  N   UNL     1       3.844  28.837  53.258  1.00  0.00    -0.192 N 
HETATM    4  C   UNL     1       4.706  27.819  53.064  1.00  0.00     0.726 A 
HETATM    5  N   UNL     1       5.417  27.764  51.902  1.00  0.00    -0.083 N 
HETATM    6  N   UNL     1       6.267  26.722  51.884  1.00  0.00    -0.135 NA
HETATM    7  C   UNL     1       6.005  26.152  53.076  1.00  0.00     0.200 A 
HETATM    8  N   UNL     1       5.037  26.805  53.817  1.00  0.00    -0.041 NA
HETATM    9  C   UNL     1       5.234  28.696  50.787  1.00  0.00     0.202 C 
HETATM   10  C   UNL     1       4.438  29.924  51.220  1.00  0.00     0.062 C 
HETATM   11  H   UNL     1       3.425  28.936  54.179  1.00  0.00     0.184 HD
ENDROOT
BRANCH  10  12
HETATM   12  C   UNL     1       4.585  31.173  50.415  1.00  0.00     0.256 C 
HETATM   13  N   UNL     1       5.728  31.895  50.681  1.00  0.00    -0.323 N 
HETATM   14  H   UNL     1       6.389  31.522  51.348  1.00  0.00     0.169 HD
HETATM   15  O   UNL     1       3.695  31.485  49.632  1.00  0.00    -0.267 OA
BRANCH  13  16
HETATM   16  C   UNL     1       6.105  33.136  50.124  1.00  0.00     0.035 A 
HETATM   17  C   UNL     1       6.015  34.357  50.795  1.00  0.00     0.029 A 
HETATM   18  C   UNL     1       6.411  35.542  50.166  1.00  0.00     0.002 A 
HETATM   19  C   UNL     1       6.910  35.515  48.866  1.00  0.00     0.000 A 
HETATM   20  C   UNL     1       7.005  34.303  48.189  1.00  0.00     0.002 A 
HETATM   21  C   UNL     1       6.598  33.121  48.812  1.00  0.00     0.029 A 
ENDBRANCH  13  16
ENDBRANCH  10  12
BRANCH   9  22
HETATM   22  C   UNL     1       4.592  27.934  49.625  1.00  0.00    -0.028 A 
HETATM   23  C   UNL     1       5.369  27.292  48.641  1.00  0.00     0.012 A 
HETATM   24  C   UNL     1       4.763  26.604  47.588  1.00  0.00     0.037 A 
HETATM   25  C   UNL     1       3.376  26.564  47.507  1.00  0.00     0.065 A 
HETATM   26  C   UNL     1       2.588  27.201  48.458  1.00  0.00     0.037 A 
HETATM   27  C   UNL     1       3.191  27.887  49.513  1.00  0.00     0.012 A 
BRANCH  25  28
HETATM   28  O   UNL     1       2.743  25.911  46.492  1.00  0.00    -0.361 OA
HETATM   29  H   UNL     1       3.387  25.346  46.034  1.00  0.00     0.217 HD
ENDBRANCH  25  28
ENDBRANCH   9  22
BRANCH   7  30
HETATM   30  C   UNL     1       6.622  24.902  53.500  1.00  0.00     0.036 A 
HETATM   31  C   UNL     1       6.587  24.439  54.823  1.00  0.00     0.048 A 
HETATM   32 CL   UNL     1       5.874  25.332  56.122  1.00  0.00    -0.083 Cl
HETATM   33  C   UNL     1       7.191  23.217  55.156  1.00  0.00     0.025 A 
HETATM   34  C   UNL     1       7.832  22.452  54.182  1.00  0.00     0.002 A 
HETATM   35  C   UNL     1       7.881  22.907  52.867  1.00  0.00     0.001 A 
HETATM   36  C   UNL     1       7.284  24.123  52.531  1.00  0.00     0.017 A 
ENDBRANCH   7  30
TORSDOF 5
ENDMDL
MODEL 6
REMARK VINA RESULT:      -8.6      3.709      9.257
REMARK  5 active torsions:
REMARK  status: ('A' for Active; 'I' for Inactive)
REMARK    1  A    between atoms: C_7  and  C_8 
REMARK    2  A    between atoms: C_16  and  C_17 
REMARK    3  A    between atoms: C_20  and  O_21 
REMARK    4  A    between atoms: C_24  and  C_25 
REMARK       I    between atoms: C_25  and  N_26 
REMARK    5  A    between atoms: N_26  and  C_27 
ROOT
HETATM    1  C   UNL     1       9.356  28.666  57.025  1.00  0.00     0.070 C 
HETATM    2  C   UNL     1       7.932  29.155  57.138  1.00  0.00     0.037 C 
HETATM    3  N   UNL     1       7.776  30.449  57.634  1.00  0.00    -0.192 N 
HETATM    4  C   UNL     1       6.580  30.944  58.012  1.00  0.00     0.726 A 
HETATM    5  N   UNL     1       5.451  30.235  57.731  1.00  0.00    -0.083 N 
HETATM    6  N   UNL     1       4.349  30.836  58.216  1.00  0.00    -0.135 NA
HETATM    7  C   UNL     1       4.880  31.941  58.772  1.00  0.00     0.200 A 
HETATM    8  N   UNL     1       6.254  32.036  58.649  1.00  0.00    -0.041 NA
HETATM    9  C   UNL     1       5.435  28.999  56.945  1.00  0.00     0.202 C 
HETATM   10  C   UNL     1       6.840  28.419  56.802  1.00  0.00     0.062 C 
HETATM   11  H   UNL     1       8.613  30.920  57.969  1.00  0.00     0.184 HD
ENDROOT
BRANCH  10  12
HETATM   12  C   UNL     1       6.969  26.962  56.503  1.00  0.00     0.256 C 
HETATM   13  N   UNL     1       7.327  26.673  55.204  1.00  0.00    -0.323 N 
HETATM   14  H   UNL     1       7.513  27.440  54.573  1.00  0.00     0.169 HD
HETATM   15  O   UNL     1       6.719  26.149  57.385  1.00  0.00    -0.267 OA
BRANCH  13  16
HETATM   16  C   UNL     1       7.465  25.396  54.619  1.00  0.00     0.035 A 
HETATM   17  C   UNL     1       7.468  24.199  55.337  1.00  0.00     0.029 A 
HETATM   18  C   UNL     1       7.612  22.975  54.675  1.00  0.00     0.002 A 
HETATM   19  C   UNL     1       7.743  22.938  53.288  1.00  0.00     0.000 A 
HETATM   20  C   UNL     1       7.740  24.125  52.562  1.00  0.00     0.002 A 
HETATM   21  C   UNL     1       7.609  25.348  53.225  1.00  0.00     0.029 A 
ENDBRANCH  13  16
ENDBRANCH  10  12
BRANCH   9  22
HETATM   22  C   UNL     1       4.759  29.291  55.604  1.00  0.00    -0.028 A 
HETATM   23  C   UNL     1       4.617  30.605  55.117  1.00  0.00     0.012 A 
HETATM   24  C   UNL     1       3.993  30.849  53.891  1.00  0.00     0.037 A 
HETATM   25  C   UNL     1       3.499  29.782  53.152  1.00  0.00     0.065 A 
HETATM   26  C   UNL     1       3.615  28.478  53.617  1.00  0.00     0.037 A 
HETATM   27  C   UNL     1       4.240  28.231  54.841  1.00  0.00     0.012 A 
BRANCH  25  28
HETATM   28  O   UNL     1       2.877  29.975  51.954  1.00  0.00    -0.361 OA
HETATM   29  H   UNL     1       1.920  30.039  52.106  1.00  0.00     0.217 HD
ENDBRANCH  25  28
ENDBRANCH   9  22
BRANCH   7  30
HETATM   30  C   UNL     1       4.062  32.991  59.367  1.00  0.00     0.036 A 
HETATM   31  C   UNL     1       3.832  33.097  60.746  1.00  0.00     0.048 A 
HETATM   32 CL   UNL     1       4.429  31.952  61.897  1.00  0.00    -0.083 Cl
HETATM   33  C   UNL     1       3.045  34.144  61.248  1.00  0.00     0.025 A 
HETATM   34  C   UNL     1       2.482  35.086  60.387  1.00  0.00     0.002 A 
HETATM   35  C   UNL     1       2.696  34.985  59.016  1.00  0.00     0.001 A 
HETATM   36  C   UNL     1       3.476  33.944  58.511  1.00  0.00     0.017 A 
ENDBRANCH   7  30
TORSDOF 5
ENDMDL
MODEL 7
REMARK VINA RESULT:      -8.6      3.761      6.958
REMARK  5 active torsions:
REMARK  status: ('A' for Active; 'I' for Inactive)
REMARK    1  A    between atoms: C_7  and  C_8 
REMARK    2  A    between atoms: C_16  and  C_17 
REMARK    3  A    between atoms: C_20  and  O_21 
REMARK    4  A    between atoms: C_24  and  C_25 
REMARK       I    between atoms: C_25  and  N_26 
REMARK    5  A    between atoms: N_26  and  C_27 
ROOT
HETATM    1  C   UNL     1       7.201  26.147  57.929  1.00  0.00     0.070 C 
HETATM    2  C   UNL     1       6.736  27.031  56.797  1.00  0.00     0.037 C 
HETATM    3  N   UNL     1       5.994  26.396  55.801  1.00  0.00    -0.192 N 
HETATM    4  C   UNL     1       5.707  26.983  54.621  1.00  0.00     0.726 A 
HETATM    5  N   UNL     1       5.984  28.306  54.455  1.00  0.00    -0.083 N 
HETATM    6  N   UNL     1       5.688  28.727  53.212  1.00  0.00    -0.135 NA
HETATM    7  C   UNL     1       5.201  27.597  52.664  1.00  0.00     0.200 A 
HETATM    8  N   UNL     1       5.192  26.510  53.518  1.00  0.00    -0.041 NA
HETATM    9  C   UNL     1       6.488  29.177  55.520  1.00  0.00     0.202 C 
HETATM   10  C   UNL     1       7.005  28.360  56.701  1.00  0.00     0.062 C 
HETATM   11  H   UNL     1       5.908  25.384  55.862  1.00  0.00     0.184 HD
ENDROOT
BRANCH  10  12
HETATM   12  C   UNL     1       7.992  29.002  57.619  1.00  0.00     0.256 C 
HETATM   13  N   UNL     1       7.432  29.771  58.615  1.00  0.00    -0.323 N 
HETATM   14  H   UNL     1       6.425  29.814  58.683  1.00  0.00     0.169 HD
HETATM   15  O   UNL     1       9.190  28.844  57.410  1.00  0.00    -0.267 OA
BRANCH  13  16
HETATM   16  C   UNL     1       8.110  30.540  59.586  1.00  0.00     0.035 A 
HETATM   17  C   UNL     1       8.888  30.001  60.612  1.00  0.00     0.029 A 
HETATM   18  C   UNL     1       9.525  30.839  61.533  1.00  0.00     0.002 A 
HETATM   19  C   UNL     1       9.400  32.223  61.429  1.00  0.00     0.000 A 
HETATM   20  C   UNL     1       8.628  32.771  60.408  1.00  0.00     0.002 A 
HETATM   21  C   UNL     1       7.981  31.933  59.496  1.00  0.00     0.029 A 
ENDBRANCH  13  16
ENDBRANCH  10  12
BRANCH   9  22
HETATM   22  C   UNL     1       5.381  30.162  55.900  1.00  0.00    -0.028 A 
HETATM   23  C   UNL     1       4.105  29.721  56.306  1.00  0.00     0.012 A 
HETATM   24  C   UNL     1       3.108  30.638  56.647  1.00  0.00     0.037 A 
HETATM   25  C   UNL     1       3.377  31.999  56.572  1.00  0.00     0.065 A 
HETATM   26  C   UNL     1       4.622  32.458  56.162  1.00  0.00     0.037 A 
HETATM   27  C   UNL     1       5.622  31.544  55.824  1.00  0.00     0.012 A 
BRANCH  25  28
HETATM   28  O   UNL     1       2.431  32.928  56.888  1.00  0.00    -0.361 OA
HETATM   29  H   UNL     1       1.593  32.676  56.467  1.00  0.00     0.217 HD
ENDBRANCH  25  28
ENDBRANCH   9  22
BRANCH   7  30
HETATM   30  C   UNL     1       4.644  27.555  51.319  1.00  0.00     0.036 A 
HETATM   31  C   UNL     1       3.690  28.471  50.852  1.00  0.00     0.048 A 
HETATM   32 CL   UNL     1       3.005  29.713  51.843  1.00  0.00    -0.083 Cl
HETATM   33  C   UNL     1       3.209  28.377  49.538  1.00  0.00     0.025 A 
HETATM   34  C   UNL     1       3.670  27.376  48.683  1.00  0.00     0.002 A 
HETATM   35  C   UNL     1       4.609  26.456  49.137  1.00  0.00     0.001 A 
HETATM   36  C   UNL     1       5.089  26.543  50.445  1.00  0.00     0.017 A 
ENDBRANCH   7  30
TORSDOF 5
ENDMDL
MODEL 8
REMARK VINA RESULT:      -8.3      2.238      4.578
REMARK  5 active torsions:
REMARK  status: ('A' for Active; 'I' for Inactive)
REMARK    1  A    between atoms: C_7  and  C_8 
REMARK    2  A    between atoms: C_16  and  C_17 
REMARK    3  A    between atoms: C_20  and  O_21 
REMARK    4  A    between atoms: C_24  and  C_25 
REMARK       I    between atoms: C_25  and  N_26 
REMARK    5  A    between atoms: N_26  and  C_27 
ROOT
HETATM    1  C   UNL     1       3.099  29.946  57.234  1.00  0.00     0.070 C 
HETATM    2  C   UNL     1       3.959  29.283  56.185  1.00  0.00     0.037 C 
HETATM    3  N   UNL     1       4.160  27.912  56.347  1.00  0.00    -0.192 N 
HETATM    4  C   UNL     1       5.079  27.222  55.642  1.00  0.00     0.726 A 
HETATM    5  N   UNL     1       5.711  27.834  54.601  1.00  0.00    -0.083 N 
HETATM    6  N   UNL     1       6.632  27.033  54.035  1.00  0.00    -0.135 NA
HETATM    7  C   UNL     1       6.493  25.915  54.773  1.00  0.00     0.200 A 
HETATM    8  N   UNL     1       5.533  26.004  55.765  1.00  0.00    -0.041 NA
HETATM    9  C   UNL     1       5.385  29.179  54.123  1.00  0.00     0.202 C 
HETATM   10  C   UNL     1       4.533  29.934  55.139  1.00  0.00     0.062 C 
HETATM   11  H   UNL     1       3.798  27.489  57.199  1.00  0.00     0.184 HD
ENDROOT
BRANCH  10  12
HETATM   12  C   UNL     1       4.534  31.427  55.083  1.00  0.00     0.256 C 
HETATM   13  N   UNL     1       3.593  31.969  54.234  1.00  0.00    -0.323 N 
HETATM   14  H   UNL     1       2.959  31.344  53.755  1.00  0.00     0.169 HD
HETATM   15  O   UNL     1       5.364  32.047  55.738  1.00  0.00    -0.267 OA
BRANCH  13  16
HETATM   16  C   UNL     1       3.399  33.334  53.933  1.00  0.00     0.035 A 
HETATM   17  C   UNL     1       2.544  34.181  54.640  1.00  0.00     0.029 A 
HETATM   18  C   UNL     1       2.411  35.523  54.270  1.00  0.00     0.002 A 
HETATM   19  C   UNL     1       3.140  36.033  53.199  1.00  0.00     0.000 A 
HETATM   20  C   UNL     1       3.997  35.198  52.488  1.00  0.00     0.002 A 
HETATM   21  C   UNL     1       4.120  33.854  52.849  1.00  0.00     0.029 A 
ENDBRANCH  13  16
ENDBRANCH  10  12
BRANCH   9  22
HETATM   22  C   UNL     1       4.723  29.053  52.749  1.00  0.00    -0.028 A 
HETATM   23  C   UNL     1       3.338  28.830  52.612  1.00  0.00     0.012 A 
HETATM   24  C   UNL     1       2.755  28.716  51.348  1.00  0.00     0.037 A 
HETATM   25  C   UNL     1       3.554  28.813  50.216  1.00  0.00     0.065 A 
HETATM   26  C   UNL     1       4.923  29.019  50.325  1.00  0.00     0.037 A 
HETATM   27  C   UNL     1       5.509  29.136  51.587  1.00  0.00     0.012 A 
BRANCH  25  28
HETATM   28  O   UNL     1       3.027  28.699  48.963  1.00  0.00    -0.361 OA
HETATM   29  H   UNL     1       3.584  29.199  48.344  1.00  0.00     0.217 HD
ENDBRANCH  25  28
ENDBRANCH   9  22
BRANCH   7  30
HETATM   30  C   UNL     1       7.227  24.690  54.487  1.00  0.00     0.036 A 
HETATM   31  C   UNL     1       8.118  24.098  55.393  1.00  0.00     0.048 A 
HETATM   32 CL   UNL     1       8.510  24.793  56.928  1.00  0.00    -0.083 Cl
HETATM   33  C   UNL     1       8.779  22.908  55.054  1.00  0.00     0.025 A 
HETATM   34  C   UNL     1       8.561  22.302  53.817  1.00  0.00     0.002 A 
HETATM   35  C   UNL     1       7.686  22.886  52.905  1.00  0.00     0.001 A 
HETATM   36  C   UNL     1       7.028  24.071  53.237  1.00  0.00     0.017 A 
ENDBRANCH   7  30
TORSDOF 5
ENDMDL
MODEL 9
REMARK VINA RESULT:      -8.1     16.358     19.221
REMARK  5 active torsions:
REMARK  status: ('A' for Active; 'I' for Inactive)
REMARK    1  A    between atoms: C_7  and  C_8 
REMARK    2  A    between atoms: C_16  and  C_17 
REMARK    3  A    between atoms: C_20  and  O_21 
REMARK    4  A    between atoms: C_24  and  C_25 
REMARK       I    between atoms: C_25  and  N_26 
REMARK    5  A    between atoms: N_26  and  C_27 
ROOT
HETATM    1  C   UNL     1      12.081  13.151  51.774  1.00  0.00     0.070 C 
HETATM    2  C   UNL     1      13.063  12.022  51.973  1.00  0.00     0.037 C 
HETATM    3  N   UNL     1      14.110  11.963  51.053  1.00  0.00    -0.192 N 
HETATM    4  C   UNL     1      14.929  10.897  50.950  1.00  0.00     0.726 A 
HETATM    5  N   UNL     1      14.861   9.916  51.894  1.00  0.00    -0.083 N 
HETATM    6  N   UNL     1      15.703   8.902  51.622  1.00  0.00    -0.135 NA
HETATM    7  C   UNL     1      16.285   9.343  50.491  1.00  0.00     0.200 A 
HETATM    8  N   UNL     1      15.832  10.578  50.063  1.00  0.00    -0.041 NA
HETATM    9  C   UNL     1      14.017   9.987  53.088  1.00  0.00     0.202 C 
HETATM   10  C   UNL     1      12.973  11.092  52.960  1.00  0.00     0.062 C 
HETATM   11  H   UNL     1      14.078  12.615  50.273  1.00  0.00     0.184 HD
ENDROOT
BRANCH  10  12
HETATM   12  C   UNL     1      11.740  10.992  53.798  1.00  0.00     0.256 C 
HETATM   13  N   UNL     1      10.664  10.410  53.166  1.00  0.00    -0.323 N 
HETATM   14  H   UNL     1      10.787  10.062  52.225  1.00  0.00     0.169 HD
HETATM   15  O   UNL     1      11.753  11.454  54.934  1.00  0.00    -0.267 OA
BRANCH  13  16
HETATM   16  C   UNL     1       9.361  10.236  53.681  1.00  0.00     0.035 A 
HETATM   17  C   UNL     1       8.799   8.997  53.994  1.00  0.00     0.029 A 
HETATM   18  C   UNL     1       7.498   8.917  54.500  1.00  0.00     0.002 A 
HETATM   19  C   UNL     1       6.751  10.074  54.707  1.00  0.00     0.000 A 
HETATM   20  C   UNL     1       7.302  11.315  54.400  1.00  0.00     0.002 A 
HETATM   21  C   UNL     1       8.597  11.394  53.883  1.00  0.00     0.029 A 
ENDBRANCH  13  16
ENDBRANCH  10  12
BRANCH   9  22
HETATM   22  C   UNL     1      14.924  10.146  54.310  1.00  0.00    -0.028 A 
HETATM   23  C   UNL     1      14.643   9.503  55.531  1.00  0.00     0.012 A 
HETATM   24  C   UNL     1      15.483   9.664  56.634  1.00  0.00     0.037 A 
HETATM   25  C   UNL     1      16.604  10.479  56.526  1.00  0.00     0.065 A 
HETATM   26  C   UNL     1      16.895  11.135  55.337  1.00  0.00     0.037 A 
HETATM   27  C   UNL     1      16.058  10.973  54.232  1.00  0.00     0.012 A 
BRANCH  25  28
HETATM   28  O   UNL     1      17.447  10.671  57.580  1.00  0.00    -0.361 OA
HETATM   29  H   UNL     1      17.436   9.876  58.137  1.00  0.00     0.217 HD
ENDBRANCH  25  28
ENDBRANCH   9  22
BRANCH   7  30
HETATM   30  C   UNL     1      17.367   8.623  49.833  1.00  0.00     0.036 A 
HETATM   31  C   UNL     1      17.211   7.948  48.614  1.00  0.00     0.048 A 
HETATM   32 CL   UNL     1      15.696   7.827  47.785  1.00  0.00    -0.083 Cl
HETATM   33  C   UNL     1      18.302   7.287  48.031  1.00  0.00     0.025 A 
HETATM   34  C   UNL     1      19.550   7.291  48.653  1.00  0.00     0.002 A 
HETATM   35  C   UNL     1      19.715   7.950  49.868  1.00  0.00     0.001 A 
HETATM   36  C   UNL     1      18.632   8.606  50.454  1.00  0.00     0.017 A 
ENDBRANCH   7  30
TORSDOF 5
ENDMDL
MODEL 10
REMARK VINA RESULT:      -7.9      4.169      7.141
REMARK  5 active torsions:
REMARK  status: ('A' for Active; 'I' for Inactive)
REMARK    1  A    between atoms: C_7  and  C_8 
REMARK    2  A    between atoms: C_16  and  C_17 
REMARK    3  A    between atoms: C_20  and  O_21 
REMARK    4  A    between atoms: C_24  and  C_25 
REMARK       I    between atoms: C_25  and  N_26 
REMARK    5  A    between atoms: N_26  and  C_27 
ROOT
HETATM    1  C   UNL     1       1.957  32.310  51.289  1.00  0.00     0.070 C 
HETATM    2  C   UNL     1       2.854  31.096  51.248  1.00  0.00     0.037 C 
HETATM    3  N   UNL     1       2.774  30.248  52.352  1.00  0.00    -0.192 N 
HETATM    4  C   UNL     1       3.663  29.260  52.577  1.00  0.00     0.726 A 
HETATM    5  N   UNL     1       4.567  28.949  51.606  1.00  0.00    -0.083 N 
HETATM    6  N   UNL     1       5.414  27.981  52.002  1.00  0.00    -0.135 NA
HETATM    7  C   UNL     1       4.950  27.721  53.240  1.00  0.00     0.200 A 
HETATM    8  N   UNL     1       3.863  28.489  53.612  1.00  0.00    -0.041 NA
HETATM    9  C   UNL     1       4.577  29.555  50.273  1.00  0.00     0.202 C 
HETATM   10  C   UNL     1       3.710  30.809  50.231  1.00  0.00     0.062 C 
HETATM   11  H   UNL     1       2.199  30.556  53.132  1.00  0.00     0.184 HD
ENDROOT
BRANCH  10  12
HETATM   12  C   UNL     1       3.988  31.819  49.167  1.00  0.00     0.256 C 
HETATM   13  N   UNL     1       3.357  31.575  47.967  1.00  0.00    -0.323 N 
HETATM   14  H   UNL     1       2.736  30.780  47.901  1.00  0.00     0.169 HD
HETATM   15  O   UNL     1       4.761  32.740  49.407  1.00  0.00    -0.267 OA
BRANCH  13  16
HETATM   16  C   UNL     1       3.477  32.316  46.771  1.00  0.00     0.035 A 
HETATM   17  C   UNL     1       2.884  33.561  46.556  1.00  0.00     0.029 A 
HETATM   18  C   UNL     1       3.054  34.226  45.337  1.00  0.00     0.002 A 
HETATM   19  C   UNL     1       3.827  33.657  44.328  1.00  0.00     0.000 A 
HETATM   20  C   UNL     1       4.424  32.416  44.532  1.00  0.00     0.002 A 
HETATM   21  C   UNL     1       4.243  31.746  45.744  1.00  0.00     0.029 A 
ENDBRANCH  13  16
ENDBRANCH  10  12
BRANCH   9  22
HETATM   22  C   UNL     1       4.155  28.490  49.258  1.00  0.00    -0.028 A 
HETATM   23  C   UNL     1       5.090  27.859  48.414  1.00  0.00     0.012 A 
HETATM   24  C   UNL     1       4.682  26.892  47.493  1.00  0.00     0.037 A 
HETATM   25  C   UNL     1       3.336  26.559  47.403  1.00  0.00     0.065 A 
HETATM   26  C   UNL     1       2.394  27.176  48.215  1.00  0.00     0.037 A 
HETATM   27  C   UNL     1       2.798  28.142  49.138  1.00  0.00     0.012 A 
BRANCH  25  28
HETATM   28  O   UNL     1       2.894  25.626  46.513  1.00  0.00    -0.361 OA
HETATM   29  H   UNL     1       2.284  25.023  46.969  1.00  0.00     0.217 HD
ENDBRANCH  25  28
ENDBRANCH   9  22
BRANCH   7  30
HETATM   30  C   UNL     1       5.491  26.654  54.072  1.00  0.00     0.036 A 
HETATM   31  C   UNL     1       5.537  25.312  53.667  1.00  0.00     0.048 A 
HETATM   32 CL   UNL     1       4.889  24.753  52.163  1.00  0.00    -0.083 Cl
HETATM   33  C   UNL     1       6.087  24.340  54.516  1.00  0.00     0.025 A 
HETATM   34  C   UNL     1       6.589  24.693  55.768  1.00  0.00     0.002 A 
HETATM   35  C   UNL     1       6.540  26.020  56.185  1.00  0.00     0.001 A 
HETATM   36  C   UNL     1       5.992  26.990  55.345  1.00  0.00     0.017 A 
ENDBRANCH   7  30
TORSDOF 5
ENDMDL
