MODEL 1
REMARK VINA RESULT:      -9.2      0.000      0.000
REMARK  6 active torsions:
REMARK  status: ('A' for Active; 'I' for Inactive)
REMARK    1  A    between atoms: C_4  and  N_5 
REMARK       I    between atoms: N_5  and  C_6 
REMARK       I    between atoms: C_6  and  N_7 
REMARK    2  A    between atoms: N_7  and  C_8 
REMARK    3  A    between atoms: N_11  and  C_13 
REMARK    4  A    between atoms: C_13  and  C_14 
REMARK       I    between atoms: C_14  and  N_15 
REMARK    5  A    between atoms: N_15  and  C_16 
REMARK    6  A    between atoms: C_16  and  C_17 
ROOT
HETATM    1  C   UNL     1       7.829  28.625  56.876  1.00  0.00     0.090 C 
HETATM    2  C   UNL     1       6.757  29.341  56.039  1.00  0.00     0.058 C 
HETATM    3  C   UNL     1       5.797  28.425  55.271  1.00  0.00     0.191 C 
HETATM    4  N   UNL     1       6.417  27.077  55.029  1.00  0.00    -0.054 N 
HETATM    5  H   UNL     1       5.713  26.550  54.475  1.00  0.00     0.281 HD
HETATM    6  C   UNL     1       6.439  26.479  56.403  1.00  0.00     0.191 C 
HETATM    7  C   UNL     1       7.482  27.177  57.276  1.00  0.00     0.058 C 
HETATM    8  C   UNL     1       4.589  28.041  56.134  1.00  0.00     0.035 C 
HETATM    9  C   UNL     1       5.014  26.777  56.883  1.00  0.00     0.035 C 
ENDROOT
BRANCH   1  10
HETATM   10  N   UNL     1       8.246  29.447  58.011  1.00  0.00    -0.338 N 
HETATM   11  C   UNL     1       9.456  30.085  57.988  1.00  0.00     0.321 C 
HETATM   12  N   UNL     1       9.726  30.972  58.978  1.00  0.00    -0.309 N 
HETATM   13  O   UNL     1      10.261  29.929  57.073  1.00  0.00    -0.247 OA
HETATM   14  H   UNL     1      10.553  31.516  58.758  1.00  0.00     0.170 HD
HETATM   15  H   UNL     1       7.539  30.054  58.412  1.00  0.00     0.164 HD
BRANCH  12  16
HETATM   16  C   UNL     1       9.121  31.258  60.216  1.00  0.00     0.036 A 
HETATM   17  C   UNL     1       9.274  30.491  61.373  1.00  0.00     0.029 A 
HETATM   18  C   UNL     1       8.629  30.863  62.558  1.00  0.00     0.002 A 
HETATM   19  C   UNL     1       7.840  32.010  62.601  1.00  0.00     0.000 A 
HETATM   20  C   UNL     1       7.706  32.798  61.463  1.00  0.00     0.002 A 
HETATM   21  C   UNL     1       8.349  32.427  60.279  1.00  0.00     0.029 A 
ENDBRANCH  12  16
ENDBRANCH   1  10
BRANCH   4  22
HETATM   22  C   UNL     1       7.638  26.967  54.135  1.00  0.00     0.338 C 
BRANCH  22  23
HETATM   23  C   UNL     1       7.448  25.815  53.146  1.00  0.00     0.243 C 
HETATM   24  N   UNL     1       7.937  24.604  53.540  1.00  0.00    -0.354 N 
HETATM   25  H   UNL     1       8.421  24.472  54.423  1.00  0.00     0.162 HD
HETATM   26  O   UNL     1       6.915  26.031  52.058  1.00  0.00    -0.272 OA
BRANCH  24  27
HETATM   27  C   UNL     1       7.907  23.446  52.668  1.00  0.00     0.187 C 
BRANCH  27  28
HETATM   28  C   UNL     1       8.218  22.228  53.458  1.00  0.00     0.070 A 
HETATM   29  O   UNL     1       8.916  22.398  54.625  1.00  0.00    -0.325 OA
HETATM   30  C   UNL     1       9.095  21.164  55.164  1.00  0.00     0.142 A 
HETATM   31  C   UNL     1       8.521  20.203  54.365  1.00  0.00     0.027 A 
HETATM   32  C   UNL     1       7.955  20.888  53.264  1.00  0.00     0.036 A 
ENDBRANCH  27  28
ENDBRANCH  24  27
ENDBRANCH  22  23
ENDBRANCH   4  22
TORSDOF 6
ENDMDL
MODEL 2
REMARK VINA RESULT:      -9.1      2.384      9.554
REMARK  6 active torsions:
REMARK  status: ('A' for Active; 'I' for Inactive)
REMARK    1  A    between atoms: C_4  and  N_5 
REMARK       I    between atoms: N_5  and  C_6 
REMARK       I    between atoms: C_6  and  N_7 
REMARK    2  A    between atoms: N_7  and  C_8 
REMARK    3  A    between atoms: N_11  and  C_13 
REMARK    4  A    between atoms: C_13  and  C_14 
REMARK       I    between atoms: C_14  and  N_15 
REMARK    5  A    between atoms: N_15  and  C_16 
REMARK    6  A    between atoms: C_16  and  C_17 
ROOT
HETATM    1  C   UNL     1       7.737  26.823  56.816  1.00  0.00     0.090 C 
HETATM    2  C   UNL     1       6.335  26.974  57.430  1.00  0.00     0.058 C 
HETATM    3  C   UNL     1       5.744  28.388  57.387  1.00  0.00     0.191 C 
HETATM    4  N   UNL     1       6.830  29.423  57.286  1.00  0.00    -0.054 N 
HETATM    5  H   UNL     1       6.336  30.337  57.304  1.00  0.00     0.281 HD
HETATM    6  C   UNL     1       7.341  29.221  55.891  1.00  0.00     0.191 C 
HETATM    7  C   UNL     1       8.117  27.909  55.789  1.00  0.00     0.058 C 
HETATM    8  C   UNL     1       4.985  28.631  56.077  1.00  0.00     0.035 C 
HETATM    9  C   UNL     1       6.031  29.163  55.097  1.00  0.00     0.035 C 
ENDROOT
BRANCH   1  10
HETATM   10  N   UNL     1       7.949  25.465  56.318  1.00  0.00    -0.338 N 
HETATM   11  C   UNL     1       8.493  24.512  57.135  1.00  0.00     0.321 C 
HETATM   12  N   UNL     1       8.511  23.230  56.693  1.00  0.00    -0.309 N 
HETATM   13  O   UNL     1       8.896  24.773  58.267  1.00  0.00    -0.247 OA
HETATM   14  H   UNL     1       8.755  22.594  57.444  1.00  0.00     0.170 HD
HETATM   15  H   UNL     1       7.198  25.065  55.767  1.00  0.00     0.164 HD
BRANCH  12  16
HETATM   16  C   UNL     1       8.289  22.633  55.437  1.00  0.00     0.036 A 
HETATM   17  C   UNL     1       8.255  23.323  54.224  1.00  0.00     0.029 A 
HETATM   18  C   UNL     1       8.028  22.635  53.026  1.00  0.00     0.002 A 
HETATM   19  C   UNL     1       7.848  21.253  53.030  1.00  0.00     0.000 A 
HETATM   20  C   UNL     1       7.911  20.553  54.230  1.00  0.00     0.002 A 
HETATM   21  C   UNL     1       8.137  21.240  55.426  1.00  0.00     0.029 A 
ENDBRANCH  12  16
ENDBRANCH   1  10
BRANCH   4  22
HETATM   22  C   UNL     1       7.807  29.594  58.434  1.00  0.00     0.338 C 
BRANCH  22  23
HETATM   23  C   UNL     1       7.685  31.008  59.006  1.00  0.00     0.243 C 
HETATM   24  N   UNL     1       6.581  31.249  59.770  1.00  0.00    -0.354 N 
HETATM   25  H   UNL     1       5.866  30.547  59.933  1.00  0.00     0.162 HD
HETATM   26  O   UNL     1       8.541  31.849  58.732  1.00  0.00    -0.272 OA
BRANCH  24  27
HETATM   27  C   UNL     1       6.292  32.567  60.302  1.00  0.00     0.187 C 
BRANCH  27  28
HETATM   28  C   UNL     1       6.747  32.637  61.714  1.00  0.00     0.070 A 
HETATM   29  O   UNL     1       5.792  32.852  62.672  1.00  0.00    -0.325 OA
HETATM   30  C   UNL     1       6.431  32.890  63.869  1.00  0.00     0.142 A 
HETATM   31  C   UNL     1       7.782  32.702  63.698  1.00  0.00     0.027 A 
HETATM   32  C   UNL     1       7.988  32.538  62.308  1.00  0.00     0.036 A 
ENDBRANCH  27  28
ENDBRANCH  24  27
ENDBRANCH  22  23
ENDBRANCH   4  22
TORSDOF 6
ENDMDL
MODEL 3
REMARK VINA RESULT:      -8.9      2.067      8.736
REMARK  6 active torsions:
REMARK  status: ('A' for Active; 'I' for Inactive)
REMARK    1  A    between atoms: C_4  and  N_5 
REMARK       I    between atoms: N_5  and  C_6 
REMARK       I    between atoms: C_6  and  N_7 
REMARK    2  A    between atoms: N_7  and  C_8 
REMARK    3  A    between atoms: N_11  and  C_13 
REMARK    4  A    between atoms: C_13  and  C_14 
REMARK       I    between atoms: C_14  and  N_15 
REMARK    5  A    between atoms: N_15  and  C_16 
REMARK    6  A    between atoms: C_16  and  C_17 
ROOT
HETATM    1  C   UNL     1       6.861  26.296  56.296  1.00  0.00     0.090 C 
HETATM    2  C   UNL     1       5.338  26.276  56.084  1.00  0.00     0.058 C 
HETATM    3  C   UNL     1       4.712  27.612  55.666  1.00  0.00     0.191 C 
HETATM    4  N   UNL     1       5.577  28.767  56.089  1.00  0.00    -0.054 N 
HETATM    5  H   UNL     1       5.053  29.617  55.800  1.00  0.00     0.281 HD
HETATM    6  C   UNL     1       6.758  28.640  55.175  1.00  0.00     0.191 C 
HETATM    7  C   UNL     1       7.606  27.428  55.559  1.00  0.00     0.058 C 
HETATM    8  C   UNL     1       4.727  27.778  54.142  1.00  0.00     0.035 C 
HETATM    9  C   UNL     1       6.069  28.437  53.821  1.00  0.00     0.035 C 
ENDROOT
BRANCH   1  10
HETATM   10  N   UNL     1       7.442  24.977  56.053  1.00  0.00    -0.338 N 
HETATM   11  C   UNL     1       8.292  24.422  56.970  1.00  0.00     0.321 C 
HETATM   12  N   UNL     1       8.668  23.131  56.789  1.00  0.00    -0.309 N 
HETATM   13  O   UNL     1       8.660  25.029  57.973  1.00  0.00    -0.247 OA
HETATM   14  H   UNL     1       9.133  22.773  57.616  1.00  0.00     0.170 HD
HETATM   15  H   UNL     1       6.817  24.269  55.683  1.00  0.00     0.164 HD
BRANCH  12  16
HETATM   16  C   UNL     1       8.566  22.232  55.711  1.00  0.00     0.036 A 
HETATM   17  C   UNL     1       8.511  20.843  55.836  1.00  0.00     0.029 A 
HETATM   18  C   UNL     1       8.408  20.034  54.698  1.00  0.00     0.002 A 
HETATM   19  C   UNL     1       8.344  20.607  53.430  1.00  0.00     0.000 A 
HETATM   20  C   UNL     1       8.368  21.991  53.296  1.00  0.00     0.002 A 
HETATM   21  C   UNL     1       8.472  22.798  54.432  1.00  0.00     0.029 A 
ENDBRANCH  12  16
ENDBRANCH   1  10
BRANCH   4  22
HETATM   22  C   UNL     1       5.787  29.040  57.567  1.00  0.00     0.338 C 
BRANCH  22  23
HETATM   23  C   UNL     1       6.746  30.220  57.740  1.00  0.00     0.243 C 
HETATM   24  N   UNL     1       7.998  29.910  58.186  1.00  0.00    -0.354 N 
HETATM   25  H   UNL     1       8.277  28.961  58.414  1.00  0.00     0.162 HD
HETATM   26  O   UNL     1       6.350  31.363  57.514  1.00  0.00    -0.272 OA
BRANCH  24  27
HETATM   27  C   UNL     1       8.981  30.935  58.480  1.00  0.00     0.187 C 
BRANCH  27  28
HETATM   28  C   UNL     1       8.996  31.196  59.942  1.00  0.00     0.070 A 
HETATM   29  O   UNL     1       9.071  30.109  60.772  1.00  0.00    -0.325 OA
HETATM   30  C   UNL     1       9.058  30.581  62.046  1.00  0.00     0.142 A 
HETATM   31  C   UNL     1       8.978  31.953  62.049  1.00  0.00     0.027 A 
HETATM   32  C   UNL     1       8.938  32.352  60.691  1.00  0.00     0.036 A 
ENDBRANCH  27  28
ENDBRANCH  24  27
ENDBRANCH  22  23
ENDBRANCH   4  22
TORSDOF 6
ENDMDL
MODEL 4
REMARK VINA RESULT:      -8.6      2.095      9.184
REMARK  6 active torsions:
REMARK  status: ('A' for Active; 'I' for Inactive)
REMARK    1  A    between atoms: C_4  and  N_5 
REMARK       I    between atoms: N_5  and  C_6 
REMARK       I    between atoms: C_6  and  N_7 
REMARK    2  A    between atoms: N_7  and  C_8 
REMARK    3  A    between atoms: N_11  and  C_13 
REMARK    4  A    between atoms: C_13  and  C_14 
REMARK       I    between atoms: C_14  and  N_15 
REMARK    5  A    between atoms: N_15  and  C_16 
REMARK    6  A    between atoms: C_16  and  C_17 
ROOT
HETATM    1  C   UNL     1       6.713  26.939  55.953  1.00  0.00     0.090 C 
HETATM    2  C   UNL     1       7.230  27.990  54.958  1.00  0.00     0.058 C 
HETATM    3  C   UNL     1       7.703  29.311  55.578  1.00  0.00     0.191 C 
HETATM    4  N   UNL     1       7.061  29.537  56.917  1.00  0.00    -0.054 N 
HETATM    5  H   UNL     1       7.410  30.464  57.232  1.00  0.00     0.281 HD
HETATM    6  C   UNL     1       7.721  28.499  57.773  1.00  0.00     0.191 C 
HETATM    7  C   UNL     1       7.230  27.102  57.397  1.00  0.00     0.058 C 
HETATM    8  C   UNL     1       9.184  29.238  55.971  1.00  0.00     0.035 C 
HETATM    9  C   UNL     1       9.195  28.696  57.401  1.00  0.00     0.035 C 
ENDROOT
BRANCH   1  10
HETATM   10  N   UNL     1       6.895  25.586  55.430  1.00  0.00    -0.338 N 
HETATM   11  C   UNL     1       6.117  25.140  54.397  1.00  0.00     0.321 C 
HETATM   12  N   UNL     1       6.434  23.949  53.831  1.00  0.00    -0.309 N 
HETATM   13  O   UNL     1       5.197  25.810  53.933  1.00  0.00    -0.247 OA
HETATM   14  H   UNL     1       5.920  23.813  52.967  1.00  0.00     0.170 HD
HETATM   15  H   UNL     1       7.852  25.275  55.306  1.00  0.00     0.164 HD
BRANCH  12  16
HETATM   16  C   UNL     1       7.287  22.893  54.203  1.00  0.00     0.036 A 
HETATM   17  C   UNL     1       7.531  22.494  55.519  1.00  0.00     0.029 A 
HETATM   18  C   UNL     1       8.397  21.428  55.786  1.00  0.00     0.002 A 
HETATM   19  C   UNL     1       9.014  20.743  54.741  1.00  0.00     0.000 A 
HETATM   20  C   UNL     1       8.753  21.112  53.425  1.00  0.00     0.002 A 
HETATM   21  C   UNL     1       7.889  22.178  53.159  1.00  0.00     0.029 A 
ENDBRANCH  12  16
ENDBRANCH   1  10
BRANCH   4  22
HETATM   22  C   UNL     1       5.560  29.745  57.000  1.00  0.00     0.338 C 
BRANCH  22  23
HETATM   23  C   UNL     1       5.248  30.843  58.019  1.00  0.00     0.243 C 
HETATM   24  N   UNL     1       6.325  31.510  58.526  1.00  0.00    -0.354 N 
HETATM   25  H   UNL     1       7.280  31.281  58.267  1.00  0.00     0.162 HD
HETATM   26  O   UNL     1       4.082  31.046  58.354  1.00  0.00    -0.272 OA
BRANCH  24  27
HETATM   27  C   UNL     1       6.185  32.512  59.564  1.00  0.00     0.187 C 
BRANCH  27  28
HETATM   28  C   UNL     1       7.129  32.210  60.669  1.00  0.00     0.070 A 
HETATM   29  O   UNL     1       7.963  31.135  60.506  1.00  0.00    -0.325 OA
HETATM   30  C   UNL     1       8.718  31.044  61.631  1.00  0.00     0.142 A 
HETATM   31  C   UNL     1       8.386  32.043  62.515  1.00  0.00     0.027 A 
HETATM   32  C   UNL     1       7.361  32.797  61.895  1.00  0.00     0.036 A 
ENDBRANCH  27  28
ENDBRANCH  24  27
ENDBRANCH  22  23
ENDBRANCH   4  22
TORSDOF 6
ENDMDL
MODEL 5
REMARK VINA RESULT:      -8.3      4.066      9.517
REMARK  6 active torsions:
REMARK  status: ('A' for Active; 'I' for Inactive)
REMARK    1  A    between atoms: C_4  and  N_5 
REMARK       I    between atoms: N_5  and  C_6 
REMARK       I    between atoms: C_6  and  N_7 
REMARK    2  A    between atoms: N_7  and  C_8 
REMARK    3  A    between atoms: N_11  and  C_13 
REMARK    4  A    between atoms: C_13  and  C_14 
REMARK       I    between atoms: C_14  and  N_15 
REMARK    5  A    between atoms: N_15  and  C_16 
REMARK    6  A    between atoms: C_16  and  C_17 
ROOT
HETATM    1  C   UNL     1       5.229  26.623  52.898  1.00  0.00     0.090 C 
HETATM    2  C   UNL     1       6.723  26.943  52.734  1.00  0.00     0.058 C 
HETATM    3  C   UNL     1       7.682  26.054  53.535  1.00  0.00     0.191 C 
HETATM    4  N   UNL     1       6.987  25.445  54.721  1.00  0.00    -0.054 N 
HETATM    5  H   UNL     1       7.722  24.900  55.215  1.00  0.00     0.281 HD
HETATM    6  C   UNL     1       6.057  24.460  54.082  1.00  0.00     0.191 C 
HETATM    7  C   UNL     1       4.920  25.185  53.362  1.00  0.00     0.058 C 
HETATM    8  C   UNL     1       8.063  24.798  52.743  1.00  0.00     0.035 C 
HETATM    9  C   UNL     1       6.994  23.761  53.091  1.00  0.00     0.035 C 
ENDROOT
BRANCH   1  10
HETATM   10  N   UNL     1       4.474  27.015  51.710  1.00  0.00    -0.338 N 
HETATM   11  C   UNL     1       4.043  28.306  51.566  1.00  0.00     0.321 C 
HETATM   12  N   UNL     1       3.501  28.666  50.375  1.00  0.00    -0.309 N 
HETATM   13  O   UNL     1       4.195  29.149  52.447  1.00  0.00    -0.247 OA
HETATM   14  H   UNL     1       3.398  29.673  50.317  1.00  0.00     0.170 HD
HETATM   15  H   UNL     1       4.811  26.658  50.823  1.00  0.00     0.164 HD
BRANCH  12  16
HETATM   16  C   UNL     1       3.049  27.942  49.256  1.00  0.00     0.036 A 
HETATM   17  C   UNL     1       3.853  27.127  48.458  1.00  0.00     0.029 A 
HETATM   18  C   UNL     1       3.305  26.446  47.364  1.00  0.00     0.002 A 
HETATM   19  C   UNL     1       1.948  26.563  47.069  1.00  0.00     0.000 A 
HETATM   20  C   UNL     1       1.132  27.348  47.877  1.00  0.00     0.002 A 
HETATM   21  C   UNL     1       1.680  28.029  48.968  1.00  0.00     0.029 A 
ENDBRANCH  12  16
ENDBRANCH   1  10
BRANCH   4  22
HETATM   22  C   UNL     1       6.489  26.345  55.837  1.00  0.00     0.338 C 
BRANCH  22  23
HETATM   23  C   UNL     1       7.679  26.875  56.641  1.00  0.00     0.243 C 
HETATM   24  N   UNL     1       8.049  28.162  56.380  1.00  0.00    -0.354 N 
HETATM   25  H   UNL     1       7.585  28.732  55.679  1.00  0.00     0.162 HD
HETATM   26  O   UNL     1       8.255  26.131  57.434  1.00  0.00    -0.272 OA
BRANCH  24  27
HETATM   27  C   UNL     1       9.212  28.764  57.002  1.00  0.00     0.187 C 
BRANCH  27  28
HETATM   28  C   UNL     1       8.770  29.786  57.984  1.00  0.00     0.070 A 
HETATM   29  O   UNL     1       9.746  30.474  58.656  1.00  0.00    -0.325 OA
HETATM   30  C   UNL     1       9.116  31.334  59.498  1.00  0.00     0.142 A 
HETATM   31  C   UNL     1       7.753  31.213  59.377  1.00  0.00     0.027 A 
HETATM   32  C   UNL     1       7.527  30.215  58.400  1.00  0.00     0.036 A 
ENDBRANCH  27  28
ENDBRANCH  24  27
ENDBRANCH  22  23
ENDBRANCH   4  22
TORSDOF 6
ENDMDL
MODEL 6
REMARK VINA RESULT:      -8.1      3.007      7.301
REMARK  6 active torsions:
REMARK  status: ('A' for Active; 'I' for Inactive)
REMARK    1  A    between atoms: C_4  and  N_5 
REMARK       I    between atoms: N_5  and  C_6 
REMARK       I    between atoms: C_6  and  N_7 
REMARK    2  A    between atoms: N_7  and  C_8 
REMARK    3  A    between atoms: N_11  and  C_13 
REMARK    4  A    between atoms: C_13  and  C_14 
REMARK       I    between atoms: C_14  and  N_15 
REMARK    5  A    between atoms: N_15  and  C_16 
REMARK    6  A    between atoms: C_16  and  C_17 
ROOT
HETATM    1  C   UNL     1       7.022  26.511  56.353  1.00  0.00     0.090 C 
HETATM    2  C   UNL     1       7.365  27.450  55.186  1.00  0.00     0.058 C 
HETATM    3  C   UNL     1       7.515  28.931  55.551  1.00  0.00     0.191 C 
HETATM    4  N   UNL     1       6.762  29.254  56.812  1.00  0.00    -0.054 N 
HETATM    5  H   UNL     1       6.890  30.276  56.951  1.00  0.00     0.281 HD
HETATM    6  C   UNL     1       7.573  28.556  57.861  1.00  0.00     0.191 C 
HETATM    7  C   UNL     1       7.407  27.041  57.749  1.00  0.00     0.058 C 
HETATM    8  C   UNL     1       8.952  29.254  55.978  1.00  0.00     0.035 C 
HETATM    9  C   UNL     1       8.992  28.996  57.485  1.00  0.00     0.035 C 
ENDROOT
BRANCH   1  10
HETATM   10  N   UNL     1       7.513  25.157  56.101  1.00  0.00    -0.338 N 
HETATM   11  C   UNL     1       8.335  24.546  57.008  1.00  0.00     0.321 C 
HETATM   12  N   UNL     1       8.624  23.234  56.820  1.00  0.00    -0.309 N 
HETATM   13  O   UNL     1       8.754  25.126  58.006  1.00  0.00    -0.247 OA
HETATM   14  H   UNL     1       9.074  22.844  57.641  1.00  0.00     0.170 HD
HETATM   15  H   UNL     1       6.838  24.493  55.738  1.00  0.00     0.164 HD
BRANCH  12  16
HETATM   16  C   UNL     1       8.451  22.346  55.741  1.00  0.00     0.036 A 
HETATM   17  C   UNL     1       8.177  20.983  55.870  1.00  0.00     0.029 A 
HETATM   18  C   UNL     1       8.020  20.183  54.731  1.00  0.00     0.002 A 
HETATM   19  C   UNL     1       8.120  20.742  53.459  1.00  0.00     0.000 A 
HETATM   20  C   UNL     1       8.362  22.104  53.321  1.00  0.00     0.002 A 
HETATM   21  C   UNL     1       8.520  22.902  54.457  1.00  0.00     0.029 A 
ENDBRANCH  12  16
ENDBRANCH   1  10
BRANCH   4  22
HETATM   22  C   UNL     1       5.248  29.144  56.825  1.00  0.00     0.338 C 
BRANCH  22  23
HETATM   23  C   UNL     1       4.709  29.284  55.400  1.00  0.00     0.243 C 
HETATM   24  N   UNL     1       4.187  28.152  54.846  1.00  0.00    -0.354 N 
HETATM   25  H   UNL     1       4.175  27.261  55.333  1.00  0.00     0.162 HD
HETATM   26  O   UNL     1       4.801  30.366  54.821  1.00  0.00    -0.272 OA
BRANCH  24  27
HETATM   27  C   UNL     1       3.722  28.117  53.473  1.00  0.00     0.187 C 
BRANCH  27  28
HETATM   28  C   UNL     1       4.419  27.026  52.746  1.00  0.00     0.070 A 
HETATM   29  O   UNL     1       4.761  27.260  51.441  1.00  0.00    -0.325 OA
HETATM   30  C   UNL     1       5.367  26.134  50.981  1.00  0.00     0.142 A 
HETATM   31  C   UNL     1       5.423  25.181  51.970  1.00  0.00     0.027 A 
HETATM   32  C   UNL     1       4.811  25.755  53.110  1.00  0.00     0.036 A 
ENDBRANCH  27  28
ENDBRANCH  24  27
ENDBRANCH  22  23
ENDBRANCH   4  22
TORSDOF 6
ENDMDL
MODEL 7
REMARK VINA RESULT:      -8.0      3.741      9.672
REMARK  6 active torsions:
REMARK  status: ('A' for Active; 'I' for Inactive)
REMARK    1  A    between atoms: C_4  and  N_5 
REMARK       I    between atoms: N_5  and  C_6 
REMARK       I    between atoms: C_6  and  N_7 
REMARK    2  A    between atoms: N_7  and  C_8 
REMARK    3  A    between atoms: N_11  and  C_13 
REMARK    4  A    between atoms: C_13  and  C_14 
REMARK       I    between atoms: C_14  and  N_15 
REMARK    5  A    between atoms: N_15  and  C_16 
REMARK    6  A    between atoms: C_16  and  C_17 
ROOT
HETATM    1  C   UNL     1       5.622  28.246  53.101  1.00  0.00     0.090 C 
HETATM    2  C   UNL     1       7.016  27.606  53.208  1.00  0.00     0.058 C 
HETATM    3  C   UNL     1       7.403  27.093  54.600  1.00  0.00     0.191 C 
HETATM    4  N   UNL     1       6.622  27.801  55.671  1.00  0.00    -0.054 N 
HETATM    5  H   UNL     1       6.981  27.417  56.568  1.00  0.00     0.281 HD
HETATM    6  C   UNL     1       5.239  27.259  55.477  1.00  0.00     0.191 C 
HETATM    7  C   UNL     1       4.622  27.810  54.192  1.00  0.00     0.058 C 
HETATM    8  C   UNL     1       6.937  25.646  54.806  1.00  0.00     0.035 C 
HETATM    9  C   UNL     1       5.518  25.756  55.367  1.00  0.00     0.035 C 
ENDROOT
BRANCH   1  10
HETATM   10  N   UNL     1       5.086  28.114  51.748  1.00  0.00    -0.338 N 
HETATM   11  C   UNL     1       5.364  29.066  50.805  1.00  0.00     0.321 C 
HETATM   12  N   UNL     1       4.994  28.818  49.523  1.00  0.00    -0.309 N 
HETATM   13  O   UNL     1       5.990  30.089  51.072  1.00  0.00    -0.247 OA
HETATM   14  H   UNL     1       5.414  29.490  48.892  1.00  0.00     0.170 HD
HETATM   15  H   UNL     1       5.127  27.190  51.334  1.00  0.00     0.164 HD
BRANCH  12  16
HETATM   16  C   UNL     1       4.153  27.861  48.923  1.00  0.00     0.036 A 
HETATM   17  C   UNL     1       4.580  26.627  48.428  1.00  0.00     0.029 A 
HETATM   18  C   UNL     1       3.662  25.743  47.849  1.00  0.00     0.002 A 
HETATM   19  C   UNL     1       2.311  26.078  47.774  1.00  0.00     0.000 A 
HETATM   20  C   UNL     1       1.872  27.291  48.293  1.00  0.00     0.002 A 
HETATM   21  C   UNL     1       2.789  28.175  48.870  1.00  0.00     0.029 A 
ENDBRANCH  12  16
ENDBRANCH   1  10
BRANCH   4  22
HETATM   22  C   UNL     1       6.830  29.289  55.886  1.00  0.00     0.338 C 
BRANCH  22  23
HETATM   23  C   UNL     1       8.221  29.534  56.475  1.00  0.00     0.243 C 
HETATM   24  N   UNL     1       8.252  29.984  57.763  1.00  0.00    -0.354 N 
HETATM   25  H   UNL     1       7.409  30.171  58.296  1.00  0.00     0.162 HD
HETATM   26  O   UNL     1       9.217  29.357  55.774  1.00  0.00    -0.272 OA
BRANCH  24  27
HETATM   27  C   UNL     1       9.495  30.343  58.418  1.00  0.00     0.187 C 
BRANCH  27  28
HETATM   28  C   UNL     1       9.198  30.915  59.756  1.00  0.00     0.070 A 
HETATM   29  O   UNL     1       9.149  30.046  60.813  1.00  0.00    -0.325 OA
HETATM   30  C   UNL     1       8.854  30.780  61.917  1.00  0.00     0.142 A 
HETATM   31  C   UNL     1       8.714  32.107  61.588  1.00  0.00     0.027 A 
HETATM   32  C   UNL     1       8.935  32.196  60.193  1.00  0.00     0.036 A 
ENDBRANCH  27  28
ENDBRANCH  24  27
ENDBRANCH  22  23
ENDBRANCH   4  22
TORSDOF 6
ENDMDL
MODEL 8
REMARK VINA RESULT:      -8.0      5.893     12.492
REMARK  6 active torsions:
REMARK  status: ('A' for Active; 'I' for Inactive)
REMARK    1  A    between atoms: C_4  and  N_5 
REMARK       I    between atoms: N_5  and  C_6 
REMARK       I    between atoms: C_6  and  N_7 
REMARK    2  A    between atoms: N_7  and  C_8 
REMARK    3  A    between atoms: N_11  and  C_13 
REMARK    4  A    between atoms: C_13  and  C_14 
REMARK       I    between atoms: C_14  and  N_15 
REMARK    5  A    between atoms: N_15  and  C_16 
REMARK    6  A    between atoms: C_16  and  C_17 
ROOT
HETATM    1  C   UNL     1       6.349  32.214  61.846  1.00  0.00     0.090 C 
HETATM    2  C   UNL     1       4.825  32.016  61.886  1.00  0.00     0.058 C 
HETATM    3  C   UNL     1       4.027  33.160  62.523  1.00  0.00     0.191 C 
HETATM    4  N   UNL     1       4.886  33.956  63.466  1.00  0.00    -0.054 N 
HETATM    5  H   UNL     1       4.251  34.673  63.871  1.00  0.00     0.281 HD
HETATM    6  C   UNL     1       5.820  34.665  62.534  1.00  0.00     0.191 C 
HETATM    7  C   UNL     1       6.817  33.681  61.921  1.00  0.00     0.058 C 
HETATM    8  C   UNL     1       3.666  34.229  61.483  1.00  0.00     0.035 C 
HETATM    9  C   UNL     1       4.844  35.204  61.482  1.00  0.00     0.035 C 
ENDROOT
BRANCH   1  10
HETATM   10  N   UNL     1       6.945  31.481  60.731  1.00  0.00    -0.338 N 
HETATM   11  C   UNL     1       8.161  30.872  60.881  1.00  0.00     0.321 C 
HETATM   12  N   UNL     1       8.594  30.060  59.884  1.00  0.00    -0.309 N 
HETATM   13  O   UNL     1       8.826  30.984  61.908  1.00  0.00    -0.247 OA
HETATM   14  H   UNL     1       9.400  29.522  60.183  1.00  0.00     0.170 HD
HETATM   15  H   UNL     1       6.321  30.886  60.197  1.00  0.00     0.164 HD
BRANCH  12  16
HETATM   16  C   UNL     1       8.175  29.844  58.558  1.00  0.00     0.036 A 
HETATM   17  C   UNL     1       6.857  29.957  58.112  1.00  0.00     0.029 A 
HETATM   18  C   UNL     1       6.543  29.722  56.768  1.00  0.00     0.002 A 
HETATM   19  C   UNL     1       7.544  29.388  55.858  1.00  0.00     0.000 A 
HETATM   20  C   UNL     1       8.865  29.304  56.286  1.00  0.00     0.002 A 
HETATM   21  C   UNL     1       9.178  29.538  57.628  1.00  0.00     0.029 A 
ENDBRANCH  12  16
ENDBRANCH   1  10
BRANCH   4  22
HETATM   22  C   UNL     1       5.423  33.296  64.722  1.00  0.00     0.338 C 
BRANCH  22  23
HETATM   23  C   UNL     1       4.814  33.965  65.956  1.00  0.00     0.243 C 
HETATM   24  N   UNL     1       5.548  33.882  67.103  1.00  0.00    -0.354 N 
HETATM   25  H   UNL     1       6.433  33.388  67.150  1.00  0.00     0.162 HD
HETATM   26  O   UNL     1       3.708  34.499  65.873  1.00  0.00    -0.272 OA
BRANCH  24  27
HETATM   27  C   UNL     1       5.053  34.393  68.366  1.00  0.00     0.187 C 
BRANCH  27  28
HETATM   28  C   UNL     1       6.202  34.756  69.234  1.00  0.00     0.070 A 
HETATM   29  O   UNL     1       5.933  35.038  70.547  1.00  0.00    -0.325 OA
HETATM   30  C   UNL     1       7.116  35.351  71.136  1.00  0.00     0.142 A 
HETATM   31  C   UNL     1       8.142  35.274  70.225  1.00  0.00     0.027 A 
HETATM   32  C   UNL     1       7.554  34.890  68.996  1.00  0.00     0.036 A 
ENDBRANCH  27  28
ENDBRANCH  24  27
ENDBRANCH  22  23
ENDBRANCH   4  22
TORSDOF 6
ENDMDL
MODEL 9
REMARK VINA RESULT:      -7.9      3.693      7.765
REMARK  6 active torsions:
REMARK  status: ('A' for Active; 'I' for Inactive)
REMARK    1  A    between atoms: C_4  and  N_5 
REMARK       I    between atoms: N_5  and  C_6 
REMARK       I    between atoms: C_6  and  N_7 
REMARK    2  A    between atoms: N_7  and  C_8 
REMARK    3  A    between atoms: N_11  and  C_13 
REMARK    4  A    between atoms: C_13  and  C_14 
REMARK       I    between atoms: C_14  and  N_15 
REMARK    5  A    between atoms: N_15  and  C_16 
REMARK    6  A    between atoms: C_16  and  C_17 
ROOT
HETATM    1  C   UNL     1       6.066  26.001  55.089  1.00  0.00     0.090 C 
HETATM    2  C   UNL     1       6.834  27.102  54.340  1.00  0.00     0.058 C 
HETATM    3  C   UNL     1       6.350  28.535  54.593  1.00  0.00     0.191 C 
HETATM    4  N   UNL     1       4.916  28.546  55.045  1.00  0.00    -0.054 N 
HETATM    5  H   UNL     1       4.673  29.551  55.150  1.00  0.00     0.281 HD
HETATM    6  C   UNL     1       5.007  27.965  56.424  1.00  0.00     0.191 C 
HETATM    7  C   UNL     1       5.326  26.472  56.357  1.00  0.00     0.058 C 
HETATM    8  C   UNL     1       7.047  29.148  55.814  1.00  0.00     0.035 C 
HETATM    9  C   UNL     1       6.176  28.765  57.011  1.00  0.00     0.035 C 
ENDROOT
BRANCH   1  10
HETATM   10  N   UNL     1       6.915  24.834  55.323  1.00  0.00    -0.338 N 
HETATM   11  C   UNL     1       7.926  24.895  56.242  1.00  0.00     0.321 C 
HETATM   12  N   UNL     1       8.573  23.743  56.552  1.00  0.00    -0.309 N 
HETATM   13  O   UNL     1       8.211  25.933  56.835  1.00  0.00    -0.247 OA
HETATM   14  H   UNL     1       9.159  23.870  57.370  1.00  0.00     0.170 HD
HETATM   15  H   UNL     1       6.444  23.938  55.380  1.00  0.00     0.164 HD
BRANCH  12  16
HETATM   16  C   UNL     1       8.608  22.462  55.970  1.00  0.00     0.036 A 
HETATM   17  C   UNL     1       8.344  21.272  56.651  1.00  0.00     0.029 A 
HETATM   18  C   UNL     1       8.404  20.045  55.979  1.00  0.00     0.002 A 
HETATM   19  C   UNL     1       8.713  20.000  54.621  1.00  0.00     0.000 A 
HETATM   20  C   UNL     1       8.947  21.183  53.927  1.00  0.00     0.002 A 
HETATM   21  C   UNL     1       8.888  22.407  54.598  1.00  0.00     0.029 A 
ENDBRANCH  12  16
ENDBRANCH   1  10
BRANCH   4  22
HETATM   22  C   UNL     1       3.830  28.078  54.095  1.00  0.00     0.338 C 
BRANCH  22  23
HETATM   23  C   UNL     1       3.956  28.820  52.763  1.00  0.00     0.243 C 
HETATM   24  N   UNL     1       4.052  28.037  51.650  1.00  0.00    -0.354 N 
HETATM   25  H   UNL     1       4.064  27.022  51.696  1.00  0.00     0.162 HD
HETATM   26  O   UNL     1       4.003  30.050  52.756  1.00  0.00    -0.272 OA
BRANCH  24  27
HETATM   27  C   UNL     1       4.265  28.603  50.333  1.00  0.00     0.187 C 
BRANCH  27  28
HETATM   28  C   UNL     1       3.894  27.600  49.301  1.00  0.00     0.070 A 
HETATM   29  O   UNL     1       3.044  28.008  48.307  1.00  0.00    -0.325 OA
HETATM   30  C   UNL     1       2.838  26.937  47.498  1.00  0.00     0.142 A 
HETATM   31  C   UNL     1       3.542  25.848  47.953  1.00  0.00     0.027 A 
HETATM   32  C   UNL     1       4.225  26.274  49.117  1.00  0.00     0.036 A 
ENDBRANCH  27  28
ENDBRANCH  24  27
ENDBRANCH  22  23
ENDBRANCH   4  22
TORSDOF 6
ENDMDL
MODEL 10
REMARK VINA RESULT:      -7.9      3.249      4.725
REMARK  6 active torsions:
REMARK  status: ('A' for Active; 'I' for Inactive)
REMARK    1  A    between atoms: C_4  and  N_5 
REMARK       I    between atoms: N_5  and  C_6 
REMARK       I    between atoms: C_6  and  N_7 
REMARK    2  A    between atoms: N_7  and  C_8 
REMARK    3  A    between atoms: N_11  and  C_13 
REMARK    4  A    between atoms: C_13  and  C_14 
REMARK       I    between atoms: C_14  and  N_15 
REMARK    5  A    between atoms: N_15  and  C_16 
REMARK    6  A    between atoms: C_16  and  C_17 
ROOT
HETATM    1  C   UNL     1       6.162  29.234  56.666  1.00  0.00     0.090 C 
HETATM    2  C   UNL     1       5.225  28.154  57.231  1.00  0.00     0.058 C 
HETATM    3  C   UNL     1       5.199  26.831  56.456  1.00  0.00     0.191 C 
HETATM    4  N   UNL     1       5.630  27.033  55.030  1.00  0.00    -0.054 N 
HETATM    5  H   UNL     1       5.541  26.099  54.584  1.00  0.00     0.281 HD
HETATM    6  C   UNL     1       7.094  27.321  55.171  1.00  0.00     0.191 C 
HETATM    7  C   UNL     1       7.313  28.702  55.787  1.00  0.00     0.058 C 
HETATM    8  C   UNL     1       6.288  25.874  56.957  1.00  0.00     0.035 C 
HETATM    9  C   UNL     1       7.529  26.204  56.126  1.00  0.00     0.035 C 
ENDROOT
BRANCH   1  10
HETATM   10  N   UNL     1       6.618  30.138  57.720  1.00  0.00    -0.338 N 
HETATM   11  C   UNL     1       6.093  31.397  57.819  1.00  0.00     0.321 C 
HETATM   12  N   UNL     1       6.414  32.136  58.910  1.00  0.00    -0.309 N 
HETATM   13  O   UNL     1       5.297  31.841  56.995  1.00  0.00    -0.247 OA
HETATM   14  H   UNL     1       5.826  32.960  58.973  1.00  0.00     0.170 HD
HETATM   15  H   UNL     1       6.732  29.733  58.643  1.00  0.00     0.164 HD
BRANCH  12  16
HETATM   16  C   UNL     1       7.384  32.002  59.922  1.00  0.00     0.036 A 
HETATM   17  C   UNL     1       7.102  31.733  61.263  1.00  0.00     0.029 A 
HETATM   18  C   UNL     1       8.140  31.617  62.194  1.00  0.00     0.002 A 
HETATM   19  C   UNL     1       9.467  31.754  61.791  1.00  0.00     0.000 A 
HETATM   20  C   UNL     1       9.760  31.992  60.452  1.00  0.00     0.002 A 
HETATM   21  C   UNL     1       8.723  32.109  59.523  1.00  0.00     0.029 A 
ENDBRANCH  12  16
ENDBRANCH   1  10
BRANCH   4  22
HETATM   22  C   UNL     1       4.776  27.882  54.106  1.00  0.00     0.338 C 
BRANCH  22  23
HETATM   23  C   UNL     1       5.258  27.717  52.664  1.00  0.00     0.243 C 
HETATM   24  N   UNL     1       4.781  26.627  51.996  1.00  0.00    -0.354 N 
HETATM   25  H   UNL     1       4.163  25.948  52.430  1.00  0.00     0.162 HD
HETATM   26  O   UNL     1       6.058  28.526  52.195  1.00  0.00    -0.272 OA
BRANCH  24  27
HETATM   27  C   UNL     1       5.223  26.298  50.655  1.00  0.00     0.187 C 
BRANCH  27  28
HETATM   28  C   UNL     1       4.186  26.719  49.679  1.00  0.00     0.070 A 
HETATM   29  O   UNL     1       3.689  25.758  48.838  1.00  0.00    -0.325 OA
HETATM   30  C   UNL     1       2.776  26.366  48.036  1.00  0.00     0.142 A 
HETATM   31  C   UNL     1       2.675  27.701  48.350  1.00  0.00     0.027 A 
HETATM   32  C   UNL     1       3.584  27.930  49.409  1.00  0.00     0.036 A 
ENDBRANCH  27  28
ENDBRANCH  24  27
ENDBRANCH  22  23
ENDBRANCH   4  22
TORSDOF 6
ENDMDL
