MODEL 1
REMARK VINA RESULT:      -8.2      0.000      0.000
REMARK  9 active torsions:
REMARK  status: ('A' for Active; 'I' for Inactive)
REMARK    1  A    between atoms: C_2  and  C_3 
REMARK    2  A    between atoms: C_3  and  N_4 
REMARK    3  A    between atoms: C_7  and  C_8 
REMARK       I    between atoms: C_8  and  N_9 
REMARK    4  A    between atoms: N_9  and  C_10 
REMARK    5  A    between atoms: C_10  and  C_11 
REMARK    6  A    between atoms: C_13  and  O_14 
REMARK    7  A    between atoms: O_14  and  C_15 
REMARK    8  A    between atoms: C_15  and  C_16 
REMARK       I    between atoms: C_16  and  N_17 
REMARK    9  A    between atoms: C_23  and  C_24 
ROOT
HETATM    1  C   UNL     1       5.495  26.612  55.638  1.00  0.00     0.255 C 
HETATM    2  N   UNL     1       6.177  27.799  55.596  1.00  0.00    -0.353 N 
HETATM    3  O   UNL     1       4.420  26.585  56.233  1.00  0.00    -0.268 OA
HETATM    4  H   UNL     1       5.694  28.546  56.078  1.00  0.00     0.163 HD
ENDROOT
BRANCH   2   5
HETATM    5  C   UNL     1       7.447  28.125  54.978  1.00  0.00     0.161 C 
BRANCH   5   6
HETATM    6  C   UNL     1       8.397  28.818  55.928  1.00  0.00    -0.038 A 
HETATM    7  C   UNL     1       8.116  28.970  57.296  1.00  0.00     0.045 A 
HETATM    8  C   UNL     1       9.021  29.593  58.164  1.00  0.00     0.070 A 
HETATM    9  C   UNL     1      10.233  30.063  57.665  1.00  0.00     0.037 A 
HETATM   10  C   UNL     1      10.536  29.906  56.310  1.00  0.00     0.003 A 
HETATM   11  C   UNL     1       9.629  29.285  55.450  1.00  0.00     0.009 A 
BRANCH   8  12
HETATM   12  O   UNL     1       8.597  29.672  59.462  1.00  0.00    -0.342 OA
BRANCH  12  13
HETATM   13  C   UNL     1       8.481  30.976  60.027  1.00  0.00     0.278 C 
BRANCH  13  14
HETATM   14  C   UNL     1       9.082  31.018  61.431  1.00  0.00     0.239 C 
HETATM   15  N   UNL     1       8.872  29.917  62.207  1.00  0.00    -0.368 N 
HETATM   16  H   UNL     1       8.427  29.093  61.821  1.00  0.00     0.159 HD
HETATM   17  H   UNL     1       9.280  29.882  63.132  1.00  0.00     0.159 HD
HETATM   18  O   UNL     1       9.707  31.985  61.860  1.00  0.00    -0.271 OA
ENDBRANCH  13  14
ENDBRANCH  12  13
ENDBRANCH   8  12
ENDBRANCH   5   6
ENDBRANCH   2   5
BRANCH   1  19
HETATM   19  C   UNL     1       6.081  25.444  55.015  1.00  0.00     0.075 A 
HETATM   20  C   UNL     1       5.905  25.043  53.669  1.00  0.00     0.158 A 
HETATM   21  N   UNL     1       6.539  23.914  53.369  1.00  0.00    -0.183 NA
HETATM   22  N   UNL     1       7.192  23.600  54.506  1.00  0.00    -0.268 N 
HETATM   23  C   UNL     1       6.950  24.489  55.536  1.00  0.00     0.052 A 
BRANCH  22  24
HETATM   24  C   UNL     1       8.049  22.415  54.536  1.00  0.00     0.106 C 
HETATM   25  C   UNL     1       8.476  21.935  53.142  1.00  0.00     0.034 C 
BRANCH  24  26
HETATM   26  C   UNL     1       7.440  21.279  55.382  1.00  0.00     0.022 C 
HETATM   27  C   UNL     1       8.343  20.734  56.481  1.00  0.00     0.007 C 
ENDBRANCH  24  26
ENDBRANCH  22  24
BRANCH  23  28
HETATM   28  C   UNL     1       7.536  24.341  56.942  1.00  0.00     0.038 A 
HETATM   29  C   UNL     1       9.027  24.403  57.166  1.00  0.00     0.011 A 
HETATM   30  C   UNL     1       8.165  25.525  57.640  1.00  0.00     0.011 A 
ENDBRANCH  23  28
ENDBRANCH   1  19
TORSDOF 9
ENDMDL
MODEL 2
REMARK VINA RESULT:      -8.2      1.236      2.422
REMARK  9 active torsions:
REMARK  status: ('A' for Active; 'I' for Inactive)
REMARK    1  A    between atoms: C_2  and  C_3 
REMARK    2  A    between atoms: C_3  and  N_4 
REMARK    3  A    between atoms: C_7  and  C_8 
REMARK       I    between atoms: C_8  and  N_9 
REMARK    4  A    between atoms: N_9  and  C_10 
REMARK    5  A    between atoms: C_10  and  C_11 
REMARK    6  A    between atoms: C_13  and  O_14 
REMARK    7  A    between atoms: O_14  and  C_15 
REMARK    8  A    between atoms: C_15  and  C_16 
REMARK       I    between atoms: C_16  and  N_17 
REMARK    9  A    between atoms: C_23  and  C_24 
ROOT
HETATM    1  C   UNL     1       6.036  27.078  56.498  1.00  0.00     0.255 C 
HETATM    2  N   UNL     1       6.705  28.219  56.141  1.00  0.00    -0.353 N 
HETATM    3  O   UNL     1       4.864  27.183  56.851  1.00  0.00    -0.268 OA
HETATM    4  H   UNL     1       6.130  29.049  56.212  1.00  0.00     0.163 HD
ENDROOT
BRANCH   2   5
HETATM    5  C   UNL     1       8.071  28.399  55.691  1.00  0.00     0.161 C 
BRANCH   5   6
HETATM    6  C   UNL     1       8.858  29.338  56.577  1.00  0.00    -0.038 A 
HETATM    7  C   UNL     1       8.257  30.087  57.602  1.00  0.00     0.045 A 
HETATM    8  C   UNL     1       9.007  30.932  58.428  1.00  0.00     0.070 A 
HETATM    9  C   UNL     1      10.384  31.024  58.239  1.00  0.00     0.037 A 
HETATM   10  C   UNL     1      11.001  30.275  57.235  1.00  0.00     0.003 A 
HETATM   11  C   UNL     1      10.246  29.435  56.414  1.00  0.00     0.009 A 
BRANCH   8  12
HETATM   12  O   UNL     1       8.275  31.599  59.370  1.00  0.00    -0.342 OA
BRANCH  12  13
HETATM   13  C   UNL     1       8.926  31.901  60.602  1.00  0.00     0.278 C 
BRANCH  13  14
HETATM   14  C   UNL     1       8.672  30.805  61.637  1.00  0.00     0.239 C 
HETATM   15  N   UNL     1       7.444  30.816  62.232  1.00  0.00    -0.368 N 
HETATM   16  H   UNL     1       6.727  31.459  61.920  1.00  0.00     0.159 HD
HETATM   17  H   UNL     1       7.216  30.090  62.898  1.00  0.00     0.159 HD
HETATM   18  O   UNL     1       9.515  29.966  61.942  1.00  0.00    -0.271 OA
ENDBRANCH  13  14
ENDBRANCH  12  13
ENDBRANCH   8  12
ENDBRANCH   5   6
ENDBRANCH   2   5
BRANCH   1  19
HETATM   19  C   UNL     1       6.744  25.814  56.475  1.00  0.00     0.075 A 
HETATM   20  C   UNL     1       7.736  25.402  57.396  1.00  0.00     0.158 A 
HETATM   21  N   UNL     1       8.239  24.202  57.123  1.00  0.00    -0.183 NA
HETATM   22  N   UNL     1       7.530  23.791  56.053  1.00  0.00    -0.268 N 
HETATM   23  C   UNL     1       6.612  24.727  55.617  1.00  0.00     0.052 A 
BRANCH  22  24
HETATM   24  C   UNL     1       7.785  22.464  55.491  1.00  0.00     0.106 C 
HETATM   25  C   UNL     1       8.309  21.455  56.522  1.00  0.00     0.034 C 
BRANCH  24  26
HETATM   26  C   UNL     1       8.674  22.527  54.233  1.00  0.00     0.022 C 
HETATM   27  C   UNL     1       8.208  21.666  53.067  1.00  0.00     0.007 C 
ENDBRANCH  24  26
ENDBRANCH  22  24
BRANCH  23  28
HETATM   28  C   UNL     1       5.709  24.527  54.397  1.00  0.00     0.038 A 
HETATM   29  C   UNL     1       5.191  25.711  53.618  1.00  0.00     0.011 A 
HETATM   30  C   UNL     1       6.220  24.821  53.006  1.00  0.00     0.011 A 
ENDBRANCH  23  28
ENDBRANCH   1  19
TORSDOF 9
ENDMDL
MODEL 3
REMARK VINA RESULT:      -8.1      1.260      1.497
REMARK  9 active torsions:
REMARK  status: ('A' for Active; 'I' for Inactive)
REMARK    1  A    between atoms: C_2  and  C_3 
REMARK    2  A    between atoms: C_3  and  N_4 
REMARK    3  A    between atoms: C_7  and  C_8 
REMARK       I    between atoms: C_8  and  N_9 
REMARK    4  A    between atoms: N_9  and  C_10 
REMARK    5  A    between atoms: C_10  and  C_11 
REMARK    6  A    between atoms: C_13  and  O_14 
REMARK    7  A    between atoms: O_14  and  C_15 
REMARK    8  A    between atoms: C_15  and  C_16 
REMARK       I    between atoms: C_16  and  N_17 
REMARK    9  A    between atoms: C_23  and  C_24 
ROOT
HETATM    1  C   UNL     1       6.072  27.531  54.375  1.00  0.00     0.255 C 
HETATM    2  N   UNL     1       6.911  28.550  54.746  1.00  0.00    -0.353 N 
HETATM    3  O   UNL     1       4.862  27.739  54.413  1.00  0.00    -0.268 OA
HETATM    4  H   UNL     1       6.414  29.388  55.016  1.00  0.00     0.163 HD
ENDROOT
BRANCH   2   5
HETATM    5  C   UNL     1       8.359  28.593  54.801  1.00  0.00     0.161 C 
BRANCH   5   6
HETATM    6  C   UNL     1       8.874  29.316  56.024  1.00  0.00    -0.038 A 
HETATM    7  C   UNL     1       8.048  29.633  57.115  1.00  0.00     0.045 A 
HETATM    8  C   UNL     1       8.551  30.281  58.250  1.00  0.00     0.070 A 
HETATM    9  C   UNL     1       9.903  30.609  58.306  1.00  0.00     0.037 A 
HETATM   10  C   UNL     1      10.743  30.288  57.236  1.00  0.00     0.003 A 
HETATM   11  C   UNL     1      10.235  29.643  56.108  1.00  0.00     0.009 A 
BRANCH   8  12
HETATM   12  O   UNL     1       7.619  30.527  59.220  1.00  0.00    -0.342 OA
BRANCH  12  13
HETATM   13  C   UNL     1       7.790  31.710  59.996  1.00  0.00     0.278 C 
BRANCH  13  14
HETATM   14  C   UNL     1       8.182  31.370  61.434  1.00  0.00     0.239 C 
HETATM   15  N   UNL     1       7.178  30.917  62.238  1.00  0.00    -0.368 N 
HETATM   16  H   UNL     1       6.258  30.732  61.856  1.00  0.00     0.159 HD
HETATM   17  H   UNL     1       7.394  30.645  63.187  1.00  0.00     0.159 HD
HETATM   18  O   UNL     1       9.324  31.506  61.864  1.00  0.00    -0.271 OA
ENDBRANCH  13  14
ENDBRANCH  12  13
ENDBRANCH   8  12
ENDBRANCH   5   6
ENDBRANCH   2   5
BRANCH   1  19
HETATM   19  C   UNL     1       6.643  26.257  53.991  1.00  0.00     0.075 A 
HETATM   20  C   UNL     1       7.129  25.918  52.706  1.00  0.00     0.158 A 
HETATM   21  N   UNL     1       7.576  24.668  52.626  1.00  0.00    -0.183 NA
HETATM   22  N   UNL     1       7.444  24.199  53.882  1.00  0.00    -0.268 N 
HETATM   23  C   UNL     1       6.882  25.116  54.750  1.00  0.00     0.052 A 
BRANCH  22  24
HETATM   24  C   UNL     1       7.887  22.838  54.189  1.00  0.00     0.106 C 
HETATM   25  C   UNL     1       9.242  22.785  54.908  1.00  0.00     0.034 C 
BRANCH  24  26
HETATM   26  C   UNL     1       7.849  21.921  52.949  1.00  0.00     0.022 C 
HETATM   27  C   UNL     1       8.103  20.446  53.227  1.00  0.00     0.007 C 
ENDBRANCH  24  26
ENDBRANCH  22  24
BRANCH  23  28
HETATM   28  C   UNL     1       6.587  24.822  56.223  1.00  0.00     0.038 A 
HETATM   29  C   UNL     1       7.686  24.879  57.256  1.00  0.00     0.011 A 
HETATM   30  C   UNL     1       6.627  25.930  57.250  1.00  0.00     0.011 A 
ENDBRANCH  23  28
ENDBRANCH   1  19
TORSDOF 9
ENDMDL
MODEL 4
REMARK VINA RESULT:      -8.1      3.767      7.141
REMARK  9 active torsions:
REMARK  status: ('A' for Active; 'I' for Inactive)
REMARK    1  A    between atoms: C_2  and  C_3 
REMARK    2  A    between atoms: C_3  and  N_4 
REMARK    3  A    between atoms: C_7  and  C_8 
REMARK       I    between atoms: C_8  and  N_9 
REMARK    4  A    between atoms: N_9  and  C_10 
REMARK    5  A    between atoms: C_10  and  C_11 
REMARK    6  A    between atoms: C_13  and  O_14 
REMARK    7  A    between atoms: O_14  and  C_15 
REMARK    8  A    between atoms: C_15  and  C_16 
REMARK       I    between atoms: C_16  and  N_17 
REMARK    9  A    between atoms: C_23  and  C_24 
ROOT
HETATM    1  C   UNL     1       9.301  31.649  59.324  1.00  0.00     0.255 C 
HETATM    2  N   UNL     1       9.364  31.512  60.686  1.00  0.00    -0.353 N 
HETATM    3  O   UNL     1      10.143  32.358  58.776  1.00  0.00    -0.268 OA
HETATM    4  H   UNL     1      10.130  32.029  61.097  1.00  0.00     0.163 HD
ENDROOT
BRANCH   2   5
HETATM    5  C   UNL     1       8.519  30.754  61.587  1.00  0.00     0.161 C 
BRANCH   5   6
HETATM    6  C   UNL     1       7.651  31.638  62.454  1.00  0.00    -0.038 A 
HETATM    7  C   UNL     1       6.248  31.609  62.392  1.00  0.00     0.045 A 
HETATM    8  C   UNL     1       5.462  32.418  63.220  1.00  0.00     0.070 A 
HETATM    9  C   UNL     1       6.083  33.263  64.137  1.00  0.00     0.037 A 
HETATM   10  C   UNL     1       7.476  33.294  64.223  1.00  0.00     0.003 A 
HETATM   11  C   UNL     1       8.254  32.486  63.393  1.00  0.00     0.009 A 
BRANCH   8  12
HETATM   12  O   UNL     1       4.115  32.280  63.032  1.00  0.00    -0.342 OA
BRANCH  12  13
HETATM   13  C   UNL     1       3.497  33.165  62.101  1.00  0.00     0.278 C 
BRANCH  13  14
HETATM   14  C   UNL     1       2.671  34.229  62.822  1.00  0.00     0.239 C 
HETATM   15  N   UNL     1       1.745  33.769  63.712  1.00  0.00    -0.368 N 
HETATM   16  H   UNL     1       1.695  32.782  63.937  1.00  0.00     0.159 HD
HETATM   17  H   UNL     1       1.199  34.435  64.241  1.00  0.00     0.159 HD
HETATM   18  O   UNL     1       2.806  35.432  62.615  1.00  0.00    -0.271 OA
ENDBRANCH  13  14
ENDBRANCH  12  13
ENDBRANCH   8  12
ENDBRANCH   5   6
ENDBRANCH   2   5
BRANCH   1  19
HETATM   19  C   UNL     1       8.235  30.988  58.601  1.00  0.00     0.075 A 
HETATM   20  C   UNL     1       6.857  31.295  58.688  1.00  0.00     0.158 A 
HETATM   21  N   UNL     1       6.094  30.511  57.933  1.00  0.00    -0.183 NA
HETATM   22  N   UNL     1       6.979  29.722  57.292  1.00  0.00    -0.268 N 
HETATM   23  C   UNL     1       8.289  29.965  57.659  1.00  0.00     0.052 A 
BRANCH  22  24
HETATM   24  C   UNL     1       6.493  28.742  56.320  1.00  0.00     0.106 C 
HETATM   25  C   UNL     1       5.448  29.310  55.350  1.00  0.00     0.034 C 
BRANCH  24  26
HETATM   26  C   UNL     1       6.014  27.442  56.997  1.00  0.00     0.022 C 
HETATM   27  C   UNL     1       7.094  26.390  57.217  1.00  0.00     0.007 C 
ENDBRANCH  24  26
ENDBRANCH  22  24
BRANCH  23  28
HETATM   28  C   UNL     1       9.484  29.181  57.110  1.00  0.00     0.038 A 
HETATM   29  C   UNL     1      10.041  29.483  55.740  1.00  0.00     0.011 A 
HETATM   30  C   UNL     1      10.831  29.847  56.952  1.00  0.00     0.011 A 
ENDBRANCH  23  28
ENDBRANCH   1  19
TORSDOF 9
ENDMDL
MODEL 5
REMARK VINA RESULT:      -8.0      1.909      2.346
REMARK  9 active torsions:
REMARK  status: ('A' for Active; 'I' for Inactive)
REMARK    1  A    between atoms: C_2  and  C_3 
REMARK    2  A    between atoms: C_3  and  N_4 
REMARK    3  A    between atoms: C_7  and  C_8 
REMARK       I    between atoms: C_8  and  N_9 
REMARK    4  A    between atoms: N_9  and  C_10 
REMARK    5  A    between atoms: C_10  and  C_11 
REMARK    6  A    between atoms: C_13  and  O_14 
REMARK    7  A    between atoms: O_14  and  C_15 
REMARK    8  A    between atoms: C_15  and  C_16 
REMARK       I    between atoms: C_16  and  N_17 
REMARK    9  A    between atoms: C_23  and  C_24 
ROOT
HETATM    1  C   UNL     1       6.156  27.556  54.222  1.00  0.00     0.255 C 
HETATM    2  N   UNL     1       7.018  28.560  54.576  1.00  0.00    -0.353 N 
HETATM    3  O   UNL     1       4.953  27.807  54.208  1.00  0.00    -0.268 OA
HETATM    4  H   UNL     1       6.543  29.428  54.790  1.00  0.00     0.163 HD
ENDROOT
BRANCH   2   5
HETATM    5  C   UNL     1       8.463  28.556  54.680  1.00  0.00     0.161 C 
BRANCH   5   6
HETATM    6  C   UNL     1       8.960  29.253  55.927  1.00  0.00    -0.038 A 
HETATM    7  C   UNL     1       8.133  29.490  57.037  1.00  0.00     0.045 A 
HETATM    8  C   UNL     1       8.618  30.115  58.192  1.00  0.00     0.070 A 
HETATM    9  C   UNL     1       9.956  30.501  58.248  1.00  0.00     0.037 A 
HETATM   10  C   UNL     1      10.797  30.259  57.159  1.00  0.00     0.003 A 
HETATM   11  C   UNL     1      10.305  29.637  56.011  1.00  0.00     0.009 A 
BRANCH   8  12
HETATM   12  O   UNL     1       7.688  30.282  59.179  1.00  0.00    -0.342 OA
BRANCH  12  13
HETATM   13  C   UNL     1       7.256  31.614  59.445  1.00  0.00     0.278 C 
BRANCH  13  14
HETATM   14  C   UNL     1       5.980  31.941  58.669  1.00  0.00     0.239 C 
HETATM   15  N   UNL     1       4.965  31.036  58.777  1.00  0.00    -0.368 N 
HETATM   16  H   UNL     1       5.040  30.254  59.415  1.00  0.00     0.159 HD
HETATM   17  H   UNL     1       4.088  31.225  58.311  1.00  0.00     0.159 HD
HETATM   18  O   UNL     1       5.862  32.944  57.971  1.00  0.00    -0.271 OA
ENDBRANCH  13  14
ENDBRANCH  12  13
ENDBRANCH   8  12
ENDBRANCH   5   6
ENDBRANCH   2   5
BRANCH   1  19
HETATM   19  C   UNL     1       6.692  26.246  53.918  1.00  0.00     0.075 A 
HETATM   20  C   UNL     1       7.184  25.821  52.661  1.00  0.00     0.158 A 
HETATM   21  N   UNL     1       7.593  24.556  52.657  1.00  0.00    -0.183 NA
HETATM   22  N   UNL     1       7.433  24.162  53.936  1.00  0.00    -0.268 N 
HETATM   23  C   UNL     1       6.889  25.142  54.743  1.00  0.00     0.052 A 
BRANCH  22  24
HETATM   24  C   UNL     1       7.831  22.808  54.324  1.00  0.00     0.106 C 
HETATM   25  C   UNL     1       9.191  22.753  55.034  1.00  0.00     0.034 C 
BRANCH  24  26
HETATM   26  C   UNL     1       7.748  21.817  53.145  1.00  0.00     0.022 C 
HETATM   27  C   UNL     1       8.701  20.633  53.226  1.00  0.00     0.007 C 
ENDBRANCH  24  26
ENDBRANCH  22  24
BRANCH  23  28
HETATM   28  C   UNL     1       6.568  24.940  56.226  1.00  0.00     0.038 A 
HETATM   29  C   UNL     1       6.438  26.123  57.155  1.00  0.00     0.011 A 
HETATM   30  C   UNL     1       5.221  25.344  56.782  1.00  0.00     0.011 A 
ENDBRANCH  23  28
ENDBRANCH   1  19
TORSDOF 9
ENDMDL
MODEL 6
REMARK VINA RESULT:      -7.8      1.626      2.252
REMARK  9 active torsions:
REMARK  status: ('A' for Active; 'I' for Inactive)
REMARK    1  A    between atoms: C_2  and  C_3 
REMARK    2  A    between atoms: C_3  and  N_4 
REMARK    3  A    between atoms: C_7  and  C_8 
REMARK       I    between atoms: C_8  and  N_9 
REMARK    4  A    between atoms: N_9  and  C_10 
REMARK    5  A    between atoms: C_10  and  C_11 
REMARK    6  A    between atoms: C_13  and  O_14 
REMARK    7  A    between atoms: O_14  and  C_15 
REMARK    8  A    between atoms: C_15  and  C_16 
REMARK       I    between atoms: C_16  and  N_17 
REMARK    9  A    between atoms: C_23  and  C_24 
ROOT
HETATM    1  C   UNL     1       6.369  27.504  53.426  1.00  0.00     0.255 C 
HETATM    2  N   UNL     1       6.856  28.501  54.230  1.00  0.00    -0.353 N 
HETATM    3  O   UNL     1       5.455  27.782  52.652  1.00  0.00    -0.268 OA
HETATM    4  H   UNL     1       6.388  29.387  54.082  1.00  0.00     0.163 HD
ENDROOT
BRANCH   2   5
HETATM    5  C   UNL     1       7.910  28.468  55.223  1.00  0.00     0.161 C 
BRANCH   5   6
HETATM    6  C   UNL     1       7.587  29.298  56.444  1.00  0.00    -0.038 A 
HETATM    7  C   UNL     1       8.425  29.339  57.570  1.00  0.00     0.045 A 
HETATM    8  C   UNL     1       8.120  30.133  58.682  1.00  0.00     0.070 A 
HETATM    9  C   UNL     1       6.964  30.910  58.669  1.00  0.00     0.037 A 
HETATM   10  C   UNL     1       6.126  30.893  57.551  1.00  0.00     0.003 A 
HETATM   11  C   UNL     1       6.436  30.098  56.447  1.00  0.00     0.009 A 
BRANCH   8  12
HETATM   12  O   UNL     1       9.030  30.057  59.699  1.00  0.00    -0.342 OA
BRANCH  12  13
HETATM   13  C   UNL     1       9.107  31.171  60.585  1.00  0.00     0.278 C 
BRANCH  13  14
HETATM   14  C   UNL     1       8.519  30.825  61.953  1.00  0.00     0.239 C 
HETATM   15  N   UNL     1       9.012  29.702  62.549  1.00  0.00    -0.368 N 
HETATM   16  H   UNL     1       9.788  29.199  62.137  1.00  0.00     0.159 HD
HETATM   17  H   UNL     1       8.680  29.450  63.471  1.00  0.00     0.159 HD
HETATM   18  O   UNL     1       7.643  31.496  62.491  1.00  0.00    -0.271 OA
ENDBRANCH  13  14
ENDBRANCH  12  13
ENDBRANCH   8  12
ENDBRANCH   5   6
ENDBRANCH   2   5
BRANCH   1  19
HETATM   19  C   UNL     1       6.922  26.171  53.548  1.00  0.00     0.075 A 
HETATM   20  C   UNL     1       7.935  25.615  52.732  1.00  0.00     0.158 A 
HETATM   21  N   UNL     1       8.236  24.359  53.050  1.00  0.00    -0.183 NA
HETATM   22  N   UNL     1       7.463  24.106  54.125  1.00  0.00    -0.268 N 
HETATM   23  C   UNL     1       6.646  25.166  54.470  1.00  0.00     0.052 A 
BRANCH  22  24
HETATM   24  C   UNL     1       7.562  22.805  54.788  1.00  0.00     0.106 C 
HETATM   25  C   UNL     1       8.574  22.784  55.942  1.00  0.00     0.034 C 
BRANCH  24  26
HETATM   26  C   UNL     1       7.797  21.658  53.785  1.00  0.00     0.022 C 
HETATM   27  C   UNL     1       8.234  20.337  54.403  1.00  0.00     0.007 C 
ENDBRANCH  24  26
ENDBRANCH  22  24
BRANCH  23  28
HETATM   28  C   UNL     1       5.644  25.125  55.626  1.00  0.00     0.038 A 
HETATM   29  C   UNL     1       6.105  25.302  57.052  1.00  0.00     0.011 A 
HETATM   30  C   UNL     1       5.311  26.381  56.397  1.00  0.00     0.011 A 
ENDBRANCH  23  28
ENDBRANCH   1  19
TORSDOF 9
ENDMDL
MODEL 7
REMARK VINA RESULT:      -7.6      4.460      7.998
REMARK  9 active torsions:
REMARK  status: ('A' for Active; 'I' for Inactive)
REMARK    1  A    between atoms: C_2  and  C_3 
REMARK    2  A    between atoms: C_3  and  N_4 
REMARK    3  A    between atoms: C_7  and  C_8 
REMARK       I    between atoms: C_8  and  N_9 
REMARK    4  A    between atoms: N_9  and  C_10 
REMARK    5  A    between atoms: C_10  and  C_11 
REMARK    6  A    between atoms: C_13  and  O_14 
REMARK    7  A    between atoms: O_14  and  C_15 
REMARK    8  A    between atoms: C_15  and  C_16 
REMARK       I    between atoms: C_16  and  N_17 
REMARK    9  A    between atoms: C_23  and  C_24 
ROOT
HETATM    1  C   UNL     1       7.475  27.556  53.818  1.00  0.00     0.255 C 
HETATM    2  N   UNL     1       6.225  28.107  53.715  1.00  0.00    -0.353 N 
HETATM    3  O   UNL     1       8.420  28.309  54.043  1.00  0.00    -0.268 OA
HETATM    4  H   UNL     1       6.227  29.110  53.845  1.00  0.00     0.163 HD
ENDROOT
BRANCH   2   5
HETATM    5  C   UNL     1       4.945  27.477  53.459  1.00  0.00     0.161 C 
BRANCH   5   6
HETATM    6  C   UNL     1       4.277  28.002  52.209  1.00  0.00    -0.038 A 
HETATM    7  C   UNL     1       4.595  27.524  50.927  1.00  0.00     0.045 A 
HETATM    8  C   UNL     1       3.947  28.006  49.784  1.00  0.00     0.070 A 
HETATM    9  C   UNL     1       2.954  28.973  49.919  1.00  0.00     0.037 A 
HETATM   10  C   UNL     1       2.613  29.449  51.188  1.00  0.00     0.003 A 
HETATM   11  C   UNL     1       3.265  28.965  52.323  1.00  0.00     0.009 A 
BRANCH   8  12
HETATM   12  O   UNL     1       4.376  27.448  48.612  1.00  0.00    -0.342 OA
BRANCH  12  13
HETATM   13  C   UNL     1       3.551  27.636  47.465  1.00  0.00     0.278 C 
BRANCH  13  14
HETATM   14  C   UNL     1       2.623  26.439  47.256  1.00  0.00     0.239 C 
HETATM   15  N   UNL     1       1.417  26.498  47.889  1.00  0.00    -0.368 N 
HETATM   16  H   UNL     1       1.135  27.337  48.381  1.00  0.00     0.159 HD
HETATM   17  H   UNL     1       0.754  25.747  47.753  1.00  0.00     0.159 HD
HETATM   18  O   UNL     1       2.935  25.465  46.576  1.00  0.00    -0.271 OA
ENDBRANCH  13  14
ENDBRANCH  12  13
ENDBRANCH   8  12
ENDBRANCH   5   6
ENDBRANCH   2   5
BRANCH   1  19
HETATM   19  C   UNL     1       7.631  26.129  53.625  1.00  0.00     0.075 A 
HETATM   20  C   UNL     1       7.828  25.476  52.385  1.00  0.00     0.158 A 
HETATM   21  N   UNL     1       7.914  24.154  52.496  1.00  0.00    -0.183 NA
HETATM   22  N   UNL     1       7.838  23.936  53.824  1.00  0.00    -0.268 N 
HETATM   23  C   UNL     1       7.664  25.096  54.556  1.00  0.00     0.052 A 
BRANCH  22  24
HETATM   24  C   UNL     1       7.945  22.569  54.334  1.00  0.00     0.106 C 
HETATM   25  C   UNL     1       9.282  22.280  55.030  1.00  0.00     0.034 C 
BRANCH  24  26
HETATM   26  C   UNL     1       7.611  21.519  53.255  1.00  0.00     0.022 C 
HETATM   27  C   UNL     1       8.679  20.457  53.032  1.00  0.00     0.007 C 
ENDBRANCH  24  26
ENDBRANCH  22  24
BRANCH  23  28
HETATM   28  C   UNL     1       7.509  25.124  56.079  1.00  0.00     0.038 A 
HETATM   29  C   UNL     1       6.813  26.276  56.762  1.00  0.00     0.011 A 
HETATM   30  C   UNL     1       6.150  24.940  56.715  1.00  0.00     0.011 A 
ENDBRANCH  23  28
ENDBRANCH   1  19
TORSDOF 9
ENDMDL
MODEL 8
REMARK VINA RESULT:      -7.5      4.887     10.861
REMARK  9 active torsions:
REMARK  status: ('A' for Active; 'I' for Inactive)
REMARK    1  A    between atoms: C_2  and  C_3 
REMARK    2  A    between atoms: C_3  and  N_4 
REMARK    3  A    between atoms: C_7  and  C_8 
REMARK       I    between atoms: C_8  and  N_9 
REMARK    4  A    between atoms: N_9  and  C_10 
REMARK    5  A    between atoms: C_10  and  C_11 
REMARK    6  A    between atoms: C_13  and  O_14 
REMARK    7  A    between atoms: O_14  and  C_15 
REMARK    8  A    between atoms: C_15  and  C_16 
REMARK       I    between atoms: C_16  and  N_17 
REMARK    9  A    between atoms: C_23  and  C_24 
ROOT
HETATM    1  C   UNL     1       5.060  31.791  62.774  1.00  0.00     0.255 C 
HETATM    2  N   UNL     1       5.901  31.595  61.710  1.00  0.00    -0.353 N 
HETATM    3  O   UNL     1       4.722  30.808  63.431  1.00  0.00    -0.268 OA
HETATM    4  H   UNL     1       6.158  30.624  61.587  1.00  0.00     0.163 HD
ENDROOT
BRANCH   2   5
HETATM    5  C   UNL     1       6.457  32.549  60.772  1.00  0.00     0.161 C 
BRANCH   5   6
HETATM    6  C   UNL     1       7.581  31.966  59.945  1.00  0.00    -0.038 A 
HETATM    7  C   UNL     1       7.359  31.009  58.941  1.00  0.00     0.045 A 
HETATM    8  C   UNL     1       8.410  30.500  58.170  1.00  0.00     0.070 A 
HETATM    9  C   UNL     1       9.706  30.959  58.394  1.00  0.00     0.037 A 
HETATM   10  C   UNL     1       9.944  31.921  59.378  1.00  0.00     0.003 A 
HETATM   11  C   UNL     1       8.891  32.424  60.145  1.00  0.00     0.009 A 
BRANCH   8  12
HETATM   12  O   UNL     1       8.033  29.571  57.240  1.00  0.00    -0.342 OA
BRANCH  12  13
HETATM   13  C   UNL     1       7.250  28.473  57.703  1.00  0.00     0.278 C 
BRANCH  13  14
HETATM   14  C   UNL     1       5.921  28.394  56.952  1.00  0.00     0.239 C 
HETATM   15  N   UNL     1       4.813  28.768  57.654  1.00  0.00    -0.368 N 
HETATM   16  H   UNL     1       4.901  29.163  58.583  1.00  0.00     0.159 HD
HETATM   17  H   UNL     1       3.914  28.767  57.191  1.00  0.00     0.159 HD
HETATM   18  O   UNL     1       5.833  28.003  55.792  1.00  0.00    -0.271 OA
ENDBRANCH  13  14
ENDBRANCH  12  13
ENDBRANCH   8  12
ENDBRANCH   5   6
ENDBRANCH   2   5
BRANCH   1  19
HETATM   19  C   UNL     1       4.583  33.129  63.053  1.00  0.00     0.075 A 
HETATM   20  C   UNL     1       3.298  33.635  62.744  1.00  0.00     0.158 A 
HETATM   21  N   UNL     1       3.138  34.909  63.090  1.00  0.00    -0.183 NA
HETATM   22  N   UNL     1       4.301  35.228  63.691  1.00  0.00    -0.268 N 
HETATM   23  C   UNL     1       5.214  34.191  63.696  1.00  0.00     0.052 A 
BRANCH  22  24
HETATM   24  C   UNL     1       4.473  36.569  64.252  1.00  0.00     0.106 C 
HETATM   25  C   UNL     1       5.593  37.373  63.579  1.00  0.00     0.034 C 
BRANCH  24  26
HETATM   26  C   UNL     1       4.617  36.541  65.788  1.00  0.00     0.022 C 
HETATM   27  C   UNL     1       3.572  35.711  66.521  1.00  0.00     0.007 C 
ENDBRANCH  24  26
ENDBRANCH  22  24
BRANCH  23  28
HETATM   28  C   UNL     1       6.624  34.303  64.280  1.00  0.00     0.038 A 
HETATM   29  C   UNL     1       6.956  33.690  65.618  1.00  0.00     0.011 A 
HETATM   30  C   UNL     1       7.515  33.085  64.374  1.00  0.00     0.011 A 
ENDBRANCH  23  28
ENDBRANCH   1  19
TORSDOF 9
ENDMDL
MODEL 9
REMARK VINA RESULT:      -7.5      3.452      7.211
REMARK  9 active torsions:
REMARK  status: ('A' for Active; 'I' for Inactive)
REMARK    1  A    between atoms: C_2  and  C_3 
REMARK    2  A    between atoms: C_3  and  N_4 
REMARK    3  A    between atoms: C_7  and  C_8 
REMARK       I    between atoms: C_8  and  N_9 
REMARK    4  A    between atoms: N_9  and  C_10 
REMARK    5  A    between atoms: C_10  and  C_11 
REMARK    6  A    between atoms: C_13  and  O_14 
REMARK    7  A    between atoms: O_14  and  C_15 
REMARK    8  A    between atoms: C_15  and  C_16 
REMARK       I    between atoms: C_16  and  N_17 
REMARK    9  A    between atoms: C_23  and  C_24 
ROOT
HETATM    1  C   UNL     1       5.454  28.723  56.245  1.00  0.00     0.255 C 
HETATM    2  N   UNL     1       5.497  27.612  57.047  1.00  0.00    -0.353 N 
HETATM    3  O   UNL     1       5.790  29.800  56.733  1.00  0.00    -0.268 OA
HETATM    4  H   UNL     1       5.817  27.818  57.985  1.00  0.00     0.163 HD
ENDROOT
BRANCH   2   5
HETATM    5  C   UNL     1       5.164  26.234  56.750  1.00  0.00     0.161 C 
BRANCH   5   6
HETATM    6  C   UNL     1       6.384  25.344  56.671  1.00  0.00    -0.038 A 
HETATM    7  C   UNL     1       6.456  24.241  55.804  1.00  0.00     0.045 A 
HETATM    8  C   UNL     1       7.604  23.444  55.727  1.00  0.00     0.070 A 
HETATM    9  C   UNL     1       8.706  23.756  56.520  1.00  0.00     0.037 A 
HETATM   10  C   UNL     1       8.657  24.858  57.378  1.00  0.00     0.003 A 
HETATM   11  C   UNL     1       7.509  25.648  57.450  1.00  0.00     0.009 A 
BRANCH   8  12
HETATM   12  O   UNL     1       7.515  22.405  54.843  1.00  0.00    -0.342 OA
BRANCH  12  13
HETATM   13  C   UNL     1       8.733  21.928  54.278  1.00  0.00     0.278 C 
BRANCH  13  14
HETATM   14  C   UNL     1       8.726  20.404  54.168  1.00  0.00     0.239 C 
HETATM   15  N   UNL     1       8.863  19.718  55.340  1.00  0.00    -0.368 N 
HETATM   16  H   UNL     1       8.868  20.209  56.225  1.00  0.00     0.159 HD
HETATM   17  H   UNL     1       8.828  18.708  55.323  1.00  0.00     0.159 HD
HETATM   18  O   UNL     1       8.621  19.813  53.097  1.00  0.00    -0.271 OA
ENDBRANCH  13  14
ENDBRANCH  12  13
ENDBRANCH   8  12
ENDBRANCH   5   6
ENDBRANCH   2   5
BRANCH   1  19
HETATM   19  C   UNL     1       4.985  28.586  54.882  1.00  0.00     0.075 A 
HETATM   20  C   UNL     1       3.641  28.681  54.453  1.00  0.00     0.158 A 
HETATM   21  N   UNL     1       3.491  28.488  53.146  1.00  0.00    -0.183 NA
HETATM   22  N   UNL     1       4.752  28.329  52.698  1.00  0.00    -0.268 N 
HETATM   23  C   UNL     1       5.697  28.376  53.705  1.00  0.00     0.052 A 
BRANCH  22  24
HETATM   24  C   UNL     1       4.986  28.135  51.266  1.00  0.00     0.106 C 
HETATM   25  C   UNL     1       4.001  28.908  50.378  1.00  0.00     0.034 C 
BRANCH  24  26
HETATM   26  C   UNL     1       5.065  26.642  50.888  1.00  0.00     0.022 C 
HETATM   27  C   UNL     1       4.522  26.294  49.508  1.00  0.00     0.007 C 
ENDBRANCH  24  26
ENDBRANCH  22  24
BRANCH  23  28
HETATM   28  C   UNL     1       7.198  28.184  53.472  1.00  0.00     0.038 A 
HETATM   29  C   UNL     1       8.132  27.927  54.630  1.00  0.00     0.011 A 
HETATM   30  C   UNL     1       7.837  26.828  53.664  1.00  0.00     0.011 A 
ENDBRANCH  23  28
ENDBRANCH   1  19
TORSDOF 9
ENDMDL
MODEL 10
REMARK VINA RESULT:      -7.3      2.977      7.683
REMARK  9 active torsions:
REMARK  status: ('A' for Active; 'I' for Inactive)
REMARK    1  A    between atoms: C_2  and  C_3 
REMARK    2  A    between atoms: C_3  and  N_4 
REMARK    3  A    between atoms: C_7  and  C_8 
REMARK       I    between atoms: C_8  and  N_9 
REMARK    4  A    between atoms: N_9  and  C_10 
REMARK    5  A    between atoms: C_10  and  C_11 
REMARK    6  A    between atoms: C_13  and  O_14 
REMARK    7  A    between atoms: O_14  and  C_15 
REMARK    8  A    between atoms: C_15  and  C_16 
REMARK       I    between atoms: C_16  and  N_17 
REMARK    9  A    between atoms: C_23  and  C_24 
ROOT
HETATM    1  C   UNL     1       4.823  28.979  55.452  1.00  0.00     0.255 C 
HETATM    2  N   UNL     1       4.542  27.641  55.367  1.00  0.00    -0.353 N 
HETATM    3  O   UNL     1       4.293  29.732  54.637  1.00  0.00    -0.268 OA
HETATM    4  H   UNL     1       3.902  27.421  54.615  1.00  0.00     0.163 HD
ENDROOT
BRANCH   2   5
HETATM    5  C   UNL     1       5.013  26.535  56.177  1.00  0.00     0.161 C 
BRANCH   5   6
HETATM    6  C   UNL     1       5.714  25.473  55.362  1.00  0.00    -0.038 A 
HETATM    7  C   UNL     1       6.608  24.553  55.934  1.00  0.00     0.045 A 
HETATM    8  C   UNL     1       7.229  23.561  55.166  1.00  0.00     0.070 A 
HETATM    9  C   UNL     1       6.946  23.474  53.805  1.00  0.00     0.037 A 
HETATM   10  C   UNL     1       6.047  24.371  53.222  1.00  0.00     0.003 A 
HETATM   11  C   UNL     1       5.433  25.359  53.994  1.00  0.00     0.009 A 
BRANCH   8  12
HETATM   12  O   UNL     1       8.078  22.750  55.867  1.00  0.00    -0.342 OA
BRANCH  12  13
HETATM   13  C   UNL     1       9.025  21.997  55.113  1.00  0.00     0.278 C 
BRANCH  13  14
HETATM   14  C   UNL     1       8.634  20.520  55.063  1.00  0.00     0.239 C 
HETATM   15  N   UNL     1       8.002  20.029  56.168  1.00  0.00    -0.368 N 
HETATM   16  H   UNL     1       7.731  20.648  56.922  1.00  0.00     0.159 HD
HETATM   17  H   UNL     1       7.692  19.067  56.168  1.00  0.00     0.159 HD
HETATM   18  O   UNL     1       8.881  19.797  54.102  1.00  0.00    -0.271 OA
ENDBRANCH  13  14
ENDBRANCH  12  13
ENDBRANCH   8  12
ENDBRANCH   5   6
ENDBRANCH   2   5
BRANCH   1  19
HETATM   19  C   UNL     1       5.750  29.439  56.465  1.00  0.00     0.075 A 
HETATM   20  C   UNL     1       5.438  30.290  57.551  1.00  0.00     0.158 A 
HETATM   21  N   UNL     1       6.489  30.573  58.315  1.00  0.00    -0.183 NA
HETATM   22  N   UNL     1       7.488  29.853  57.768  1.00  0.00    -0.268 N 
HETATM   23  C   UNL     1       7.099  29.149  56.644  1.00  0.00     0.052 A 
BRANCH  22  24
HETATM   24  C   UNL     1       8.814  29.883  58.385  1.00  0.00     0.106 C 
HETATM   25  C   UNL     1       8.788  30.280  59.868  1.00  0.00     0.034 C 
BRANCH  24  26
HETATM   26  C   UNL     1       9.815  30.729  57.572  1.00  0.00     0.022 C 
HETATM   27  C   UNL     1      11.185  30.095  57.371  1.00  0.00     0.007 C 
ENDBRANCH  24  26
ENDBRANCH  22  24
BRANCH  23  28
HETATM   28  C   UNL     1       8.050  28.285  55.812  1.00  0.00     0.038 A 
HETATM   29  C   UNL     1       7.837  28.115  54.327  1.00  0.00     0.011 A 
HETATM   30  C   UNL     1       8.993  28.921  54.818  1.00  0.00     0.011 A 
ENDBRANCH  23  28
ENDBRANCH   1  19
TORSDOF 9
ENDMDL
