MODEL 1
REMARK VINA RESULT:      -9.2      0.000      0.000
REMARK  5 active torsions:
REMARK  status: ('A' for Active; 'I' for Inactive)
REMARK    1  A    between atoms: C_8  and  C_9 
REMARK    2  A    between atoms: C_9  and  N_10 
REMARK       I    between atoms: N_10  and  C_11 
REMARK       I    between atoms: C_11  and  N_12 
REMARK    3  A    between atoms: C_13  and  C_14 
REMARK    4  A    between atoms: C_14  and  C_15 
REMARK    5  A    between atoms: C_15  and  C_16 
ROOT
HETATM    1  N   UNL     1       5.154  26.974  55.351  1.00  0.00    -0.339 N 
HETATM    2  C   UNL     1       5.237  27.771  54.244  1.00  0.00     0.318 C 
HETATM    3  N   UNL     1       5.549  27.122  53.059  1.00  0.00    -0.330 N 
HETATM    4  C   UNL     1       5.738  25.664  52.885  1.00  0.00     0.089 C 
HETATM    5  C   UNL     1       4.839  25.148  51.746  1.00  0.00     0.025 C 
HETATM    6  C   UNL     1       4.981  25.958  50.460  1.00  0.00     0.004 C 
HETATM    7  C   UNL     1       4.765  27.442  50.737  1.00  0.00     0.020 C 
HETATM    8  C   UNL     1       5.683  27.938  51.849  1.00  0.00     0.128 C 
HETATM    9  O   UNL     1       5.020  28.979  54.312  1.00  0.00    -0.247 OA
HETATM   10  H   UNL     1       5.768  26.180  55.389  1.00  0.00     0.164 HD
ENDROOT
BRANCH   4  11
HETATM   11  C   UNL     1       7.219  25.297  52.651  1.00  0.00     0.030 C 
BRANCH  11  12
HETATM   12  C   UNL     1       7.926  24.844  53.932  1.00  0.00     0.040 C 
BRANCH  12  13
HETATM   13  C   UNL     1       7.925  23.341  54.066  1.00  0.00    -0.058 A 
HETATM   14  C   UNL     1       7.961  22.531  52.923  1.00  0.00     0.007 A 
HETATM   15  C   UNL     1       7.944  21.141  53.042  1.00  0.00     0.001 A 
HETATM   16  C   UNL     1       7.886  20.549  54.302  1.00  0.00     0.000 A 
HETATM   17  C   UNL     1       7.842  21.346  55.444  1.00  0.00     0.001 A 
HETATM   18  C   UNL     1       7.859  22.737  55.328  1.00  0.00     0.007 A 
ENDBRANCH  12  13
ENDBRANCH  11  12
ENDBRANCH   4  11
BRANCH   1  19
HETATM   19  C   UNL     1       4.821  27.547  56.635  1.00  0.00     0.167 C 
BRANCH  19  20
HETATM   20  C   UNL     1       6.079  28.056  57.243  1.00  0.00     0.009 A 
HETATM   21  C   UNL     1       6.430  29.358  57.553  1.00  0.00     0.034 A 
HETATM   22  C   UNL     1       5.709  30.643  57.398  1.00  0.00     0.070 C 
HETATM   23  N   UNL     1       7.682  29.289  58.095  1.00  0.00    -0.282 N 
HETATM   24  H   UNL     1       8.257  30.047  58.448  1.00  0.00     0.189 HD
HETATM   25  N   UNL     1       8.181  28.047  58.146  1.00  0.00    -0.179 NA
HETATM   26  C   UNL     1       7.208  27.284  57.639  1.00  0.00     0.060 A 
HETATM   27  C   UNL     1       7.388  25.814  57.523  1.00  0.00     0.073 C 
ENDBRANCH  19  20
ENDBRANCH   1  19
TORSDOF 5
ENDMDL
MODEL 2
REMARK VINA RESULT:      -9.1      2.281      5.764
REMARK  5 active torsions:
REMARK  status: ('A' for Active; 'I' for Inactive)
REMARK    1  A    between atoms: C_8  and  C_9 
REMARK    2  A    between atoms: C_9  and  N_10 
REMARK       I    between atoms: N_10  and  C_11 
REMARK       I    between atoms: C_11  and  N_12 
REMARK    3  A    between atoms: C_13  and  C_14 
REMARK    4  A    between atoms: C_14  and  C_15 
REMARK    5  A    between atoms: C_15  and  C_16 
ROOT
HETATM    1  N   UNL     1       4.603  27.185  51.530  1.00  0.00    -0.339 N 
HETATM    2  C   UNL     1       4.364  27.416  52.855  1.00  0.00     0.318 C 
HETATM    3  N   UNL     1       5.254  26.824  53.738  1.00  0.00    -0.330 N 
HETATM    4  C   UNL     1       6.448  26.028  53.374  1.00  0.00     0.089 C 
HETATM    5  C   UNL     1       7.693  26.589  54.086  1.00  0.00     0.025 C 
HETATM    6  C   UNL     1       7.491  26.766  55.588  1.00  0.00     0.004 C 
HETATM    7  C   UNL     1       6.245  27.601  55.865  1.00  0.00     0.020 C 
HETATM    8  C   UNL     1       5.021  27.013  55.173  1.00  0.00     0.128 C 
HETATM    9  O   UNL     1       3.430  28.128  53.218  1.00  0.00    -0.247 OA
HETATM   10  H   UNL     1       4.997  26.294  51.286  1.00  0.00     0.164 HD
ENDROOT
BRANCH   4  11
HETATM   11  C   UNL     1       6.253  24.525  53.668  1.00  0.00     0.030 C 
BRANCH  11  12
HETATM   12  C   UNL     1       7.263  23.642  52.928  1.00  0.00     0.040 C 
BRANCH  12  13
HETATM   13  C   UNL     1       7.683  22.458  53.763  1.00  0.00    -0.058 A 
HETATM   14  C   UNL     1       8.178  21.300  53.148  1.00  0.00     0.007 A 
HETATM   15  C   UNL     1       8.553  20.197  53.915  1.00  0.00     0.001 A 
HETATM   16  C   UNL     1       8.432  20.240  55.303  1.00  0.00     0.000 A 
HETATM   17  C   UNL     1       7.934  21.383  55.924  1.00  0.00     0.001 A 
HETATM   18  C   UNL     1       7.558  22.488  55.158  1.00  0.00     0.007 A 
ENDBRANCH  12  13
ENDBRANCH  11  12
ENDBRANCH   4  11
BRANCH   1  19
HETATM   19  C   UNL     1       3.745  27.767  50.524  1.00  0.00     0.167 C 
BRANCH  19  20
HETATM   20  C   UNL     1       4.439  27.650  49.215  1.00  0.00     0.009 A 
HETATM   21  C   UNL     1       5.377  28.495  48.649  1.00  0.00     0.034 A 
HETATM   22  C   UNL     1       5.995  29.753  49.129  1.00  0.00     0.070 C 
HETATM   23  N   UNL     1       5.703  27.940  47.444  1.00  0.00    -0.282 N 
HETATM   24  H   UNL     1       6.367  28.277  46.755  1.00  0.00     0.189 HD
HETATM   25  N   UNL     1       5.038  26.810  47.172  1.00  0.00    -0.179 NA
HETATM   26  C   UNL     1       4.271  26.617  48.250  1.00  0.00     0.060 A 
HETATM   27  C   UNL     1       3.365  25.442  48.328  1.00  0.00     0.073 C 
ENDBRANCH  19  20
ENDBRANCH   1  19
TORSDOF 5
ENDMDL
MODEL 3
REMARK VINA RESULT:      -8.9      0.591      1.803
REMARK  5 active torsions:
REMARK  status: ('A' for Active; 'I' for Inactive)
REMARK    1  A    between atoms: C_8  and  C_9 
REMARK    2  A    between atoms: C_9  and  N_10 
REMARK       I    between atoms: N_10  and  C_11 
REMARK       I    between atoms: C_11  and  N_12 
REMARK    3  A    between atoms: C_13  and  C_14 
REMARK    4  A    between atoms: C_14  and  C_15 
REMARK    5  A    between atoms: C_15  and  C_16 
ROOT
HETATM    1  N   UNL     1       5.332  27.399  55.452  1.00  0.00    -0.339 N 
HETATM    2  C   UNL     1       5.294  28.135  54.301  1.00  0.00     0.318 C 
HETATM    3  N   UNL     1       5.643  27.456  53.143  1.00  0.00    -0.330 N 
HETATM    4  C   UNL     1       5.991  26.021  53.043  1.00  0.00     0.089 C 
HETATM    5  C   UNL     1       5.125  25.343  51.964  1.00  0.00     0.025 C 
HETATM    6  C   UNL     1       5.140  26.088  50.632  1.00  0.00     0.004 C 
HETATM    7  C   UNL     1       4.765  27.553  50.834  1.00  0.00     0.020 C 
HETATM    8  C   UNL     1       5.651  28.210  51.886  1.00  0.00     0.128 C 
HETATM    9  O   UNL     1       4.944  29.313  54.309  1.00  0.00    -0.247 OA
HETATM   10  H   UNL     1       6.031  26.681  55.512  1.00  0.00     0.164 HD
ENDROOT
BRANCH   4  11
HETATM   11  C   UNL     1       7.497  25.807  52.779  1.00  0.00     0.030 C 
BRANCH  11  12
HETATM   12  C   UNL     1       7.809  24.413  52.228  1.00  0.00     0.040 C 
BRANCH  12  13
HETATM   13  C   UNL     1       7.906  23.388  53.331  1.00  0.00    -0.058 A 
HETATM   14  C   UNL     1       7.868  22.020  53.029  1.00  0.00     0.007 A 
HETATM   15  C   UNL     1       7.941  21.069  54.047  1.00  0.00     0.001 A 
HETATM   16  C   UNL     1       8.047  21.477  55.376  1.00  0.00     0.000 A 
HETATM   17  C   UNL     1       8.079  22.834  55.687  1.00  0.00     0.001 A 
HETATM   18  C   UNL     1       8.005  23.788  54.670  1.00  0.00     0.007 A 
ENDBRANCH  12  13
ENDBRANCH  11  12
ENDBRANCH   4  11
BRANCH   1  19
HETATM   19  C   UNL     1       4.972  28.005  56.713  1.00  0.00     0.167 C 
BRANCH  19  20
HETATM   20  C   UNL     1       6.208  28.575  57.310  1.00  0.00     0.009 A 
HETATM   21  C   UNL     1       7.377  27.928  57.671  1.00  0.00     0.034 A 
HETATM   22  C   UNL     1       7.791  26.508  57.589  1.00  0.00     0.070 C 
HETATM   23  N   UNL     1       8.203  28.898  58.167  1.00  0.00    -0.282 N 
HETATM   24  H   UNL     1       9.149  28.798  58.519  1.00  0.00     0.189 HD
HETATM   25  N   UNL     1       7.657  30.121  58.174  1.00  0.00    -0.179 NA
HETATM   26  C   UNL     1       6.443  29.938  57.644  1.00  0.00     0.060 A 
HETATM   27  C   UNL     1       5.513  31.085  57.484  1.00  0.00     0.073 C 
ENDBRANCH  19  20
ENDBRANCH   1  19
TORSDOF 5
ENDMDL
MODEL 4
REMARK VINA RESULT:      -8.8      2.448      5.937
REMARK  5 active torsions:
REMARK  status: ('A' for Active; 'I' for Inactive)
REMARK    1  A    between atoms: C_8  and  C_9 
REMARK    2  A    between atoms: C_9  and  N_10 
REMARK       I    between atoms: N_10  and  C_11 
REMARK       I    between atoms: C_11  and  N_12 
REMARK    3  A    between atoms: C_13  and  C_14 
REMARK    4  A    between atoms: C_14  and  C_15 
REMARK    5  A    between atoms: C_15  and  C_16 
ROOT
HETATM    1  N   UNL     1       5.156  28.139  50.845  1.00  0.00    -0.339 N 
HETATM    2  C   UNL     1       4.720  28.153  52.140  1.00  0.00     0.318 C 
HETATM    3  N   UNL     1       5.427  27.347  53.020  1.00  0.00    -0.330 N 
HETATM    4  C   UNL     1       6.621  26.535  52.694  1.00  0.00     0.089 C 
HETATM    5  C   UNL     1       7.764  26.862  53.674  1.00  0.00     0.025 C 
HETATM    6  C   UNL     1       7.334  26.790  55.137  1.00  0.00     0.004 C 
HETATM    7  C   UNL     1       6.104  27.660  55.377  1.00  0.00     0.020 C 
HETATM    8  C   UNL     1       4.977  27.301  54.414  1.00  0.00     0.128 C 
HETATM    9  O   UNL     1       3.778  28.862  52.487  1.00  0.00    -0.247 OA
HETATM   10  H   UNL     1       5.537  27.276  50.501  1.00  0.00     0.164 HD
ENDROOT
BRANCH   4  11
HETATM   11  C   UNL     1       6.305  25.024  52.674  1.00  0.00     0.030 C 
BRANCH  11  12
HETATM   12  C   UNL     1       7.542  24.165  52.393  1.00  0.00     0.040 C 
BRANCH  12  13
HETATM   13  C   UNL     1       7.636  22.999  53.345  1.00  0.00    -0.058 A 
HETATM   14  C   UNL     1       7.499  23.201  54.725  1.00  0.00     0.007 A 
HETATM   15  C   UNL     1       7.602  22.128  55.610  1.00  0.00     0.001 A 
HETATM   16  C   UNL     1       7.847  20.845  55.125  1.00  0.00     0.000 A 
HETATM   17  C   UNL     1       7.991  20.634  53.756  1.00  0.00     0.001 A 
HETATM   18  C   UNL     1       7.890  21.706  52.867  1.00  0.00     0.007 A 
ENDBRANCH  12  13
ENDBRANCH  11  12
ENDBRANCH   4  11
BRANCH   1  19
HETATM   19  C   UNL     1       4.500  28.954  49.849  1.00  0.00     0.167 C 
BRANCH  19  20
HETATM   20  C   UNL     1       3.381  28.159  49.279  1.00  0.00     0.009 A 
HETATM   21  C   UNL     1       2.019  28.317  49.465  1.00  0.00     0.034 A 
HETATM   22  C   UNL     1       1.233  29.291  50.257  1.00  0.00     0.070 C 
HETATM   23  N   UNL     1       1.424  27.337  48.720  1.00  0.00    -0.282 N 
HETATM   24  H   UNL     1       0.433  27.150  48.605  1.00  0.00     0.189 HD
HETATM   25  N   UNL     1       2.292  26.544  48.079  1.00  0.00    -0.179 NA
HETATM   26  C   UNL     1       3.489  27.041  48.404  1.00  0.00     0.060 A 
HETATM   27  C   UNL     1       4.730  26.416  47.879  1.00  0.00     0.073 C 
ENDBRANCH  19  20
ENDBRANCH   1  19
TORSDOF 5
ENDMDL
MODEL 5
REMARK VINA RESULT:      -8.8      2.424      3.950
REMARK  5 active torsions:
REMARK  status: ('A' for Active; 'I' for Inactive)
REMARK    1  A    between atoms: C_8  and  C_9 
REMARK    2  A    between atoms: C_9  and  N_10 
REMARK       I    between atoms: N_10  and  C_11 
REMARK       I    between atoms: C_11  and  N_12 
REMARK    3  A    between atoms: C_13  and  C_14 
REMARK    4  A    between atoms: C_14  and  C_15 
REMARK    5  A    between atoms: C_15  and  C_16 
ROOT
HETATM    1  N   UNL     1       8.646  28.759  57.748  1.00  0.00    -0.339 N 
HETATM    2  C   UNL     1       8.203  28.504  56.480  1.00  0.00     0.318 C 
HETATM    3  N   UNL     1       7.767  27.209  56.246  1.00  0.00    -0.330 N 
HETATM    4  C   UNL     1       7.688  26.119  57.244  1.00  0.00     0.089 C 
HETATM    5  C   UNL     1       6.273  25.510  57.249  1.00  0.00     0.025 C 
HETATM    6  C   UNL     1       5.787  25.122  55.856  1.00  0.00     0.004 C 
HETATM    7  C   UNL     1       5.900  26.305  54.900  1.00  0.00     0.020 C 
HETATM    8  C   UNL     1       7.315  26.875  54.892  1.00  0.00     0.128 C 
HETATM    9  O   UNL     1       8.177  29.387  55.626  1.00  0.00    -0.247 OA
HETATM   10  H   UNL     1       9.101  28.007  58.232  1.00  0.00     0.164 HD
ENDROOT
BRANCH   4  11
HETATM   11  C   UNL     1       8.770  25.043  57.013  1.00  0.00     0.030 C 
BRANCH  11  12
HETATM   12  C   UNL     1       8.317  23.646  57.449  1.00  0.00     0.040 C 
BRANCH  12  13
HETATM   13  C   UNL     1       8.414  22.652  56.319  1.00  0.00    -0.058 A 
HETATM   14  C   UNL     1       8.306  21.278  56.575  1.00  0.00     0.007 A 
HETATM   15  C   UNL     1       8.410  20.355  55.535  1.00  0.00     0.001 A 
HETATM   16  C   UNL     1       8.627  20.795  54.231  1.00  0.00     0.000 A 
HETATM   17  C   UNL     1       8.742  22.158  53.966  1.00  0.00     0.001 A 
HETATM   18  C   UNL     1       8.639  23.085  55.006  1.00  0.00     0.007 A 
ENDBRANCH  12  13
ENDBRANCH  11  12
ENDBRANCH   4  11
BRANCH   1  19
HETATM   19  C   UNL     1       9.108  30.080  58.103  1.00  0.00     0.167 C 
BRANCH  19  20
HETATM   20  C   UNL     1       8.117  30.669  59.042  1.00  0.00     0.009 A 
HETATM   21  C   UNL     1       6.845  31.145  58.779  1.00  0.00     0.034 A 
HETATM   22  C   UNL     1       6.058  31.228  57.527  1.00  0.00     0.070 C 
HETATM   23  N   UNL     1       6.350  31.573  59.978  1.00  0.00    -0.282 N 
HETATM   24  H   UNL     1       5.439  31.975  60.174  1.00  0.00     0.189 HD
HETATM   25  N   UNL     1       7.206  31.430  60.998  1.00  0.00    -0.179 NA
HETATM   26  C   UNL     1       8.284  30.870  60.442  1.00  0.00     0.060 A 
HETATM   27  C   UNL     1       9.477  30.552  61.268  1.00  0.00     0.073 C 
ENDBRANCH  19  20
ENDBRANCH   1  19
TORSDOF 5
ENDMDL
MODEL 6
REMARK VINA RESULT:      -8.7      2.323      5.894
REMARK  5 active torsions:
REMARK  status: ('A' for Active; 'I' for Inactive)
REMARK    1  A    between atoms: C_8  and  C_9 
REMARK    2  A    between atoms: C_9  and  N_10 
REMARK       I    between atoms: N_10  and  C_11 
REMARK       I    between atoms: C_11  and  N_12 
REMARK    3  A    between atoms: C_13  and  C_14 
REMARK    4  A    between atoms: C_14  and  C_15 
REMARK    5  A    between atoms: C_15  and  C_16 
ROOT
HETATM    1  N   UNL     1       4.515  27.432  51.543  1.00  0.00    -0.339 N 
HETATM    2  C   UNL     1       4.324  27.481  52.895  1.00  0.00     0.318 C 
HETATM    3  N   UNL     1       5.242  26.773  53.657  1.00  0.00    -0.330 N 
HETATM    4  C   UNL     1       6.416  26.033  53.145  1.00  0.00     0.089 C 
HETATM    5  C   UNL     1       7.690  26.491  53.881  1.00  0.00     0.025 C 
HETATM    6  C   UNL     1       7.542  26.462  55.400  1.00  0.00     0.004 C 
HETATM    7  C   UNL     1       6.312  27.253  55.833  1.00  0.00     0.020 C 
HETATM    8  C   UNL     1       5.060  26.766  55.112  1.00  0.00     0.128 C 
HETATM    9  O   UNL     1       3.408  28.137  53.385  1.00  0.00    -0.247 OA
HETATM   10  H   UNL     1       4.894  26.582  51.166  1.00  0.00     0.164 HD
ENDROOT
BRANCH   4  11
HETATM   11  C   UNL     1       6.224  24.504  53.239  1.00  0.00     0.030 C 
BRANCH  11  12
HETATM   12  C   UNL     1       7.453  23.723  52.766  1.00  0.00     0.040 C 
BRANCH  12  13
HETATM   13  C   UNL     1       7.749  22.551  53.669  1.00  0.00    -0.058 A 
HETATM   14  C   UNL     1       8.125  21.316  53.123  1.00  0.00     0.007 A 
HETATM   15  C   UNL     1       8.384  20.226  53.954  1.00  0.00     0.001 A 
HETATM   16  C   UNL     1       8.265  20.359  55.336  1.00  0.00     0.000 A 
HETATM   17  C   UNL     1       7.885  21.580  55.888  1.00  0.00     0.001 A 
HETATM   18  C   UNL     1       7.625  22.673  55.059  1.00  0.00     0.007 A 
ENDBRANCH  12  13
ENDBRANCH  11  12
ENDBRANCH   4  11
BRANCH   1  19
HETATM   19  C   UNL     1       3.625  28.146  50.658  1.00  0.00     0.167 C 
BRANCH  19  20
HETATM   20  C   UNL     1       4.182  28.050  49.282  1.00  0.00     0.009 A 
HETATM   21  C   UNL     1       4.057  27.022  48.364  1.00  0.00     0.034 A 
HETATM   22  C   UNL     1       3.354  25.719  48.423  1.00  0.00     0.070 C 
HETATM   23  N   UNL     1       4.747  27.425  47.255  1.00  0.00    -0.282 N 
HETATM   24  H   UNL     1       4.868  26.933  46.377  1.00  0.00     0.189 HD
HETATM   25  N   UNL     1       5.326  28.626  47.387  1.00  0.00    -0.179 NA
HETATM   26  C   UNL     1       4.980  29.022  48.616  1.00  0.00     0.060 A 
HETATM   27  C   UNL     1       5.443  30.331  49.142  1.00  0.00     0.073 C 
ENDBRANCH  19  20
ENDBRANCH   1  19
TORSDOF 5
ENDMDL
MODEL 7
REMARK VINA RESULT:      -8.4      1.653      5.511
REMARK  5 active torsions:
REMARK  status: ('A' for Active; 'I' for Inactive)
REMARK    1  A    between atoms: C_8  and  C_9 
REMARK    2  A    between atoms: C_9  and  N_10 
REMARK       I    between atoms: N_10  and  C_11 
REMARK       I    between atoms: C_11  and  N_12 
REMARK    3  A    between atoms: C_13  and  C_14 
REMARK    4  A    between atoms: C_14  and  C_15 
REMARK    5  A    between atoms: C_15  and  C_16 
ROOT
HETATM    1  N   UNL     1       6.028  28.178  52.730  1.00  0.00    -0.339 N 
HETATM    2  C   UNL     1       5.318  28.410  53.874  1.00  0.00     0.318 C 
HETATM    3  N   UNL     1       5.764  27.738  55.003  1.00  0.00    -0.330 N 
HETATM    4  C   UNL     1       6.949  26.857  55.084  1.00  0.00     0.089 C 
HETATM    5  C   UNL     1       7.865  27.310  56.238  1.00  0.00     0.025 C 
HETATM    6  C   UNL     1       7.119  27.483  57.558  1.00  0.00     0.004 C 
HETATM    7  C   UNL     1       5.920  28.409  57.377  1.00  0.00     0.020 C 
HETATM    8  C   UNL     1       5.015  27.927  56.249  1.00  0.00     0.128 C 
HETATM    9  O   UNL     1       4.367  29.187  53.886  1.00  0.00    -0.247 OA
HETATM   10  H   UNL     1       6.424  27.262  52.616  1.00  0.00     0.164 HD
ENDROOT
BRANCH   4  11
HETATM   11  C   UNL     1       6.557  25.370  55.220  1.00  0.00     0.030 C 
BRANCH  11  12
HETATM   12  C   UNL     1       7.706  24.500  55.739  1.00  0.00     0.040 C 
BRANCH  12  13
HETATM   13  C   UNL     1       7.784  23.185  55.004  1.00  0.00    -0.058 A 
HETATM   14  C   UNL     1       7.829  23.162  53.603  1.00  0.00     0.007 A 
HETATM   15  C   UNL     1       7.885  21.948  52.918  1.00  0.00     0.001 A 
HETATM   16  C   UNL     1       7.891  20.747  53.626  1.00  0.00     0.000 A 
HETATM   17  C   UNL     1       7.839  20.759  55.018  1.00  0.00     0.001 A 
HETATM   18  C   UNL     1       7.782  21.973  55.706  1.00  0.00     0.007 A 
ENDBRANCH  12  13
ENDBRANCH  11  12
ENDBRANCH   4  11
BRANCH   1  19
HETATM   19  C   UNL     1       5.659  28.838  51.500  1.00  0.00     0.167 C 
BRANCH  19  20
HETATM   20  C   UNL     1       4.955  27.844  50.646  1.00  0.00     0.009 A 
HETATM   21  C   UNL     1       5.074  26.466  50.638  1.00  0.00     0.034 A 
HETATM   22  C   UNL     1       5.902  25.538  51.442  1.00  0.00     0.070 C 
HETATM   23  N   UNL     1       4.211  26.022  49.676  1.00  0.00    -0.282 N 
HETATM   24  H   UNL     1       4.022  25.065  49.395  1.00  0.00     0.189 HD
HETATM   25  N   UNL     1       3.554  27.003  49.045  1.00  0.00    -0.179 NA
HETATM   26  C   UNL     1       3.992  28.120  49.635  1.00  0.00     0.060 A 
HETATM   27  C   UNL     1       3.487  29.447  49.200  1.00  0.00     0.073 C 
ENDBRANCH  19  20
ENDBRANCH   1  19
TORSDOF 5
ENDMDL
MODEL 8
REMARK VINA RESULT:      -8.4      1.948      2.459
REMARK  5 active torsions:
REMARK  status: ('A' for Active; 'I' for Inactive)
REMARK    1  A    between atoms: C_8  and  C_9 
REMARK    2  A    between atoms: C_9  and  N_10 
REMARK       I    between atoms: N_10  and  C_11 
REMARK       I    between atoms: C_11  and  N_12 
REMARK    3  A    between atoms: C_13  and  C_14 
REMARK    4  A    between atoms: C_14  and  C_15 
REMARK    5  A    between atoms: C_15  and  C_16 
ROOT
HETATM    1  N   UNL     1       6.645  28.449  55.325  1.00  0.00    -0.339 N 
HETATM    2  C   UNL     1       7.382  27.820  54.362  1.00  0.00     0.318 C 
HETATM    3  N   UNL     1       7.031  26.504  54.102  1.00  0.00    -0.330 N 
HETATM    4  C   UNL     1       5.915  25.758  54.723  1.00  0.00     0.089 C 
HETATM    5  C   UNL     1       5.017  25.146  53.630  1.00  0.00     0.025 C 
HETATM    6  C   UNL     1       5.803  24.351  52.590  1.00  0.00     0.004 C 
HETATM    7  C   UNL     1       6.926  25.201  52.003  1.00  0.00     0.020 C 
HETATM    8  C   UNL     1       7.815  25.774  53.100  1.00  0.00     0.128 C 
HETATM    9  O   UNL     1       8.277  28.409  53.760  1.00  0.00    -0.247 OA
HETATM   10  H   UNL     1       6.309  27.884  56.085  1.00  0.00     0.164 HD
ENDROOT
BRANCH   4  11
HETATM   11  C   UNL     1       6.415  24.685  55.714  1.00  0.00     0.030 C 
BRANCH  11  12
HETATM   12  C   UNL     1       7.896  24.345  55.519  1.00  0.00     0.040 C 
BRANCH  12  13
HETATM   13  C   UNL     1       8.114  22.856  55.408  1.00  0.00    -0.058 A 
HETATM   14  C   UNL     1       8.339  22.088  56.558  1.00  0.00     0.007 A 
HETATM   15  C   UNL     1       8.557  20.713  56.458  1.00  0.00     0.001 A 
HETATM   16  C   UNL     1       8.555  20.096  55.209  1.00  0.00     0.000 A 
HETATM   17  C   UNL     1       8.339  20.852  54.059  1.00  0.00     0.001 A 
HETATM   18  C   UNL     1       8.122  22.228  54.156  1.00  0.00     0.007 A 
ENDBRANCH  12  13
ENDBRANCH  11  12
ENDBRANCH   4  11
BRANCH   1  19
HETATM   19  C   UNL     1       6.917  29.826  55.665  1.00  0.00     0.167 C 
BRANCH  19  20
HETATM   20  C   UNL     1       7.260  29.876  57.111  1.00  0.00     0.009 A 
HETATM   21  C   UNL     1       6.514  30.373  58.165  1.00  0.00     0.034 A 
HETATM   22  C   UNL     1       5.171  30.997  58.222  1.00  0.00     0.070 C 
HETATM   23  N   UNL     1       7.273  30.179  59.285  1.00  0.00    -0.282 N 
HETATM   24  H   UNL     1       7.045  30.411  60.246  1.00  0.00     0.189 HD
HETATM   25  N   UNL     1       8.461  29.611  59.040  1.00  0.00    -0.179 NA
HETATM   26  C   UNL     1       8.461  29.412  57.718  1.00  0.00     0.060 A 
HETATM   27  C   UNL     1       9.634  28.792  57.051  1.00  0.00     0.073 C 
ENDBRANCH  19  20
ENDBRANCH   1  19
TORSDOF 5
ENDMDL
MODEL 9
REMARK VINA RESULT:      -8.2      2.054      5.010
REMARK  5 active torsions:
REMARK  status: ('A' for Active; 'I' for Inactive)
REMARK    1  A    between atoms: C_8  and  C_9 
REMARK    2  A    between atoms: C_9  and  N_10 
REMARK       I    between atoms: N_10  and  C_11 
REMARK       I    between atoms: C_11  and  N_12 
REMARK    3  A    between atoms: C_13  and  C_14 
REMARK    4  A    between atoms: C_14  and  C_15 
REMARK    5  A    between atoms: C_15  and  C_16 
ROOT
HETATM    1  N   UNL     1       7.856  26.189  56.248  1.00  0.00    -0.339 N 
HETATM    2  C   UNL     1       7.900  24.826  56.325  1.00  0.00     0.318 C 
HETATM    3  N   UNL     1       7.492  24.146  55.187  1.00  0.00    -0.330 N 
HETATM    4  C   UNL     1       7.078  24.758  53.905  1.00  0.00     0.089 C 
HETATM    5  C   UNL     1       7.887  24.150  52.744  1.00  0.00     0.025 C 
HETATM    6  C   UNL     1       7.874  22.624  52.745  1.00  0.00     0.004 C 
HETATM    7  C   UNL     1       8.320  22.085  54.100  1.00  0.00     0.020 C 
HETATM    8  C   UNL     1       7.489  22.681  55.232  1.00  0.00     0.128 C 
HETATM    9  O   UNL     1       8.303  24.259  57.338  1.00  0.00    -0.247 OA
HETATM   10  H   UNL     1       7.126  26.591  55.687  1.00  0.00     0.164 HD
ENDROOT
BRANCH   4  11
HETATM   11  C   UNL     1       5.558  24.631  53.668  1.00  0.00     0.030 C 
BRANCH  11  12
HETATM   12  C   UNL     1       5.147  25.014  52.243  1.00  0.00     0.040 C 
BRANCH  12  13
HETATM   13  C   UNL     1       5.002  26.508  52.089  1.00  0.00    -0.058 A 
HETATM   14  C   UNL     1       5.435  27.142  50.917  1.00  0.00     0.007 A 
HETATM   15  C   UNL     1       5.317  28.525  50.777  1.00  0.00     0.001 A 
HETATM   16  C   UNL     1       4.770  29.286  51.808  1.00  0.00     0.000 A 
HETATM   17  C   UNL     1       4.342  28.666  52.980  1.00  0.00     0.001 A 
HETATM   18  C   UNL     1       4.460  27.282  53.123  1.00  0.00     0.007 A 
ENDBRANCH  12  13
ENDBRANCH  11  12
ENDBRANCH   4  11
BRANCH   1  19
HETATM   19  C   UNL     1       8.273  26.994  57.372  1.00  0.00     0.167 C 
BRANCH  19  20
HETATM   20  C   UNL     1       7.295  28.104  57.521  1.00  0.00     0.009 A 
HETATM   21  C   UNL     1       5.933  28.102  57.276  1.00  0.00     0.034 A 
HETATM   22  C   UNL     1       5.012  27.041  56.805  1.00  0.00     0.070 C 
HETATM   23  N   UNL     1       5.497  29.363  57.572  1.00  0.00    -0.282 N 
HETATM   24  H   UNL     1       4.553  29.729  57.522  1.00  0.00     0.189 HD
HETATM   25  N   UNL     1       6.471  30.190  57.973  1.00  0.00    -0.179 NA
HETATM   26  C   UNL     1       7.571  29.431  57.956  1.00  0.00     0.060 A 
HETATM   27  C   UNL     1       8.886  30.004  58.343  1.00  0.00     0.073 C 
ENDBRANCH  19  20
ENDBRANCH   1  19
TORSDOF 5
ENDMDL
MODEL 10
REMARK VINA RESULT:      -8.1      3.718      6.018
REMARK  5 active torsions:
REMARK  status: ('A' for Active; 'I' for Inactive)
REMARK    1  A    between atoms: C_8  and  C_9 
REMARK    2  A    between atoms: C_9  and  N_10 
REMARK       I    between atoms: N_10  and  C_11 
REMARK       I    between atoms: C_11  and  N_12 
REMARK    3  A    between atoms: C_13  and  C_14 
REMARK    4  A    between atoms: C_14  and  C_15 
REMARK    5  A    between atoms: C_15  and  C_16 
ROOT
HETATM    1  N   UNL     1       7.747  31.608  59.298  1.00  0.00    -0.339 N 
HETATM    2  C   UNL     1       8.960  31.255  58.777  1.00  0.00     0.318 C 
HETATM    3  N   UNL     1       8.945  30.190  57.889  1.00  0.00    -0.330 N 
HETATM    4  C   UNL     1       7.746  29.457  57.424  1.00  0.00     0.089 C 
HETATM    5  C   UNL     1       7.715  29.423  55.884  1.00  0.00     0.025 C 
HETATM    6  C   UNL     1       9.025  28.936  55.272  1.00  0.00     0.004 C 
HETATM    7  C   UNL     1      10.200  29.751  55.804  1.00  0.00     0.020 C 
HETATM    8  C   UNL     1      10.226  29.750  57.329  1.00  0.00     0.128 C 
HETATM    9  O   UNL     1       9.982  31.871  59.070  1.00  0.00    -0.247 OA
HETATM   10  H   UNL     1       7.082  30.870  59.448  1.00  0.00     0.164 HD
ENDROOT
BRANCH   4  11
HETATM   11  C   UNL     1       7.665  28.038  58.026  1.00  0.00     0.030 C 
BRANCH  11  12
HETATM   12  C   UNL     1       6.613  27.163  57.338  1.00  0.00     0.040 C 
BRANCH  12  13
HETATM   13  C   UNL     1       7.205  25.866  56.845  1.00  0.00    -0.058 A 
HETATM   14  C   UNL     1       8.394  25.375  57.404  1.00  0.00     0.007 A 
HETATM   15  C   UNL     1       8.954  24.184  56.940  1.00  0.00     0.001 A 
HETATM   16  C   UNL     1       8.334  23.476  55.912  1.00  0.00     0.000 A 
HETATM   17  C   UNL     1       7.156  23.959  55.346  1.00  0.00     0.001 A 
HETATM   18  C   UNL     1       6.594  25.151  55.807  1.00  0.00     0.007 A 
ENDBRANCH  12  13
ENDBRANCH  11  12
ENDBRANCH   4  11
BRANCH   1  19
HETATM   19  C   UNL     1       7.648  32.713  60.222  1.00  0.00     0.167 C 
BRANCH  19  20
HETATM   20  C   UNL     1       6.555  32.404  61.182  1.00  0.00     0.009 A 
HETATM   21  C   UNL     1       5.203  32.243  60.939  1.00  0.00     0.034 A 
HETATM   22  C   UNL     1       4.405  32.316  59.693  1.00  0.00     0.070 C 
HETATM   23  N   UNL     1       4.635  31.966  62.150  1.00  0.00    -0.282 N 
HETATM   24  H   UNL     1       3.660  31.779  62.359  1.00  0.00     0.189 HD
HETATM   25  N   UNL     1       5.508  31.952  63.166  1.00  0.00    -0.179 NA
HETATM   26  C   UNL     1       6.685  32.207  62.586  1.00  0.00     0.060 A 
HETATM   27  C   UNL     1       7.925  32.279  63.402  1.00  0.00     0.073 C 
ENDBRANCH  19  20
ENDBRANCH   1  19
TORSDOF 5
ENDMDL
