MODEL 1
REMARK VINA RESULT:     -10.7      0.000      0.000
REMARK  6 active torsions:
REMARK  status: ('A' for Active; 'I' for Inactive)
REMARK    1  A    between atoms: C_2  and  C_3 
REMARK    2  A    between atoms: C_5  and  N_6 
REMARK       I    between atoms: N_6  and  C_7 
REMARK    3  A    between atoms: C_7  and  C_8 
REMARK    4  A    between atoms: N_11  and  C_12 
REMARK    5  A    between atoms: C_18  and  C_19 
REMARK    6  A    between atoms: C_28  and  O_29 
ROOT
HETATM    1  C   UNL     1       6.298  28.021  57.332  1.00  0.00     0.081 C 
HETATM    2  C   UNL     1       5.202  27.174  56.659  1.00  0.00     0.034 C 
HETATM    3  C   UNL     1       5.661  26.487  55.369  1.00  0.00     0.125 C 
HETATM    4  N   UNL     1       6.897  25.720  55.586  1.00  0.00    -0.364 N 
HETATM    5  C   UNL     1       7.983  26.535  56.162  1.00  0.00     0.125 C 
HETATM    6  C   UNL     1       7.550  27.154  57.482  1.00  0.00     0.034 C 
ENDROOT
BRANCH   1   7
HETATM    7  C   UNL     1       6.560  29.313  56.561  1.00  0.00     0.226 C 
HETATM    8  N   UNL     1       6.716  30.525  57.155  1.00  0.00    -0.324 N 
HETATM    9  H   UNL     1       7.065  31.196  56.477  1.00  0.00     0.169 HD
HETATM   10  O   UNL     1       6.667  29.295  55.329  1.00  0.00    -0.273 OA
BRANCH   8  11
HETATM   11  C   UNL     1       6.619  31.038  58.464  1.00  0.00     0.068 A 
HETATM   12  C   UNL     1       7.592  30.938  59.459  1.00  0.00     0.040 A 
HETATM   13  C   UNL     1       7.465  31.598  60.704  1.00  0.00    -0.048 A 
HETATM   14  C   UNL     1       6.296  32.347  60.927  1.00  0.00     0.011 A 
HETATM   15  C   UNL     1       5.278  32.396  59.976  1.00  0.00     0.039 A 
HETATM   16  C   UNL     1       5.440  31.728  58.772  1.00  0.00     0.092 A 
BRANCH  13  17
HETATM   17  C   UNL     1       8.612  31.580  61.736  1.00  0.00    -0.024 C 
HETATM   18  C   UNL     1       9.870  32.157  61.057  1.00  0.00     0.019 C 
HETATM   19  C   UNL     1       8.941  30.156  62.244  1.00  0.00     0.019 C 
HETATM   20  C   UNL     1       8.294  32.427  62.989  1.00  0.00     0.019 C 
ENDBRANCH  13  17
BRANCH  16  21
HETATM   21  O   UNL     1       4.410  31.780  57.871  1.00  0.00    -0.358 OA
HETATM   22  H   UNL     1       4.704  31.257  57.104  1.00  0.00     0.218 HD
ENDBRANCH  16  21
ENDBRANCH   8  11
ENDBRANCH   1   7
BRANCH   4  23
HETATM   23  C   UNL     1       7.256  24.628  54.784  1.00  0.00     0.146 A 
HETATM   24  N   UNL     1       7.593  23.513  55.396  1.00  0.00    -0.146 NA
HETATM   25  N   UNL     1       7.932  22.474  54.596  1.00  0.00    -0.188 N 
HETATM   26  C   UNL     1       7.966  22.455  53.222  1.00  0.00     0.175 A 
HETATM   27  C   UNL     1       8.312  21.220  54.985  1.00  0.00     0.258 A 
HETATM   28  C   UNL     1       7.595  23.634  52.556  1.00  0.00     0.058 A 
HETATM   29  N   UNL     1       8.350  21.270  52.802  1.00  0.00    -0.128 NA
HETATM   30  C   UNL     1       7.239  24.705  53.277  1.00  0.00     0.056 A 
HETATM   31  N   UNL     1       8.570  20.487  53.914  1.00  0.00    -0.123 NA
BRANCH  27  32
HETATM   32  C   UNL     1       8.381  20.857  56.407  1.00  0.00     0.454 C 
HETATM   33  F   UNL     1       7.320  20.106  56.809  1.00  0.00    -0.163 F 
HETATM   34  F   UNL     1       9.490  20.124  56.702  1.00  0.00    -0.163 F 
HETATM   35  F   UNL     1       8.424  21.945  57.223  1.00  0.00    -0.163 F 
ENDBRANCH  27  32
ENDBRANCH   4  23
TORSDOF 6
ENDMDL
MODEL 2
REMARK VINA RESULT:     -10.6      1.147      1.934
REMARK  6 active torsions:
REMARK  status: ('A' for Active; 'I' for Inactive)
REMARK    1  A    between atoms: C_2  and  C_3 
REMARK    2  A    between atoms: C_5  and  N_6 
REMARK       I    between atoms: N_6  and  C_7 
REMARK    3  A    between atoms: C_7  and  C_8 
REMARK    4  A    between atoms: N_11  and  C_12 
REMARK    5  A    between atoms: C_18  and  C_19 
REMARK    6  A    between atoms: C_28  and  O_29 
ROOT
HETATM    1  C   UNL     1       6.321  28.438  57.662  1.00  0.00     0.081 C 
HETATM    2  C   UNL     1       5.220  27.626  56.954  1.00  0.00     0.034 C 
HETATM    3  C   UNL     1       5.665  27.022  55.617  1.00  0.00     0.125 C 
HETATM    4  N   UNL     1       6.908  26.252  55.771  1.00  0.00    -0.364 N 
HETATM    5  C   UNL     1       7.998  27.037  56.380  1.00  0.00     0.125 C 
HETATM    6  C   UNL     1       7.580  27.572  57.741  1.00  0.00     0.034 C 
ENDROOT
BRANCH   1   7
HETATM    7  C   UNL     1       6.564  29.776  56.968  1.00  0.00     0.226 C 
HETATM    8  N   UNL     1       7.190  30.827  57.559  1.00  0.00    -0.324 N 
HETATM    9  H   UNL     1       7.409  31.532  56.860  1.00  0.00     0.169 HD
HETATM   10  O   UNL     1       6.209  29.945  55.795  1.00  0.00    -0.273 OA
BRANCH   8  11
HETATM   11  C   UNL     1       7.693  31.124  58.841  1.00  0.00     0.068 A 
HETATM   12  C   UNL     1       7.007  31.790  59.858  1.00  0.00     0.040 A 
HETATM   13  C   UNL     1       7.541  31.927  61.160  1.00  0.00    -0.048 A 
HETATM   14  C   UNL     1       8.820  31.391  61.399  1.00  0.00     0.011 A 
HETATM   15  C   UNL     1       9.553  30.791  60.377  1.00  0.00     0.039 A 
HETATM   16  C   UNL     1       8.994  30.683  59.112  1.00  0.00     0.092 A 
BRANCH  13  17
HETATM   17  C   UNL     1       6.710  32.551  62.301  1.00  0.00    -0.024 C 
HETATM   18  C   UNL     1       7.640  32.743  63.515  1.00  0.00     0.019 C 
HETATM   19  C   UNL     1       5.520  31.662  62.733  1.00  0.00     0.019 C 
HETATM   20  C   UNL     1       6.112  33.924  61.915  1.00  0.00     0.019 C 
ENDBRANCH  13  17
BRANCH  16  21
HETATM   21  O   UNL     1       9.752  30.109  58.128  1.00  0.00    -0.358 OA
HETATM   22  H   UNL     1      10.554  29.778  58.571  1.00  0.00     0.218 HD
ENDBRANCH  16  21
ENDBRANCH   8  11
ENDBRANCH   1   7
BRANCH   4  23
HETATM   23  C   UNL     1       7.262  25.213  54.899  1.00  0.00     0.146 A 
HETATM   24  N   UNL     1       7.570  24.052  55.434  1.00  0.00    -0.146 NA
HETATM   25  N   UNL     1       7.904  23.066  54.568  1.00  0.00    -0.188 N 
HETATM   26  C   UNL     1       7.961  23.144  53.197  1.00  0.00     0.175 A 
HETATM   27  C   UNL     1       8.255  21.780  54.872  1.00  0.00     0.258 A 
HETATM   28  C   UNL     1       7.622  24.374  52.611  1.00  0.00     0.058 A 
HETATM   29  N   UNL     1       8.332  21.985  52.700  1.00  0.00    -0.128 NA
HETATM   30  C   UNL     1       7.272  25.398  53.401  1.00  0.00     0.056 A 
HETATM   31  N   UNL     1       8.519  21.121  53.756  1.00  0.00    -0.123 NA
BRANCH  27  32
HETATM   32  C   UNL     1       8.294  21.316  56.266  1.00  0.00     0.454 C 
HETATM   33  F   UNL     1       7.204  20.575  56.601  1.00  0.00    -0.163 F 
HETATM   34  F   UNL     1       9.375  20.528  56.520  1.00  0.00    -0.163 F 
HETATM   35  F   UNL     1       8.361  22.342  57.157  1.00  0.00    -0.163 F 
ENDBRANCH  27  32
ENDBRANCH   4  23
TORSDOF 6
ENDMDL
MODEL 3
REMARK VINA RESULT:     -10.5      4.665      9.990
REMARK  6 active torsions:
REMARK  status: ('A' for Active; 'I' for Inactive)
REMARK    1  A    between atoms: C_2  and  C_3 
REMARK    2  A    between atoms: C_5  and  N_6 
REMARK       I    between atoms: N_6  and  C_7 
REMARK    3  A    between atoms: C_7  and  C_8 
REMARK    4  A    between atoms: N_11  and  C_12 
REMARK    5  A    between atoms: C_18  and  C_19 
REMARK    6  A    between atoms: C_28  and  O_29 
ROOT
HETATM    1  C   UNL     1       6.340  28.612  55.648  1.00  0.00     0.081 C 
HETATM    2  C   UNL     1       6.119  30.122  55.851  1.00  0.00     0.034 C 
HETATM    3  C   UNL     1       6.025  30.537  57.324  1.00  0.00     0.125 C 
HETATM    4  N   UNL     1       7.176  30.039  58.090  1.00  0.00    -0.364 N 
HETATM    5  C   UNL     1       7.358  28.580  57.967  1.00  0.00     0.125 C 
HETATM    6  C   UNL     1       7.528  28.181  56.509  1.00  0.00     0.034 C 
ENDROOT
BRANCH   1   7
HETATM    7  C   UNL     1       5.071  27.816  55.945  1.00  0.00     0.226 C 
HETATM    8  N   UNL     1       4.880  26.530  55.551  1.00  0.00    -0.324 N 
HETATM    9  H   UNL     1       4.062  26.147  56.016  1.00  0.00     0.169 HD
HETATM   10  O   UNL     1       4.153  28.325  56.600  1.00  0.00    -0.273 OA
BRANCH   8  11
HETATM   11  C   UNL     1       5.578  25.591  54.765  1.00  0.00     0.068 A 
HETATM   12  C   UNL     1       6.614  24.764  55.200  1.00  0.00     0.040 A 
HETATM   13  C   UNL     1       7.168  23.756  54.377  1.00  0.00    -0.048 A 
HETATM   14  C   UNL     1       6.657  23.629  53.072  1.00  0.00     0.011 A 
HETATM   15  C   UNL     1       5.676  24.495  52.593  1.00  0.00     0.039 A 
HETATM   16  C   UNL     1       5.166  25.474  53.432  1.00  0.00     0.092 A 
BRANCH  13  17
HETATM   17  C   UNL     1       8.221  22.770  54.923  1.00  0.00    -0.024 C 
HETATM   18  C   UNL     1       9.131  23.541  55.900  1.00  0.00     0.019 C 
HETATM   19  C   UNL     1       9.106  22.158  53.812  1.00  0.00     0.019 C 
HETATM   20  C   UNL     1       7.583  21.580  55.678  1.00  0.00     0.019 C 
ENDBRANCH  13  17
BRANCH  16  21
HETATM   21  O   UNL     1       4.220  26.322  52.920  1.00  0.00    -0.358 OA
HETATM   22  H   UNL     1       3.604  26.503  53.652  1.00  0.00     0.218 HD
ENDBRANCH  16  21
ENDBRANCH   8  11
ENDBRANCH   1   7
BRANCH   4  23
HETATM   23  C   UNL     1       7.619  30.653  59.270  1.00  0.00     0.146 A 
HETATM   24  N   UNL     1       6.767  31.428  59.905  1.00  0.00    -0.146 NA
HETATM   25  N   UNL     1       7.220  32.005  61.044  1.00  0.00    -0.188 N 
HETATM   26  C   UNL     1       8.467  31.874  61.606  1.00  0.00     0.175 A 
HETATM   27  C   UNL     1       6.532  32.841  61.879  1.00  0.00     0.258 A 
HETATM   28  C   UNL     1       9.383  31.038  60.946  1.00  0.00     0.058 A 
HETATM   29  N   UNL     1       8.537  32.590  62.706  1.00  0.00    -0.128 NA
HETATM   30  C   UNL     1       9.007  30.425  59.816  1.00  0.00     0.056 A 
HETATM   31  N   UNL     1       7.317  33.203  62.881  1.00  0.00    -0.123 NA
BRANCH  27  32
HETATM   32  C   UNL     1       5.137  33.207  61.602  1.00  0.00     0.454 C 
HETATM   33  F   UNL     1       4.314  32.125  61.543  1.00  0.00    -0.163 F 
HETATM   34  F   UNL     1       4.614  34.022  62.559  1.00  0.00    -0.163 F 
HETATM   35  F   UNL     1       4.994  33.872  60.423  1.00  0.00    -0.163 F 
ENDBRANCH  27  32
ENDBRANCH   4  23
TORSDOF 6
ENDMDL
MODEL 4
REMARK VINA RESULT:     -10.5      1.603      2.675
REMARK  6 active torsions:
REMARK  status: ('A' for Active; 'I' for Inactive)
REMARK    1  A    between atoms: C_2  and  C_3 
REMARK    2  A    between atoms: C_5  and  N_6 
REMARK       I    between atoms: N_6  and  C_7 
REMARK    3  A    between atoms: C_7  and  C_8 
REMARK    4  A    between atoms: N_11  and  C_12 
REMARK    5  A    between atoms: C_18  and  C_19 
REMARK    6  A    between atoms: C_28  and  O_29 
ROOT
HETATM    1  C   UNL     1       7.281  28.150  57.585  1.00  0.00     0.081 C 
HETATM    2  C   UNL     1       6.663  28.180  56.174  1.00  0.00     0.034 C 
HETATM    3  C   UNL     1       7.397  27.294  55.162  1.00  0.00     0.125 C 
HETATM    4  N   UNL     1       7.549  25.923  55.669  1.00  0.00    -0.364 N 
HETATM    5  C   UNL     1       8.208  25.870  56.988  1.00  0.00     0.125 C 
HETATM    6  C   UNL     1       7.434  26.688  58.009  1.00  0.00     0.034 C 
ENDROOT
BRANCH   1   7
HETATM    7  C   UNL     1       8.595  28.924  57.636  1.00  0.00     0.226 C 
HETATM    8  N   UNL     1       8.791  30.024  58.410  1.00  0.00    -0.324 N 
HETATM    9  H   UNL     1       9.779  30.256  58.432  1.00  0.00     0.169 HD
HETATM   10  O   UNL     1       9.569  28.549  56.971  1.00  0.00    -0.273 OA
BRANCH   8  11
HETATM   11  C   UNL     1       7.999  30.832  59.250  1.00  0.00     0.068 A 
HETATM   12  C   UNL     1       6.896  31.591  58.857  1.00  0.00     0.040 A 
HETATM   13  C   UNL     1       6.078  32.269  59.792  1.00  0.00    -0.048 A 
HETATM   14  C   UNL     1       6.432  32.180  61.150  1.00  0.00     0.011 A 
HETATM   15  C   UNL     1       7.573  31.490  61.555  1.00  0.00     0.039 A 
HETATM   16  C   UNL     1       8.351  30.846  60.605  1.00  0.00     0.092 A 
BRANCH  13  17
HETATM   17  C   UNL     1       4.790  32.993  59.346  1.00  0.00    -0.024 C 
HETATM   18  C   UNL     1       4.518  34.133  60.347  1.00  0.00     0.019 C 
HETATM   19  C   UNL     1       3.555  32.062  59.320  1.00  0.00     0.019 C 
HETATM   20  C   UNL     1       4.911  33.598  57.929  1.00  0.00     0.019 C 
ENDBRANCH  13  17
BRANCH  16  21
HETATM   21  O   UNL     1       9.478  30.199  61.037  1.00  0.00    -0.358 OA
HETATM   22  H   UNL     1      10.089  30.899  61.327  1.00  0.00     0.218 HD
ENDBRANCH  16  21
ENDBRANCH   8  11
ENDBRANCH   1   7
BRANCH   4  23
HETATM   23  C   UNL     1       7.702  24.818  54.820  1.00  0.00     0.146 A 
HETATM   24  N   UNL     1       7.875  23.642  55.382  1.00  0.00    -0.146 NA
HETATM   25  N   UNL     1       8.015  22.592  54.537  1.00  0.00    -0.188 N 
HETATM   26  C   UNL     1       8.001  22.620  53.163  1.00  0.00     0.175 A 
HETATM   27  C   UNL     1       8.201  21.280  54.871  1.00  0.00     0.258 A 
HETATM   28  C   UNL     1       7.803  23.868  52.550  1.00  0.00     0.058 A 
HETATM   29  N   UNL     1       8.175  21.405  52.691  1.00  0.00    -0.128 NA
HETATM   30  C   UNL     1       7.648  24.954  53.317  1.00  0.00     0.056 A 
HETATM   31  N   UNL     1       8.302  20.556  53.768  1.00  0.00    -0.123 NA
BRANCH  27  32
HETATM   32  C   UNL     1       8.258  20.858  56.277  1.00  0.00     0.454 C 
HETATM   33  F   UNL     1       7.208  20.068  56.630  1.00  0.00    -0.163 F 
HETATM   34  F   UNL     1       9.378  20.136  56.557  1.00  0.00    -0.163 F 
HETATM   35  F   UNL     1       8.265  21.910  57.140  1.00  0.00    -0.163 F 
ENDBRANCH  27  32
ENDBRANCH   4  23
TORSDOF 6
ENDMDL
MODEL 5
REMARK VINA RESULT:     -10.5      3.820      9.799
REMARK  6 active torsions:
REMARK  status: ('A' for Active; 'I' for Inactive)
REMARK    1  A    between atoms: C_2  and  C_3 
REMARK    2  A    between atoms: C_5  and  N_6 
REMARK       I    between atoms: N_6  and  C_7 
REMARK    3  A    between atoms: C_7  and  C_8 
REMARK    4  A    between atoms: N_11  and  C_12 
REMARK    5  A    between atoms: C_18  and  C_19 
REMARK    6  A    between atoms: C_28  and  O_29 
ROOT
HETATM    1  C   UNL     1       7.368  27.258  55.157  1.00  0.00     0.081 C 
HETATM    2  C   UNL     1       7.408  28.749  54.773  1.00  0.00     0.034 C 
HETATM    3  C   UNL     1       6.517  29.635  55.651  1.00  0.00     0.125 C 
HETATM    4  N   UNL     1       6.800  29.423  57.078  1.00  0.00    -0.364 N 
HETATM    5  C   UNL     1       6.692  28.008  57.480  1.00  0.00     0.125 C 
HETATM    6  C   UNL     1       7.635  27.142  56.659  1.00  0.00     0.034 C 
ENDROOT
BRANCH   1   7
HETATM    7  C   UNL     1       6.052  26.608  54.736  1.00  0.00     0.226 C 
HETATM    8  N   UNL     1       5.933  25.295  54.407  1.00  0.00    -0.324 N 
HETATM    9  H   UNL     1       4.951  25.044  54.348  1.00  0.00     0.169 HD
HETATM   10  O   UNL     1       5.009  27.272  54.703  1.00  0.00    -0.273 OA
BRANCH   8  11
HETATM   11  C   UNL     1       6.809  24.204  54.240  1.00  0.00     0.068 A 
HETATM   12  C   UNL     1       7.209  23.312  55.237  1.00  0.00     0.040 A 
HETATM   13  C   UNL     1       7.986  22.165  54.952  1.00  0.00    -0.048 A 
HETATM   14  C   UNL     1       8.378  21.961  53.616  1.00  0.00     0.011 A 
HETATM   15  C   UNL     1       8.054  22.880  52.620  1.00  0.00     0.039 A 
HETATM   16  C   UNL     1       7.296  23.995  52.944  1.00  0.00     0.092 A 
BRANCH  13  17
HETATM   17  C   UNL     1       8.305  21.126  56.047  1.00  0.00    -0.024 C 
HETATM   18  C   UNL     1       8.361  21.864  57.399  1.00  0.00     0.019 C 
HETATM   19  C   UNL     1       9.660  20.413  55.823  1.00  0.00     0.019 C 
HETATM   20  C   UNL     1       7.236  20.013  56.136  1.00  0.00     0.019 C 
ENDBRANCH  13  17
BRANCH  16  21
HETATM   21  O   UNL     1       7.017  24.888  51.945  1.00  0.00    -0.358 OA
HETATM   22  H   UNL     1       7.224  24.426  51.113  1.00  0.00     0.218 HD
ENDBRANCH  16  21
ENDBRANCH   8  11
ENDBRANCH   1   7
BRANCH   4  23
HETATM   23  C   UNL     1       6.538  30.398  58.051  1.00  0.00     0.146 A 
HETATM   24  N   UNL     1       7.516  30.711  58.872  1.00  0.00    -0.146 NA
HETATM   25  N   UNL     1       7.235  31.659  59.799  1.00  0.00    -0.188 N 
HETATM   26  C   UNL     1       6.046  32.325  59.977  1.00  0.00     0.175 A 
HETATM   27  C   UNL     1       8.076  32.157  60.754  1.00  0.00     0.258 A 
HETATM   28  C   UNL     1       4.998  32.011  59.097  1.00  0.00     0.058 A 
HETATM   29  N   UNL     1       6.154  33.167  60.981  1.00  0.00    -0.128 NA
HETATM   30  C   UNL     1       5.199  31.088  58.148  1.00  0.00     0.056 A 
HETATM   31  N   UNL     1       7.435  33.063  61.475  1.00  0.00    -0.123 NA
BRANCH  27  32
HETATM   32  C   UNL     1       9.463  31.683  60.864  1.00  0.00     0.454 C 
HETATM   33  F   UNL     1      10.197  31.950  59.750  1.00  0.00    -0.163 F 
HETATM   34  F   UNL     1      10.130  32.264  61.899  1.00  0.00    -0.163 F 
HETATM   35  F   UNL     1       9.542  30.341  61.073  1.00  0.00    -0.163 F 
ENDBRANCH  27  32
ENDBRANCH   4  23
TORSDOF 6
ENDMDL
MODEL 6
REMARK VINA RESULT:     -10.2      4.417     10.027
REMARK  6 active torsions:
REMARK  status: ('A' for Active; 'I' for Inactive)
REMARK    1  A    between atoms: C_2  and  C_3 
REMARK    2  A    between atoms: C_5  and  N_6 
REMARK       I    between atoms: N_6  and  C_7 
REMARK    3  A    between atoms: C_7  and  C_8 
REMARK    4  A    between atoms: N_11  and  C_12 
REMARK    5  A    between atoms: C_18  and  C_19 
REMARK    6  A    between atoms: C_28  and  O_29 
ROOT
HETATM    1  C   UNL     1       7.888  27.769  56.428  1.00  0.00     0.081 C 
HETATM    2  C   UNL     1       8.798  28.437  57.476  1.00  0.00     0.034 C 
HETATM    3  C   UNL     1       8.448  29.904  57.748  1.00  0.00     0.125 C 
HETATM    4  N   UNL     1       7.022  30.058  58.075  1.00  0.00    -0.364 N 
HETATM    5  C   UNL     1       6.134  29.489  57.045  1.00  0.00     0.125 C 
HETATM    6  C   UNL     1       6.433  28.013  56.832  1.00  0.00     0.034 C 
ENDROOT
BRANCH   1   7
HETATM    7  C   UNL     1       8.204  28.260  55.018  1.00  0.00     0.226 C 
HETATM    8  N   UNL     1       7.922  27.551  53.893  1.00  0.00    -0.324 N 
HETATM    9  H   UNL     1       8.040  28.144  53.077  1.00  0.00     0.169 HD
HETATM   10  O   UNL     1       8.722  29.371  54.844  1.00  0.00    -0.273 OA
BRANCH   8  11
HETATM   11  C   UNL     1       7.418  26.270  53.597  1.00  0.00     0.068 A 
HETATM   12  C   UNL     1       8.027  25.055  53.913  1.00  0.00     0.040 A 
HETATM   13  C   UNL     1       7.385  23.813  53.695  1.00  0.00    -0.048 A 
HETATM   14  C   UNL     1       6.105  23.835  53.113  1.00  0.00     0.011 A 
HETATM   15  C   UNL     1       5.512  25.034  52.720  1.00  0.00     0.039 A 
HETATM   16  C   UNL     1       6.179  26.228  52.945  1.00  0.00     0.092 A 
BRANCH  13  17
HETATM   17  C   UNL     1       8.024  22.491  54.173  1.00  0.00    -0.024 C 
HETATM   18  C   UNL     1       7.819  21.439  53.065  1.00  0.00     0.019 C 
HETATM   19  C   UNL     1       7.391  21.955  55.478  1.00  0.00     0.019 C 
HETATM   20  C   UNL     1       9.539  22.631  54.447  1.00  0.00     0.019 C 
ENDBRANCH  13  17
BRANCH  16  21
HETATM   21  O   UNL     1       5.576  27.384  52.525  1.00  0.00    -0.358 OA
HETATM   22  H   UNL     1       6.283  27.918  52.121  1.00  0.00     0.218 HD
ENDBRANCH  16  21
ENDBRANCH   8  11
ENDBRANCH   1   7
BRANCH   4  23
HETATM   23  C   UNL     1       6.535  31.130  58.836  1.00  0.00     0.146 A 
HETATM   24  N   UNL     1       7.121  31.369  59.988  1.00  0.00    -0.146 NA
HETATM   25  N   UNL     1       6.632  32.414  60.699  1.00  0.00    -0.188 N 
HETATM   26  C   UNL     1       5.594  33.246  60.353  1.00  0.00     0.175 A 
HETATM   27  C   UNL     1       7.068  32.865  61.914  1.00  0.00     0.258 A 
HETATM   28  C   UNL     1       4.969  33.010  59.118  1.00  0.00     0.058 A 
HETATM   29  N   UNL     1       5.405  34.139  61.299  1.00  0.00    -0.128 NA
HETATM   30  C   UNL     1       5.400  31.999  58.352  1.00  0.00     0.056 A 
HETATM   31  N   UNL     1       6.335  33.900  62.287  1.00  0.00    -0.123 NA
BRANCH  27  32
HETATM   32  C   UNL     1       8.194  32.218  62.602  1.00  0.00     0.454 C 
HETATM   33  F   UNL     1       7.972  30.897  62.841  1.00  0.00    -0.163 F 
HETATM   34  F   UNL     1       9.347  32.278  61.881  1.00  0.00    -0.163 F 
HETATM   35  F   UNL     1       8.473  32.793  63.803  1.00  0.00    -0.163 F 
ENDBRANCH  27  32
ENDBRANCH   4  23
TORSDOF 6
ENDMDL
MODEL 7
REMARK VINA RESULT:     -10.0      4.927      8.058
REMARK  6 active torsions:
REMARK  status: ('A' for Active; 'I' for Inactive)
REMARK    1  A    between atoms: C_2  and  C_3 
REMARK    2  A    between atoms: C_5  and  N_6 
REMARK       I    between atoms: N_6  and  C_7 
REMARK    3  A    between atoms: C_7  and  C_8 
REMARK    4  A    between atoms: N_11  and  C_12 
REMARK    5  A    between atoms: C_18  and  C_19 
REMARK    6  A    between atoms: C_28  and  O_29 
ROOT
HETATM    1  C   UNL     1       6.009  27.972  52.812  1.00  0.00     0.081 C 
HETATM    2  C   UNL     1       6.559  28.124  54.243  1.00  0.00     0.034 C 
HETATM    3  C   UNL     1       6.423  26.855  55.092  1.00  0.00     0.125 C 
HETATM    4  N   UNL     1       6.994  25.690  54.400  1.00  0.00    -0.364 N 
HETATM    5  C   UNL     1       6.423  25.485  53.056  1.00  0.00     0.125 C 
HETATM    6  C   UNL     1       6.628  26.719  52.191  1.00  0.00     0.034 C 
ENDROOT
BRANCH   1   7
HETATM    7  C   UNL     1       4.482  27.948  52.800  1.00  0.00     0.226 C 
HETATM    8  N   UNL     1       3.737  28.054  51.668  1.00  0.00    -0.324 N 
HETATM    9  H   UNL     1       2.769  27.824  51.873  1.00  0.00     0.169 HD
HETATM   10  O   UNL     1       3.850  27.801  53.854  1.00  0.00    -0.273 OA
BRANCH   8  11
HETATM   11  C   UNL     1       3.988  28.292  50.303  1.00  0.00     0.068 A 
HETATM   12  C   UNL     1       3.980  29.536  49.671  1.00  0.00     0.040 A 
HETATM   13  C   UNL     1       4.374  29.697  48.321  1.00  0.00    -0.048 A 
HETATM   14  C   UNL     1       4.752  28.542  47.612  1.00  0.00     0.011 A 
HETATM   15  C   UNL     1       4.693  27.281  48.202  1.00  0.00     0.039 A 
HETATM   16  C   UNL     1       4.294  27.168  49.526  1.00  0.00     0.092 A 
BRANCH  13  17
HETATM   17  C   UNL     1       4.482  31.098  47.684  1.00  0.00    -0.024 C 
HETATM   18  C   UNL     1       3.112  31.790  47.827  1.00  0.00     0.019 C 
HETATM   19  C   UNL     1       4.850  31.048  46.182  1.00  0.00     0.019 C 
HETATM   20  C   UNL     1       5.554  31.978  48.367  1.00  0.00     0.019 C 
ENDBRANCH  13  17
BRANCH  16  21
HETATM   21  O   UNL     1       4.226  25.911  50.065  1.00  0.00    -0.358 OA
HETATM   22  H   UNL     1       4.085  26.041  51.020  1.00  0.00     0.218 HD
ENDBRANCH  16  21
ENDBRANCH   8  11
ENDBRANCH   1   7
BRANCH   4  23
HETATM   23  C   UNL     1       7.464  24.562  55.088  1.00  0.00     0.146 A 
HETATM   24  N   UNL     1       7.651  23.463  54.390  1.00  0.00    -0.146 NA
HETATM   25  N   UNL     1       8.109  22.391  55.079  1.00  0.00    -0.188 N 
HETATM   26  C   UNL     1       8.396  22.322  56.422  1.00  0.00     0.175 A 
HETATM   27  C   UNL     1       8.385  21.146  54.586  1.00  0.00     0.258 A 
HETATM   28  C   UNL     1       8.214  23.493  57.176  1.00  0.00     0.058 A 
HETATM   29  N   UNL     1       8.811  21.113  56.727  1.00  0.00    -0.128 NA
HETATM   30  C   UNL     1       7.770  24.599  56.565  1.00  0.00     0.056 A 
HETATM   31  N   UNL     1       8.805  20.367  55.570  1.00  0.00    -0.123 NA
BRANCH  27  32
HETATM   32  C   UNL     1       8.208  20.841  53.160  1.00  0.00     0.454 C 
HETATM   33  F   UNL     1       9.131  19.956  52.695  1.00  0.00    -0.163 F 
HETATM   34  F   UNL     1       6.993  20.288  52.895  1.00  0.00    -0.163 F 
HETATM   35  F   UNL     1       8.295  21.948  52.373  1.00  0.00    -0.163 F 
ENDBRANCH  27  32
ENDBRANCH   4  23
TORSDOF 6
ENDMDL
MODEL 8
REMARK VINA RESULT:      -9.9      1.888      3.444
REMARK  6 active torsions:
REMARK  status: ('A' for Active; 'I' for Inactive)
REMARK    1  A    between atoms: C_2  and  C_3 
REMARK    2  A    between atoms: C_5  and  N_6 
REMARK       I    between atoms: N_6  and  C_7 
REMARK    3  A    between atoms: C_7  and  C_8 
REMARK    4  A    between atoms: N_11  and  C_12 
REMARK    5  A    between atoms: C_18  and  C_19 
REMARK    6  A    between atoms: C_28  and  O_29 
ROOT
HETATM    1  C   UNL     1       5.914  27.735  56.888  1.00  0.00     0.081 C 
HETATM    2  C   UNL     1       6.226  27.867  55.386  1.00  0.00     0.034 C 
HETATM    3  C   UNL     1       7.232  26.830  54.873  1.00  0.00     0.125 C 
HETATM    4  N   UNL     1       6.817  25.466  55.234  1.00  0.00    -0.364 N 
HETATM    5  C   UNL     1       6.586  25.301  56.681  1.00  0.00     0.125 C 
HETATM    6  C   UNL     1       5.531  26.281  57.172  1.00  0.00     0.034 C 
ENDROOT
BRANCH   1   7
HETATM    7  C   UNL     1       7.079  28.221  57.746  1.00  0.00     0.226 C 
HETATM    8  N   UNL     1       7.194  29.494  58.208  1.00  0.00    -0.324 N 
HETATM    9  H   UNL     1       7.932  29.540  58.904  1.00  0.00     0.169 HD
HETATM   10  O   UNL     1       7.976  27.438  58.084  1.00  0.00    -0.273 OA
BRANCH   8  11
HETATM   11  C   UNL     1       6.492  30.704  58.043  1.00  0.00     0.068 A 
HETATM   12  C   UNL     1       5.810  31.108  56.894  1.00  0.00     0.040 A 
HETATM   13  C   UNL     1       5.019  32.281  56.862  1.00  0.00    -0.048 A 
HETATM   14  C   UNL     1       4.964  33.060  58.032  1.00  0.00     0.011 A 
HETATM   15  C   UNL     1       5.699  32.715  59.165  1.00  0.00     0.039 A 
HETATM   16  C   UNL     1       6.466  31.560  59.151  1.00  0.00     0.092 A 
BRANCH  13  17
HETATM   17  C   UNL     1       4.171  32.636  55.623  1.00  0.00    -0.024 C 
HETATM   18  C   UNL     1       2.907  33.372  56.110  1.00  0.00     0.019 C 
HETATM   19  C   UNL     1       3.731  31.391  54.818  1.00  0.00     0.019 C 
HETATM   20  C   UNL     1       4.925  33.553  54.632  1.00  0.00     0.019 C 
ENDBRANCH  13  17
BRANCH  16  21
HETATM   21  O   UNL     1       7.194  31.265  60.273  1.00  0.00    -0.358 OA
HETATM   22  H   UNL     1       6.730  31.701  61.010  1.00  0.00     0.218 HD
ENDBRANCH  16  21
ENDBRANCH   8  11
ENDBRANCH   1   7
BRANCH   4  23
HETATM   23  C   UNL     1       7.224  24.338  54.507  1.00  0.00     0.146 A 
HETATM   24  N   UNL     1       7.567  23.269  55.190  1.00  0.00    -0.146 NA
HETATM   25  N   UNL     1       7.951  22.193  54.461  1.00  0.00    -0.188 N 
HETATM   26  C   UNL     1       8.025  22.097  53.092  1.00  0.00     0.175 A 
HETATM   27  C   UNL     1       8.346  20.972  54.933  1.00  0.00     0.258 A 
HETATM   28  C   UNL     1       7.649  23.227  52.349  1.00  0.00     0.058 A 
HETATM   29  N   UNL     1       8.447  20.899  52.753  1.00  0.00    -0.128 NA
HETATM   30  C   UNL     1       7.249  24.330  52.997  1.00  0.00     0.056 A 
HETATM   31  N   UNL     1       8.651  20.186  53.913  1.00  0.00    -0.123 NA
BRANCH  27  32
HETATM   32  C   UNL     1       8.381  20.693  56.375  1.00  0.00     0.454 C 
HETATM   33  F   UNL     1       7.312  19.964  56.793  1.00  0.00    -0.163 F 
HETATM   34  F   UNL     1       9.484  19.983  56.739  1.00  0.00    -0.163 F 
HETATM   35  F   UNL     1       8.402  21.827  57.127  1.00  0.00    -0.163 F 
ENDBRANCH  27  32
ENDBRANCH   4  23
TORSDOF 6
ENDMDL
MODEL 9
REMARK VINA RESULT:      -9.8      4.372      7.526
REMARK  6 active torsions:
REMARK  status: ('A' for Active; 'I' for Inactive)
REMARK    1  A    between atoms: C_2  and  C_3 
REMARK    2  A    between atoms: C_5  and  N_6 
REMARK       I    between atoms: N_6  and  C_7 
REMARK    3  A    between atoms: C_7  and  C_8 
REMARK    4  A    between atoms: N_11  and  C_12 
REMARK    5  A    between atoms: C_18  and  C_19 
REMARK    6  A    between atoms: C_28  and  O_29 
ROOT
HETATM    1  C   UNL     1       6.719  28.211  53.723  1.00  0.00     0.081 C 
HETATM    2  C   UNL     1       7.539  28.124  55.023  1.00  0.00     0.034 C 
HETATM    3  C   UNL     1       7.291  26.840  55.822  1.00  0.00     0.125 C 
HETATM    4  N   UNL     1       7.465  25.648  54.978  1.00  0.00    -0.364 N 
HETATM    5  C   UNL     1       6.629  25.680  53.764  1.00  0.00     0.125 C 
HETATM    6  C   UNL     1       6.932  26.918  52.934  1.00  0.00     0.034 C 
ENDROOT
BRANCH   1   7
HETATM    7  C   UNL     1       5.246  28.496  54.008  1.00  0.00     0.226 C 
HETATM    8  N   UNL     1       4.347  28.843  53.050  1.00  0.00    -0.324 N 
HETATM    9  H   UNL     1       3.407  28.796  53.430  1.00  0.00     0.169 HD
HETATM   10  O   UNL     1       4.800  28.391  55.158  1.00  0.00    -0.273 OA
BRANCH   8  11
HETATM   11  C   UNL     1       4.390  29.138  51.673  1.00  0.00     0.068 A 
HETATM   12  C   UNL     1       4.335  28.210  50.633  1.00  0.00     0.040 A 
HETATM   13  C   UNL     1       4.249  28.605  49.277  1.00  0.00    -0.048 A 
HETATM   14  C   UNL     1       4.252  29.984  48.999  1.00  0.00     0.011 A 
HETATM   15  C   UNL     1       4.384  30.925  50.019  1.00  0.00     0.039 A 
HETATM   16  C   UNL     1       4.472  30.495  51.334  1.00  0.00     0.092 A 
BRANCH  13  17
HETATM   17  C   UNL     1       4.058  27.564  48.154  1.00  0.00    -0.024 C 
HETATM   18  C   UNL     1       5.317  27.587  47.266  1.00  0.00     0.019 C 
HETATM   19  C   UNL     1       2.827  27.859  47.264  1.00  0.00     0.019 C 
HETATM   20  C   UNL     1       3.866  26.131  48.702  1.00  0.00     0.019 C 
ENDBRANCH  13  17
BRANCH  16  21
HETATM   21  O   UNL     1       4.625  31.446  52.307  1.00  0.00    -0.358 OA
HETATM   22  H   UNL     1       5.269  31.078  52.937  1.00  0.00     0.218 HD
ENDBRANCH  16  21
ENDBRANCH   8  11
ENDBRANCH   1   7
BRANCH   4  23
HETATM   23  C   UNL     1       7.799  24.394  55.507  1.00  0.00     0.146 A 
HETATM   24  N   UNL     1       7.857  23.381  54.670  1.00  0.00    -0.146 NA
HETATM   25  N   UNL     1       8.186  22.182  55.208  1.00  0.00    -0.188 N 
HETATM   26  C   UNL     1       8.462  21.906  56.526  1.00  0.00     0.175 A 
HETATM   27  C   UNL     1       8.315  20.989  54.554  1.00  0.00     0.258 A 
HETATM   28  C   UNL     1       8.418  22.981  57.428  1.00  0.00     0.058 A 
HETATM   29  N   UNL     1       8.733  20.627  56.666  1.00  0.00    -0.128 NA
HETATM   30  C   UNL     1       8.107  24.202  56.972  1.00  0.00     0.056 A 
HETATM   31  N   UNL     1       8.640  20.045  55.422  1.00  0.00    -0.123 NA
BRANCH  27  32
HETATM   32  C   UNL     1       8.104  20.894  53.103  1.00  0.00     0.454 C 
HETATM   33  F   UNL     1       8.106  22.111  52.493  1.00  0.00    -0.163 F 
HETATM   34  F   UNL     1       9.072  20.165  52.483  1.00  0.00    -0.163 F 
HETATM   35  F   UNL     1       6.923  20.297  52.783  1.00  0.00    -0.163 F 
ENDBRANCH  27  32
ENDBRANCH   4  23
TORSDOF 6
ENDMDL
MODEL 10
REMARK VINA RESULT:      -9.7      1.534      2.116
REMARK  6 active torsions:
REMARK  status: ('A' for Active; 'I' for Inactive)
REMARK    1  A    between atoms: C_2  and  C_3 
REMARK    2  A    between atoms: C_5  and  N_6 
REMARK       I    between atoms: N_6  and  C_7 
REMARK    3  A    between atoms: C_7  and  C_8 
REMARK    4  A    between atoms: N_11  and  C_12 
REMARK    5  A    between atoms: C_18  and  C_19 
REMARK    6  A    between atoms: C_28  and  O_29 
ROOT
HETATM    1  C   UNL     1       4.680  29.577  57.083  1.00  0.00     0.081 C 
HETATM    2  C   UNL     1       3.854  28.949  55.946  1.00  0.00     0.034 C 
HETATM    3  C   UNL     1       4.705  28.423  54.785  1.00  0.00     0.125 C 
HETATM    4  N   UNL     1       5.759  27.519  55.267  1.00  0.00    -0.364 N 
HETATM    5  C   UNL     1       6.609  28.131  56.305  1.00  0.00     0.125 C 
HETATM    6  C   UNL     1       5.769  28.583  57.490  1.00  0.00     0.034 C 
ENDROOT
BRANCH   1   7
HETATM    7  C   UNL     1       5.240  30.939  56.681  1.00  0.00     0.226 C 
HETATM    8  N   UNL     1       5.733  31.842  57.569  1.00  0.00    -0.324 N 
HETATM    9  H   UNL     1       6.219  32.582  57.071  1.00  0.00     0.169 HD
HETATM   10  O   UNL     1       5.289  31.269  55.489  1.00  0.00    -0.273 OA
BRANCH   8  11
HETATM   11  C   UNL     1       5.828  31.944  58.971  1.00  0.00     0.068 A 
HETATM   12  C   UNL     1       6.967  31.694  59.737  1.00  0.00     0.040 A 
HETATM   13  C   UNL     1       7.010  31.950  61.128  1.00  0.00    -0.048 A 
HETATM   14  C   UNL     1       5.840  32.444  61.734  1.00  0.00     0.011 A 
HETATM   15  C   UNL     1       4.669  32.627  61.001  1.00  0.00     0.039 A 
HETATM   16  C   UNL     1       4.670  32.356  59.641  1.00  0.00     0.092 A 
BRANCH  13  17
HETATM   17  C   UNL     1       8.319  31.790  61.929  1.00  0.00    -0.024 C 
HETATM   18  C   UNL     1       8.224  32.690  63.177  1.00  0.00     0.019 C 
HETATM   19  C   UNL     1       9.571  32.206  61.122  1.00  0.00     0.019 C 
HETATM   20  C   UNL     1       8.558  30.333  62.388  1.00  0.00     0.019 C 
ENDBRANCH  13  17
BRANCH  16  21
HETATM   21  O   UNL     1       3.495  32.525  58.957  1.00  0.00    -0.358 OA
HETATM   22  H   UNL     1       2.901  31.823  59.277  1.00  0.00     0.218 HD
ENDBRANCH  16  21
ENDBRANCH   8  11
ENDBRANCH   1   7
BRANCH   4  23
HETATM   23  C   UNL     1       6.333  26.530  54.455  1.00  0.00     0.146 A 
HETATM   24  N   UNL     1       6.996  25.565  55.053  1.00  0.00    -0.146 NA
HETATM   25  N   UNL     1       7.536  24.622  54.244  1.00  0.00    -0.188 N 
HETATM   26  C   UNL     1       7.471  24.564  52.872  1.00  0.00     0.175 A 
HETATM   27  C   UNL     1       8.260  23.525  54.620  1.00  0.00     0.258 A 
HETATM   28  C   UNL     1       6.755  25.581  52.221  1.00  0.00     0.058 A 
HETATM   29  N   UNL     1       8.121  23.506  52.441  1.00  0.00    -0.128 NA
HETATM   30  C   UNL     1       6.184  26.547  52.953  1.00  0.00     0.056 A 
HETATM   31  N   UNL     1       8.621  22.848  53.542  1.00  0.00    -0.123 NA
BRANCH  27  32
HETATM   32  C   UNL     1       8.528  23.245  56.036  1.00  0.00     0.454 C 
HETATM   33  F   UNL     1       9.064  22.010  56.233  1.00  0.00    -0.163 F 
HETATM   34  F   UNL     1       9.410  24.126  56.583  1.00  0.00    -0.163 F 
HETATM   35  F   UNL     1       7.407  23.313  56.805  1.00  0.00    -0.163 F 
ENDBRANCH  27  32
ENDBRANCH   4  23
TORSDOF 6
ENDMDL
