MODEL 1
REMARK VINA RESULT:     -10.3      0.000      0.000
REMARK  2 active torsions:
REMARK  status: ('A' for Active; 'I' for Inactive)
REMARK    1  A    between atoms: C_2  and  C_3 
REMARK    2  A    between atoms: C_3  and  C_4 
ROOT
HETATM    1  C   UNL     1       6.302  27.264  56.329  1.00  0.00     0.085 A 
HETATM    2  S   UNL     1       6.635  26.078  57.523  1.00  0.00    -0.063 SA
HETATM    3  C   UNL     1       7.266  24.997  56.375  1.00  0.00     0.111 A 
HETATM    4  C   UNL     1       7.267  25.516  55.090  1.00  0.00     0.028 A 
HETATM    5  C   UNL     1       6.732  26.850  55.079  1.00  0.00     0.060 A 
HETATM    6  N   UNL     1       6.671  27.602  53.954  1.00  0.00    -0.397 N 
HETATM    7  N   UNL     1       7.704  23.781  56.753  1.00  0.00    -0.245 NA
HETATM    8  C   UNL     1       8.188  23.004  55.757  1.00  0.00     0.042 A 
HETATM    9  C   UNL     1       8.241  23.392  54.416  1.00  0.00    -0.033 A 
HETATM   10  C   UNL     1       8.774  22.487  53.336  1.00  0.00     0.040 C 
HETATM   11  C   UNL     1       7.936  21.222  53.151  1.00  0.00     0.005 C 
HETATM   12  C   UNL     1       8.222  20.133  54.184  1.00  0.00     0.001 C 
HETATM   13  C   UNL     1       7.854  20.497  55.622  1.00  0.00     0.006 C 
HETATM   14  C   UNL     1       8.681  21.646  56.195  1.00  0.00     0.060 C 
HETATM   15  C   UNL     1       7.779  24.674  54.080  1.00  0.00     0.026 A 
HETATM   16  H   UNL     1       7.161  27.316  53.110  1.00  0.00     0.156 HD
HETATM   17  H   UNL     1       6.524  28.610  53.981  1.00  0.00     0.156 HD
ENDROOT
BRANCH   1  18
HETATM   18  C   UNL     1       5.669  28.497  56.762  1.00  0.00     0.201 C 
HETATM   19  O   UNL     1       4.476  28.746  56.590  1.00  0.00    -0.286 OA
BRANCH  18  20
HETATM   20  C   UNL     1       6.480  29.540  57.459  1.00  0.00     0.018 A 
HETATM   21  C   UNL     1       5.809  30.666  57.991  1.00  0.00     0.018 A 
HETATM   22  C   UNL     1       6.516  31.678  58.649  1.00  0.00     0.040 A 
HETATM   23  C   UNL     1       7.883  31.541  58.746  1.00  0.00     0.105 A 
HETATM   24  C   UNL     1       8.543  30.457  58.215  1.00  0.00     0.106 A 
HETATM   25  O   UNL     1       8.728  32.421  59.346  1.00  0.00    -0.323 OA
HETATM   26  C   UNL     1       7.876  29.442  57.560  1.00  0.00     0.055 A 
HETATM   27  O   UNL     1       9.887  30.522  58.414  1.00  0.00    -0.323 OA
HETATM   28  C   UNL     1       9.999  31.773  59.123  1.00  0.00     0.352 A 
ENDBRANCH  18  20
ENDBRANCH   1  18
TORSDOF 2
ENDMDL
MODEL 2
REMARK VINA RESULT:     -10.3      1.667      2.562
REMARK  2 active torsions:
REMARK  status: ('A' for Active; 'I' for Inactive)
REMARK    1  A    between atoms: C_2  and  C_3 
REMARK    2  A    between atoms: C_3  and  C_4 
ROOT
HETATM    1  C   UNL     1       7.037  27.072  55.385  1.00  0.00     0.085 A 
HETATM    2  S   UNL     1       6.993  26.402  53.805  1.00  0.00    -0.063 SA
HETATM    3  C   UNL     1       7.226  24.825  54.390  1.00  0.00     0.111 A 
HETATM    4  C   UNL     1       7.309  24.770  55.772  1.00  0.00     0.028 A 
HETATM    5  C   UNL     1       7.166  26.082  56.344  1.00  0.00     0.060 A 
HETATM    6  N   UNL     1       7.156  26.297  57.682  1.00  0.00    -0.397 N 
HETATM    7  N   UNL     1       7.308  23.787  53.536  1.00  0.00    -0.245 NA
HETATM    8  C   UNL     1       7.492  22.577  54.112  1.00  0.00     0.042 A 
HETATM    9  C   UNL     1       7.604  22.373  55.489  1.00  0.00    -0.033 A 
HETATM   10  C   UNL     1       7.824  21.008  56.086  1.00  0.00     0.040 C 
HETATM   11  C   UNL     1       9.161  20.388  55.678  1.00  0.00     0.005 C 
HETATM   12  C   UNL     1       9.153  19.761  54.284  1.00  0.00     0.001 C 
HETATM   13  C   UNL     1       8.947  20.748  53.136  1.00  0.00     0.006 C 
HETATM   14  C   UNL     1       7.576  21.421  53.143  1.00  0.00     0.060 C 
HETATM   15  C   UNL     1       7.502  23.490  56.333  1.00  0.00     0.026 A 
HETATM   16  H   UNL     1       7.075  25.520  58.333  1.00  0.00     0.156 HD
HETATM   17  H   UNL     1       6.819  27.167  58.089  1.00  0.00     0.156 HD
ENDROOT
BRANCH   1  18
HETATM   18  C   UNL     1       6.913  28.514  55.509  1.00  0.00     0.201 C 
HETATM   19  O   UNL     1       5.973  29.158  55.044  1.00  0.00    -0.286 OA
BRANCH  18  20
HETATM   20  C   UNL     1       7.966  29.286  56.234  1.00  0.00     0.018 A 
HETATM   21  C   UNL     1       9.288  29.252  55.730  1.00  0.00     0.018 A 
HETATM   22  C   UNL     1      10.317  29.951  56.370  1.00  0.00     0.040 A 
HETATM   23  C   UNL     1       9.997  30.657  57.508  1.00  0.00     0.105 A 
HETATM   24  C   UNL     1       8.717  30.679  58.012  1.00  0.00     0.106 A 
HETATM   25  O   UNL     1      10.863  31.389  58.258  1.00  0.00    -0.323 OA
HETATM   26  C   UNL     1       7.679  30.001  57.406  1.00  0.00     0.055 A 
HETATM   27  O   UNL     1       8.620  31.428  59.144  1.00  0.00    -0.323 OA
HETATM   28  C   UNL     1       9.985  31.868  59.299  1.00  0.00     0.352 A 
ENDBRANCH  18  20
ENDBRANCH   1  18
TORSDOF 2
ENDMDL
MODEL 3
REMARK VINA RESULT:     -10.0      1.979      2.683
REMARK  2 active torsions:
REMARK  status: ('A' for Active; 'I' for Inactive)
REMARK    1  A    between atoms: C_2  and  C_3 
REMARK    2  A    between atoms: C_3  and  C_4 
ROOT
HETATM    1  C   UNL     1       5.412  27.027  54.753  1.00  0.00     0.085 A 
HETATM    2  S   UNL     1       5.669  26.217  56.244  1.00  0.00    -0.063 SA
HETATM    3  C   UNL     1       6.589  24.997  55.504  1.00  0.00     0.111 A 
HETATM    4  C   UNL     1       6.745  25.191  54.140  1.00  0.00     0.028 A 
HETATM    5  C   UNL     1       6.081  26.395  53.719  1.00  0.00     0.060 A 
HETATM    6  N   UNL     1       6.126  26.843  52.441  1.00  0.00    -0.397 N 
HETATM    7  N   UNL     1       7.085  23.980  56.234  1.00  0.00    -0.245 NA
HETATM    8  C   UNL     1       7.805  23.067  55.542  1.00  0.00     0.042 A 
HETATM    9  C   UNL     1       8.035  23.130  54.166  1.00  0.00    -0.033 A 
HETATM   10  C   UNL     1       8.830  22.081  53.433  1.00  0.00     0.040 C 
HETATM   11  C   UNL     1       8.172  20.702  53.468  1.00  0.00     0.005 C 
HETATM   12  C   UNL     1       8.398  19.940  54.774  1.00  0.00     0.001 C 
HETATM   13  C   UNL     1       7.764  20.578  56.009  1.00  0.00     0.006 C 
HETATM   14  C   UNL     1       8.360  21.936  56.374  1.00  0.00     0.060 C 
HETATM   15  C   UNL     1       7.501  24.216  53.456  1.00  0.00     0.026 A 
HETATM   16  H   UNL     1       6.775  26.438  51.770  1.00  0.00     0.156 HD
HETATM   17  H   UNL     1       5.871  27.796  52.190  1.00  0.00     0.156 HD
ENDROOT
BRANCH   1  18
HETATM   18  C   UNL     1       4.589  28.224  54.770  1.00  0.00     0.201 C 
HETATM   19  O   UNL     1       3.723  28.466  53.929  1.00  0.00    -0.286 OA
BRANCH  18  20
HETATM   20  C   UNL     1       4.778  29.236  55.852  1.00  0.00     0.018 A 
HETATM   21  C   UNL     1       6.079  29.747  56.071  1.00  0.00     0.018 A 
HETATM   22  C   UNL     1       6.319  30.692  57.074  1.00  0.00     0.040 A 
HETATM   23  C   UNL     1       5.248  31.092  57.842  1.00  0.00     0.105 A 
HETATM   24  C   UNL     1       3.984  30.585  57.645  1.00  0.00     0.106 A 
HETATM   25  O   UNL     1       5.292  31.996  58.857  1.00  0.00    -0.323 OA
HETATM   26  C   UNL     1       3.714  29.652  56.665  1.00  0.00     0.055 A 
HETATM   27  O   UNL     1       3.077  31.106  58.515  1.00  0.00    -0.323 OA
HETATM   28  C   UNL     1       3.914  31.993  59.285  1.00  0.00     0.352 A 
ENDBRANCH  18  20
ENDBRANCH   1  18
TORSDOF 2
ENDMDL
MODEL 4
REMARK VINA RESULT:      -9.8      4.734      6.342
REMARK  2 active torsions:
REMARK  status: ('A' for Active; 'I' for Inactive)
REMARK    1  A    between atoms: C_2  and  C_3 
REMARK    2  A    between atoms: C_3  and  C_4 
ROOT
HETATM    1  C   UNL     1       5.226  26.650  53.034  1.00  0.00     0.085 A 
HETATM    2  S   UNL     1       5.413  26.265  54.695  1.00  0.00    -0.063 SA
HETATM    3  C   UNL     1       6.437  24.955  54.350  1.00  0.00     0.111 A 
HETATM    4  C   UNL     1       6.680  24.805  52.993  1.00  0.00     0.028 A 
HETATM    5  C   UNL     1       5.993  25.817  52.238  1.00  0.00     0.060 A 
HETATM    6  N   UNL     1       6.108  25.926  50.892  1.00  0.00    -0.397 N 
HETATM    7  N   UNL     1       6.926  24.191  55.345  1.00  0.00    -0.245 NA
HETATM    8  C   UNL     1       7.733  23.178  54.954  1.00  0.00     0.042 A 
HETATM    9  C   UNL     1       8.056  22.902  53.624  1.00  0.00    -0.033 A 
HETATM   10  C   UNL     1       8.947  21.751  53.234  1.00  0.00     0.040 C 
HETATM   11  C   UNL     1       8.351  20.389  53.587  1.00  0.00     0.005 C 
HETATM   12  C   UNL     1       8.519  20.001  55.056  1.00  0.00     0.001 C 
HETATM   13  C   UNL     1       7.771  20.893  56.047  1.00  0.00     0.006 C 
HETATM   14  C   UNL     1       8.279  22.333  56.081  1.00  0.00     0.060 C 
HETATM   15  C   UNL     1       7.525  23.735  52.628  1.00  0.00     0.026 A 
HETATM   16  H   UNL     1       6.820  25.404  50.387  1.00  0.00     0.156 HD
HETATM   17  H   UNL     1       5.829  26.766  50.389  1.00  0.00     0.156 HD
ENDROOT
BRANCH   1  18
HETATM   18  C   UNL     1       4.351  27.759  52.694  1.00  0.00     0.201 C 
HETATM   19  O   UNL     1       3.467  28.181  53.439  1.00  0.00    -0.286 OA
BRANCH  18  20
HETATM   20  C   UNL     1       4.507  28.447  51.378  1.00  0.00     0.018 A 
HETATM   21  C   UNL     1       5.551  29.391  51.235  1.00  0.00     0.018 A 
HETATM   22  C   UNL     1       5.743  30.071  50.028  1.00  0.00     0.040 A 
HETATM   23  C   UNL     1       4.873  29.797  48.996  1.00  0.00     0.105 A 
HETATM   24  C   UNL     1       3.845  28.893  49.135  1.00  0.00     0.106 A 
HETATM   25  O   UNL     1       4.906  30.360  47.759  1.00  0.00    -0.323 OA
HETATM   26  C   UNL     1       3.628  28.205  50.311  1.00  0.00     0.055 A 
HETATM   27  O   UNL     1       3.101  28.777  48.001  1.00  0.00    -0.323 OA
HETATM   28  C   UNL     1       3.774  29.716  47.136  1.00  0.00     0.352 A 
ENDBRANCH  18  20
ENDBRANCH   1  18
TORSDOF 2
ENDMDL
MODEL 5
REMARK VINA RESULT:      -9.7      2.095      3.239
REMARK  2 active torsions:
REMARK  status: ('A' for Active; 'I' for Inactive)
REMARK    1  A    between atoms: C_2  and  C_3 
REMARK    2  A    between atoms: C_3  and  C_4 
ROOT
HETATM    1  C   UNL     1       7.567  27.233  55.614  1.00  0.00     0.085 A 
HETATM    2  S   UNL     1       7.502  26.662  53.997  1.00  0.00    -0.063 SA
HETATM    3  C   UNL     1       7.541  25.038  54.495  1.00  0.00     0.111 A 
HETATM    4  C   UNL     1       7.572  24.898  55.873  1.00  0.00     0.028 A 
HETATM    5  C   UNL     1       7.555  26.184  56.516  1.00  0.00     0.060 A 
HETATM    6  N   UNL     1       7.526  26.324  57.864  1.00  0.00    -0.397 N 
HETATM    7  N   UNL     1       7.537  24.046  53.584  1.00  0.00    -0.245 NA
HETATM    8  C   UNL     1       7.568  22.793  54.092  1.00  0.00     0.042 A 
HETATM    9  C   UNL     1       7.611  22.502  55.458  1.00  0.00    -0.033 A 
HETATM   10  C   UNL     1       7.661  21.090  55.979  1.00  0.00     0.040 C 
HETATM   11  C   UNL     1       8.934  20.348  55.571  1.00  0.00     0.005 C 
HETATM   12  C   UNL     1       8.903  19.804  54.143  1.00  0.00     0.001 C 
HETATM   13  C   UNL     1       8.844  20.870  53.050  1.00  0.00     0.006 C 
HETATM   14  C   UNL     1       7.556  21.691  53.060  1.00  0.00     0.060 C 
HETATM   15  C   UNL     1       7.606  23.575  56.363  1.00  0.00     0.026 A 
HETATM   16  H   UNL     1       7.339  25.527  58.466  1.00  0.00     0.156 HD
HETATM   17  H   UNL     1       7.273  27.203  58.313  1.00  0.00     0.156 HD
ENDROOT
BRANCH   1  18
HETATM   18  C   UNL     1       7.599  28.671  55.819  1.00  0.00     0.201 C 
HETATM   19  O   UNL     1       8.570  29.376  55.544  1.00  0.00    -0.286 OA
BRANCH  18  20
HETATM   20  C   UNL     1       6.406  29.363  56.392  1.00  0.00     0.018 A 
HETATM   21  C   UNL     1       5.142  29.114  55.807  1.00  0.00     0.018 A 
HETATM   22  C   UNL     1       3.990  29.737  56.296  1.00  0.00     0.040 A 
HETATM   23  C   UNL     1       4.135  30.606  57.354  1.00  0.00     0.105 A 
HETATM   24  C   UNL     1       5.364  30.866  57.916  1.00  0.00     0.106 A 
HETATM   25  O   UNL     1       3.132  31.299  57.956  1.00  0.00    -0.323 OA
HETATM   26  C   UNL     1       6.520  30.268  57.458  1.00  0.00     0.055 A 
HETATM   27  O   UNL     1       5.286  31.757  58.941  1.00  0.00    -0.323 OA
HETATM   28  C   UNL     1       3.870  32.034  58.956  1.00  0.00     0.352 A 
ENDBRANCH  18  20
ENDBRANCH   1  18
TORSDOF 2
ENDMDL
MODEL 6
REMARK VINA RESULT:      -9.6      3.057      8.446
REMARK  2 active torsions:
REMARK  status: ('A' for Active; 'I' for Inactive)
REMARK    1  A    between atoms: C_2  and  C_3 
REMARK    2  A    between atoms: C_3  and  C_4 
ROOT
HETATM    1  C   UNL     1       7.373  28.847  55.720  1.00  0.00     0.085 A 
HETATM    2  S   UNL     1       6.014  29.490  56.547  1.00  0.00    -0.063 SA
HETATM    3  C   UNL     1       6.992  30.261  57.702  1.00  0.00     0.111 A 
HETATM    4  C   UNL     1       8.346  30.077  57.471  1.00  0.00     0.028 A 
HETATM    5  C   UNL     1       8.557  29.277  56.295  1.00  0.00     0.060 A 
HETATM    6  N   UNL     1       9.794  28.993  55.819  1.00  0.00    -0.397 N 
HETATM    7  N   UNL     1       6.434  30.964  58.707  1.00  0.00    -0.245 NA
HETATM    8  C   UNL     1       7.308  31.537  59.566  1.00  0.00     0.042 A 
HETATM    9  C   UNL     1       8.696  31.427  59.462  1.00  0.00    -0.033 A 
HETATM   10  C   UNL     1       9.631  32.070  60.453  1.00  0.00     0.040 C 
HETATM   11  C   UNL     1       9.486  31.503  61.865  1.00  0.00     0.005 C 
HETATM   12  C   UNL     1       8.298  32.071  62.641  1.00  0.00     0.001 C 
HETATM   13  C   UNL     1       6.926  31.723  62.063  1.00  0.00     0.006 C 
HETATM   14  C   UNL     1       6.670  32.327  60.684  1.00  0.00     0.060 C 
HETATM   15  C   UNL     1       9.223  30.690  58.391  1.00  0.00     0.026 A 
HETATM   16  H   UNL     1      10.612  29.480  56.175  1.00  0.00     0.156 HD
HETATM   17  H   UNL     1       9.945  28.643  54.875  1.00  0.00     0.156 HD
ENDROOT
BRANCH   1  18
HETATM   18  C   UNL     1       7.121  27.999  54.568  1.00  0.00     0.201 C 
HETATM   19  O   UNL     1       6.808  28.433  53.460  1.00  0.00    -0.286 OA
BRANCH  18  20
HETATM   20  C   UNL     1       7.242  26.516  54.701  1.00  0.00     0.018 A 
HETATM   21  C   UNL     1       7.011  25.937  55.971  1.00  0.00     0.018 A 
HETATM   22  C   UNL     1       7.116  24.554  56.158  1.00  0.00     0.040 A 
HETATM   23  C   UNL     1       7.462  23.788  55.068  1.00  0.00     0.105 A 
HETATM   24  C   UNL     1       7.705  24.348  53.835  1.00  0.00     0.106 A 
HETATM   25  O   UNL     1       7.610  22.436  55.063  1.00  0.00    -0.323 OA
HETATM   26  C   UNL     1       7.611  25.707  53.616  1.00  0.00     0.055 A 
HETATM   27  O   UNL     1       8.039  23.416  52.901  1.00  0.00    -0.323 OA
HETATM   28  C   UNL     1       7.985  22.208  53.687  1.00  0.00     0.352 A 
ENDBRANCH  18  20
ENDBRANCH   1  18
TORSDOF 2
ENDMDL
MODEL 7
REMARK VINA RESULT:      -9.4      5.382      8.491
REMARK  2 active torsions:
REMARK  status: ('A' for Active; 'I' for Inactive)
REMARK    1  A    between atoms: C_2  and  C_3 
REMARK    2  A    between atoms: C_3  and  C_4 
ROOT
HETATM    1  C   UNL     1       5.919  26.020  53.183  1.00  0.00     0.085 A 
HETATM    2  S   UNL     1       5.155  25.020  52.017  1.00  0.00    -0.063 SA
HETATM    3  C   UNL     1       5.040  26.292  50.897  1.00  0.00     0.111 A 
HETATM    4  C   UNL     1       5.598  27.472  51.363  1.00  0.00     0.028 A 
HETATM    5  C   UNL     1       6.135  27.293  52.685  1.00  0.00     0.060 A 
HETATM    6  N   UNL     1       6.784  28.282  53.347  1.00  0.00    -0.397 N 
HETATM    7  N   UNL     1       4.457  26.095  49.699  1.00  0.00    -0.245 NA
HETATM    8  C   UNL     1       4.424  27.175  48.886  1.00  0.00     0.042 A 
HETATM    9  C   UNL     1       4.937  28.429  49.228  1.00  0.00    -0.033 A 
HETATM   10  C   UNL     1       4.864  29.610  48.296  1.00  0.00     0.040 C 
HETATM   11  C   UNL     1       3.429  30.049  48.002  1.00  0.00     0.005 C 
HETATM   12  C   UNL     1       2.723  29.195  46.950  1.00  0.00     0.001 C 
HETATM   13  C   UNL     1       2.487  27.740  47.355  1.00  0.00     0.006 C 
HETATM   14  C   UNL     1       3.774  26.939  47.544  1.00  0.00     0.060 C 
HETATM   15  C   UNL     1       5.541  28.576  50.486  1.00  0.00     0.026 A 
HETATM   16  H   UNL     1       7.067  29.131  52.866  1.00  0.00     0.156 HD
HETATM   17  H   UNL     1       7.367  28.098  54.162  1.00  0.00     0.156 HD
ENDROOT
BRANCH   1  18
HETATM   18  C   UNL     1       6.247  25.426  54.467  1.00  0.00     0.201 C 
HETATM   19  O   UNL     1       5.899  25.905  55.547  1.00  0.00    -0.286 OA
BRANCH  18  20
HETATM   20  C   UNL     1       7.048  24.167  54.517  1.00  0.00     0.018 A 
HETATM   21  C   UNL     1       7.626  23.693  53.315  1.00  0.00     0.018 A 
HETATM   22  C   UNL     1       8.381  22.516  53.298  1.00  0.00     0.040 A 
HETATM   23  C   UNL     1       8.528  21.835  54.486  1.00  0.00     0.105 A 
HETATM   24  C   UNL     1       7.953  22.282  55.654  1.00  0.00     0.106 A 
HETATM   25  O   UNL     1       9.222  20.679  54.658  1.00  0.00    -0.323 OA
HETATM   26  C   UNL     1       7.203  23.438  55.706  1.00  0.00     0.055 A 
HETATM   27  O   UNL     1       8.214  21.459  56.706  1.00  0.00    -0.323 OA
HETATM   28  C   UNL     1       9.011  20.441  56.067  1.00  0.00     0.352 A 
ENDBRANCH  18  20
ENDBRANCH   1  18
TORSDOF 2
ENDMDL
MODEL 8
REMARK VINA RESULT:      -8.9      2.461      3.648
REMARK  2 active torsions:
REMARK  status: ('A' for Active; 'I' for Inactive)
REMARK    1  A    between atoms: C_2  and  C_3 
REMARK    2  A    between atoms: C_3  and  C_4 
ROOT
HETATM    1  C   UNL     1       6.899  30.246  57.542  1.00  0.00     0.085 A 
HETATM    2  S   UNL     1       7.848  29.163  58.476  1.00  0.00    -0.063 SA
HETATM    3  C   UNL     1       7.770  27.955  57.285  1.00  0.00     0.111 A 
HETATM    4  C   UNL     1       7.062  28.351  56.161  1.00  0.00     0.028 A 
HETATM    5  C   UNL     1       6.586  29.700  56.309  1.00  0.00     0.060 A 
HETATM    6  N   UNL     1       5.910  30.346  55.328  1.00  0.00    -0.397 N 
HETATM    7  N   UNL     1       8.363  26.762  57.485  1.00  0.00    -0.245 NA
HETATM    8  C   UNL     1       8.239  25.877  56.469  1.00  0.00     0.042 A 
HETATM    9  C   UNL     1       7.547  26.136  55.284  1.00  0.00    -0.033 A 
HETATM   10  C   UNL     1       7.420  25.113  54.186  1.00  0.00     0.040 C 
HETATM   11  C   UNL     1       6.637  23.871  54.614  1.00  0.00     0.005 C 
HETATM   12  C   UNL     1       7.458  22.872  55.429  1.00  0.00     0.001 C 
HETATM   13  C   UNL     1       7.926  23.384  56.791  1.00  0.00     0.006 C 
HETATM   14  C   UNL     1       8.913  24.546  56.704  1.00  0.00     0.060 C 
HETATM   15  C   UNL     1       6.955  27.398  55.126  1.00  0.00     0.026 A 
HETATM   16  H   UNL     1       5.866  29.962  54.387  1.00  0.00     0.156 HD
HETATM   17  H   UNL     1       5.785  31.356  55.329  1.00  0.00     0.156 HD
ENDROOT
BRANCH   1  18
HETATM   18  C   UNL     1       6.584  31.539  58.123  1.00  0.00     0.201 C 
HETATM   19  O   UNL     1       5.929  32.404  57.543  1.00  0.00    -0.286 OA
BRANCH  18  20
HETATM   20  C   UNL     1       7.064  31.868  59.499  1.00  0.00     0.018 A 
HETATM   21  C   UNL     1       8.459  31.968  59.715  1.00  0.00     0.018 A 
HETATM   22  C   UNL     1       8.968  32.267  60.984  1.00  0.00     0.040 A 
HETATM   23  C   UNL     1       8.065  32.447  62.007  1.00  0.00     0.105 A 
HETATM   24  C   UNL     1       6.708  32.333  61.806  1.00  0.00     0.106 A 
HETATM   25  O   UNL     1       8.375  32.740  63.298  1.00  0.00    -0.323 OA
HETATM   26  C   UNL     1       6.173  32.039  60.569  1.00  0.00     0.055 A 
HETATM   27  O   UNL     1       5.997  32.540  62.948  1.00  0.00    -0.323 OA
HETATM   28  C   UNL     1       7.060  32.789  63.891  1.00  0.00     0.352 A 
ENDBRANCH  18  20
ENDBRANCH   1  18
TORSDOF 2
ENDMDL
MODEL 9
REMARK VINA RESULT:      -8.8      5.526      8.186
REMARK  2 active torsions:
REMARK  status: ('A' for Active; 'I' for Inactive)
REMARK    1  A    between atoms: C_2  and  C_3 
REMARK    2  A    between atoms: C_3  and  C_4 
ROOT
HETATM    1  C   UNL     1       5.684  27.739  51.564  1.00  0.00     0.085 A 
HETATM    2  S   UNL     1       5.927  26.050  51.383  1.00  0.00    -0.063 SA
HETATM    3  C   UNL     1       6.248  25.847  53.039  1.00  0.00     0.111 A 
HETATM    4  C   UNL     1       6.148  27.030  53.755  1.00  0.00     0.028 A 
HETATM    5  C   UNL     1       5.788  28.120  52.891  1.00  0.00     0.060 A 
HETATM    6  N   UNL     1       5.573  29.376  53.352  1.00  0.00    -0.397 N 
HETATM    7  N   UNL     1       6.557  24.632  53.529  1.00  0.00    -0.245 NA
HETATM    8  C   UNL     1       6.791  24.587  54.861  1.00  0.00     0.042 A 
HETATM    9  C   UNL     1       6.735  25.699  55.704  1.00  0.00    -0.033 A 
HETATM   10  C   UNL     1       7.019  25.605  57.181  1.00  0.00     0.040 C 
HETATM   11  C   UNL     1       8.458  25.187  57.486  1.00  0.00     0.005 C 
HETATM   12  C   UNL     1       8.707  23.685  57.357  1.00  0.00     0.001 C 
HETATM   13  C   UNL     1       8.553  23.126  55.944  1.00  0.00     0.006 C 
HETATM   14  C   UNL     1       7.130  23.217  55.398  1.00  0.00     0.060 C 
HETATM   15  C   UNL     1       6.401  26.940  55.141  1.00  0.00     0.026 A 
HETATM   16  H   UNL     1       5.489  29.556  54.349  1.00  0.00     0.156 HD
HETATM   17  H   UNL     1       5.092  30.083  52.799  1.00  0.00     0.156 HD
ENDROOT
BRANCH   1  18
HETATM   18  C   UNL     1       5.390  28.509  50.367  1.00  0.00     0.201 C 
HETATM   19  O   UNL     1       5.918  29.590  50.108  1.00  0.00    -0.286 OA
BRANCH  18  20
HETATM   20  C   UNL     1       4.400  27.988  49.378  1.00  0.00     0.018 A 
HETATM   21  C   UNL     1       4.846  27.059  48.410  1.00  0.00     0.018 A 
HETATM   22  C   UNL     1       3.966  26.541  47.453  1.00  0.00     0.040 A 
HETATM   23  C   UNL     1       2.660  26.979  47.485  1.00  0.00     0.105 A 
HETATM   24  C   UNL     1       2.225  27.896  48.414  1.00  0.00     0.106 A 
HETATM   25  O   UNL     1       1.671  26.588  46.639  1.00  0.00    -0.323 OA
HETATM   26  C   UNL     1       3.067  28.426  49.370  1.00  0.00     0.055 A 
HETATM   27  O   UNL     1       0.907  28.197  48.265  1.00  0.00    -0.323 OA
HETATM   28  C   UNL     1       0.564  27.371  47.133  1.00  0.00     0.352 A 
ENDBRANCH  18  20
ENDBRANCH   1  18
TORSDOF 2
ENDMDL
MODEL 10
REMARK VINA RESULT:      -8.8      2.950      4.400
REMARK  2 active torsions:
REMARK  status: ('A' for Active; 'I' for Inactive)
REMARK    1  A    between atoms: C_2  and  C_3 
REMARK    2  A    between atoms: C_3  and  C_4 
ROOT
HETATM    1  C   UNL     1       6.322  30.549  58.162  1.00  0.00     0.085 A 
HETATM    2  S   UNL     1       4.943  29.805  57.462  1.00  0.00    -0.063 SA
HETATM    3  C   UNL     1       5.788  28.365  57.153  1.00  0.00     0.111 A 
HETATM    4  C   UNL     1       7.101  28.406  57.595  1.00  0.00     0.028 A 
HETATM    5  C   UNL     1       7.392  29.673  58.210  1.00  0.00     0.060 A 
HETATM    6  N   UNL     1       8.593  29.951  58.773  1.00  0.00    -0.397 N 
HETATM    7  N   UNL     1       5.176  27.334  56.540  1.00  0.00    -0.245 NA
HETATM    8  C   UNL     1       5.944  26.237  56.348  1.00  0.00     0.042 A 
HETATM    9  C   UNL     1       7.284  26.140  56.732  1.00  0.00    -0.033 A 
HETATM   10  C   UNL     1       8.106  24.903  56.481  1.00  0.00     0.040 C 
HETATM   11  C   UNL     1       8.297  24.604  54.995  1.00  0.00     0.005 C 
HETATM   12  C   UNL     1       7.096  23.920  54.341  1.00  0.00     0.001 C 
HETATM   13  C   UNL     1       5.824  24.765  54.290  1.00  0.00     0.006 C 
HETATM   14  C   UNL     1       5.243  25.086  55.666  1.00  0.00     0.060 C 
HETATM   15  C   UNL     1       7.868  27.243  57.373  1.00  0.00     0.026 A 
HETATM   16  H   UNL     1       9.274  29.214  58.936  1.00  0.00     0.156 HD
HETATM   17  H   UNL     1       8.725  30.734  59.411  1.00  0.00     0.156 HD
ENDROOT
BRANCH   1  18
HETATM   18  C   UNL     1       6.189  31.923  58.615  1.00  0.00     0.201 C 
HETATM   19  O   UNL     1       6.082  32.883  57.852  1.00  0.00    -0.286 OA
BRANCH  18  20
HETATM   20  C   UNL     1       6.176  32.221  60.078  1.00  0.00     0.018 A 
HETATM   21  C   UNL     1       4.931  32.481  60.698  1.00  0.00     0.018 A 
HETATM   22  C   UNL     1       4.857  32.773  62.064  1.00  0.00     0.040 A 
HETATM   23  C   UNL     1       6.036  32.808  62.774  1.00  0.00     0.105 A 
HETATM   24  C   UNL     1       7.252  32.572  62.172  1.00  0.00     0.106 A 
HETATM   25  O   UNL     1       6.157  33.073  64.101  1.00  0.00    -0.323 OA
HETATM   26  C   UNL     1       7.360  32.283  60.828  1.00  0.00     0.055 A 
HETATM   27  O   UNL     1       8.288  32.664  63.049  1.00  0.00    -0.323 OA
HETATM   28  C   UNL     1       7.588  32.990  64.268  1.00  0.00     0.352 A 
ENDBRANCH  18  20
ENDBRANCH   1  18
TORSDOF 2
ENDMDL
