MODEL 1
REMARK VINA RESULT:      -8.3      0.000      0.000
REMARK  5 active torsions:
REMARK  status: ('A' for Active; 'I' for Inactive)
REMARK    1  A    between atoms: C_5  and  C_6 
REMARK    2  A    between atoms: N_9  and  C_11 
REMARK    3  A    between atoms: C_11  and  C_12 
REMARK    4  A    between atoms: C_13  and  N_14 
REMARK    5  A    between atoms: N_14  and  C_15 
ROOT
HETATM    1  C   UNL     1       7.608  24.653  56.464  1.00  0.00    -0.006 A 
HETATM    2  C   UNL     1       7.357  24.588  55.074  1.00  0.00     0.038 A 
HETATM    3  C   UNL     1       7.827  23.464  54.366  1.00  0.00     0.030 A 
HETATM    4  C   UNL     1       8.525  22.436  55.000  1.00  0.00     0.002 A 
HETATM    5  C   UNL     1       8.747  22.491  56.366  1.00  0.00     0.001 A 
HETATM    6  C   UNL     1       8.283  23.582  57.094  1.00  0.00     0.011 A 
ENDROOT
BRANCH   1   7
HETATM    7  C   UNL     1       7.124  25.791  57.325  1.00  0.00     0.275 C 
BRANCH   7   8
HETATM    8  N   UNL     1       7.286  27.177  56.695  1.00  0.00    -0.067 N 
HETATM    9  C   UNL     1       6.191  28.095  57.185  1.00  0.00     0.236 C 
HETATM   10  C   UNL     1       6.319  29.463  56.531  1.00  0.00     0.037 C 
HETATM   11  C   UNL     1       7.682  30.108  56.828  1.00  0.00     0.025 C 
HETATM   12  C   UNL     1       8.768  29.159  56.309  1.00  0.00     0.037 C 
HETATM   13  C   UNL     1       8.666  27.759  56.906  1.00  0.00     0.236 C 
HETATM   14  H   UNL     1       7.171  27.036  55.687  1.00  0.00     0.280 HD
BRANCH  11  15
HETATM   15  C   UNL     1       7.833  30.477  58.279  1.00  0.00    -0.018 A 
HETATM   16  C   UNL     1       6.971  31.304  59.045  1.00  0.00     0.147 A 
HETATM   17  N   UNL     1       7.329  31.375  60.325  1.00  0.00    -0.185 NA
HETATM   18  N   UNL     1       8.488  30.704  60.377  1.00  0.00    -0.285 N 
HETATM   19  C   UNL     1       9.207  30.615  61.627  1.00  0.00     0.179 C 
HETATM   20  C   UNL     1       8.829  30.140  59.178  1.00  0.00     0.120 A 
ENDBRANCH  11  15
ENDBRANCH   7   8
ENDBRANCH   1   7
BRANCH   2  21
HETATM   21  N   UNL     1       6.560  25.567  54.434  1.00  0.00    -0.380 N 
HETATM   22  C   UNL     1       5.135  25.204  54.458  1.00  0.00     0.150 C 
BRANCH  21  23
HETATM   23  C   UNL     1       7.151  26.230  53.245  1.00  0.00     0.087 C 
HETATM   24  C   UNL     1       6.944  27.755  53.277  1.00  0.00     0.053 C 
HETATM   25  C   UNL     1       5.694  28.252  52.564  1.00  0.00     0.236 C 
HETATM   26  N   UNL     1       5.620  27.666  51.184  1.00  0.00    -0.075 N 
HETATM   27  H   UNL     1       6.464  27.943  50.662  1.00  0.00     0.279 HD
HETATM   28  C   UNL     1       4.468  28.244  50.393  1.00  0.00     0.269 C 
HETATM   29  C   UNL     1       5.557  26.162  51.224  1.00  0.00     0.236 C 
HETATM   30  C   UNL     1       6.812  25.617  51.883  1.00  0.00     0.053 C 
ENDBRANCH  21  23
ENDBRANCH   2  21
TORSDOF 5
ENDMDL
MODEL 2
REMARK VINA RESULT:      -8.3      2.109      8.037
REMARK  5 active torsions:
REMARK  status: ('A' for Active; 'I' for Inactive)
REMARK    1  A    between atoms: C_5  and  C_6 
REMARK    2  A    between atoms: N_9  and  C_11 
REMARK    3  A    between atoms: C_11  and  C_12 
REMARK    4  A    between atoms: C_13  and  N_14 
REMARK    5  A    between atoms: N_14  and  C_15 
ROOT
HETATM    1  C   UNL     1       5.053  26.812  53.468  1.00  0.00    -0.006 A 
HETATM    2  C   UNL     1       6.274  26.656  54.163  1.00  0.00     0.038 A 
HETATM    3  C   UNL     1       7.016  25.477  53.946  1.00  0.00     0.030 A 
HETATM    4  C   UNL     1       6.572  24.480  53.076  1.00  0.00     0.002 A 
HETATM    5  C   UNL     1       5.387  24.648  52.379  1.00  0.00     0.001 A 
HETATM    6  C   UNL     1       4.640  25.808  52.563  1.00  0.00     0.011 A 
ENDROOT
BRANCH   1   7
HETATM    7  C   UNL     1       4.195  28.045  53.599  1.00  0.00     0.275 C 
BRANCH   7   8
HETATM    8  N   UNL     1       4.257  28.992  52.399  1.00  0.00    -0.067 N 
HETATM    9  C   UNL     1       5.492  28.701  51.579  1.00  0.00     0.236 C 
HETATM   10  C   UNL     1       5.586  29.666  50.406  1.00  0.00     0.037 C 
HETATM   11  C   UNL     1       4.349  29.575  49.497  1.00  0.00     0.025 C 
HETATM   12  C   UNL     1       3.118  29.887  50.355  1.00  0.00     0.037 C 
HETATM   13  C   UNL     1       2.993  28.970  51.568  1.00  0.00     0.236 C 
HETATM   14  H   UNL     1       4.339  29.934  52.794  1.00  0.00     0.280 HD
BRANCH  11  15
HETATM   15  C   UNL     1       4.272  28.259  48.771  1.00  0.00    -0.018 A 
HETATM   16  C   UNL     1       5.177  27.768  47.793  1.00  0.00     0.147 A 
HETATM   17  N   UNL     1       4.883  26.533  47.394  1.00  0.00    -0.185 NA
HETATM   18  N   UNL     1       3.723  26.260  48.008  1.00  0.00    -0.285 N 
HETATM   19  C   UNL     1       3.065  24.997  47.764  1.00  0.00     0.179 C 
HETATM   20  C   UNL     1       3.319  27.260  48.850  1.00  0.00     0.120 A 
ENDBRANCH  11  15
ENDBRANCH   7   8
ENDBRANCH   1   7
BRANCH   2  21
HETATM   21  N   UNL     1       6.792  27.701  54.964  1.00  0.00    -0.380 N 
HETATM   22  C   UNL     1       7.976  28.319  54.349  1.00  0.00     0.150 C 
BRANCH  21  23
HETATM   23  C   UNL     1       6.718  27.508  56.434  1.00  0.00     0.087 C 
HETATM   24  C   UNL     1       5.606  28.360  57.069  1.00  0.00     0.053 C 
HETATM   25  C   UNL     1       6.048  29.730  57.569  1.00  0.00     0.236 C 
HETATM   26  N   UNL     1       7.267  29.594  58.435  1.00  0.00    -0.075 N 
HETATM   27  H   UNL     1       7.040  28.978  59.229  1.00  0.00     0.279 HD
HETATM   28  C   UNL     1       7.654  30.913  59.065  1.00  0.00     0.269 C 
HETATM   29  C   UNL     1       8.419  28.989  57.677  1.00  0.00     0.236 C 
HETATM   30  C   UNL     1       8.041  27.597  57.201  1.00  0.00     0.053 C 
ENDBRANCH  21  23
ENDBRANCH   2  21
TORSDOF 5
ENDMDL
MODEL 3
REMARK VINA RESULT:      -8.1      2.825      7.886
REMARK  5 active torsions:
REMARK  status: ('A' for Active; 'I' for Inactive)
REMARK    1  A    between atoms: C_5  and  C_6 
REMARK    2  A    between atoms: N_9  and  C_11 
REMARK    3  A    between atoms: C_11  and  C_12 
REMARK    4  A    between atoms: C_13  and  N_14 
REMARK    5  A    between atoms: N_14  and  C_15 
ROOT
HETATM    1  C   UNL     1       5.957  27.785  54.785  1.00  0.00    -0.006 A 
HETATM    2  C   UNL     1       6.736  26.877  55.538  1.00  0.00     0.038 A 
HETATM    3  C   UNL     1       7.454  27.375  56.643  1.00  0.00     0.030 A 
HETATM    4  C   UNL     1       7.413  28.724  56.997  1.00  0.00     0.002 A 
HETATM    5  C   UNL     1       6.629  29.606  56.272  1.00  0.00     0.001 A 
HETATM    6  C   UNL     1       5.899  29.139  55.183  1.00  0.00     0.011 A 
ENDROOT
BRANCH   1   7
HETATM    7  C   UNL     1       5.124  27.356  53.604  1.00  0.00     0.275 C 
BRANCH   7   8
HETATM    8  N   UNL     1       4.796  28.480  52.618  1.00  0.00    -0.067 N 
HETATM    9  C   UNL     1       5.856  28.547  51.544  1.00  0.00     0.236 C 
HETATM   10  C   UNL     1       5.561  29.689  50.582  1.00  0.00     0.037 C 
HETATM   11  C   UNL     1       4.184  29.530  49.917  1.00  0.00     0.025 C 
HETATM   12  C   UNL     1       3.133  29.478  51.032  1.00  0.00     0.037 C 
HETATM   13  C   UNL     1       3.399  28.371  52.046  1.00  0.00     0.236 C 
HETATM   14  H   UNL     1       4.827  29.346  53.165  1.00  0.00     0.280 HD
BRANCH  11  15
HETATM   15  C   UNL     1       4.139  28.355  48.978  1.00  0.00    -0.018 A 
HETATM   16  C   UNL     1       5.139  27.964  48.049  1.00  0.00     0.147 A 
HETATM   17  N   UNL     1       4.840  26.832  47.417  1.00  0.00    -0.185 NA
HETATM   18  N   UNL     1       3.597  26.545  47.831  1.00  0.00    -0.285 N 
HETATM   19  C   UNL     1       2.917  25.386  47.302  1.00  0.00     0.179 C 
HETATM   20  C   UNL     1       3.136  27.424  48.773  1.00  0.00     0.120 A 
ENDBRANCH  11  15
ENDBRANCH   7   8
ENDBRANCH   1   7
BRANCH   2  21
HETATM   21  N   UNL     1       6.705  25.489  55.259  1.00  0.00    -0.380 N 
HETATM   22  C   UNL     1       5.867  24.762  56.225  1.00  0.00     0.150 C 
BRANCH  21  23
HETATM   23  C   UNL     1       7.961  24.888  54.746  1.00  0.00     0.087 C 
HETATM   24  C   UNL     1       7.884  24.604  53.235  1.00  0.00     0.053 C 
HETATM   25  C   UNL     1       7.412  23.204  52.865  1.00  0.00     0.236 C 
HETATM   26  N   UNL     1       8.195  22.176  53.629  1.00  0.00    -0.075 N 
HETATM   27  H   UNL     1       9.194  22.288  53.404  1.00  0.00     0.279 HD
HETATM   28  C   UNL     1       7.853  20.771  53.186  1.00  0.00     0.269 C 
HETATM   29  C   UNL     1       8.020  22.340  55.115  1.00  0.00     0.236 C 
HETATM   30  C   UNL     1       8.527  23.707  55.540  1.00  0.00     0.053 C 
ENDBRANCH  21  23
ENDBRANCH   2  21
TORSDOF 5
ENDMDL
MODEL 4
REMARK VINA RESULT:      -8.0      2.197      7.505
REMARK  5 active torsions:
REMARK  status: ('A' for Active; 'I' for Inactive)
REMARK    1  A    between atoms: C_5  and  C_6 
REMARK    2  A    between atoms: N_9  and  C_11 
REMARK    3  A    between atoms: C_11  and  C_12 
REMARK    4  A    between atoms: C_13  and  N_14 
REMARK    5  A    between atoms: N_14  and  C_15 
ROOT
HETATM    1  C   UNL     1       6.097  25.473  53.457  1.00  0.00    -0.006 A 
HETATM    2  C   UNL     1       6.892  25.865  54.558  1.00  0.00     0.038 A 
HETATM    3  C   UNL     1       7.876  24.967  55.020  1.00  0.00     0.030 A 
HETATM    4  C   UNL     1       8.071  23.721  54.423  1.00  0.00     0.002 A 
HETATM    5  C   UNL     1       7.306  23.351  53.329  1.00  0.00     0.001 A 
HETATM    6  C   UNL     1       6.337  24.223  52.843  1.00  0.00     0.011 A 
ENDROOT
BRANCH   1   7
HETATM    7  C   UNL     1       5.038  26.365  52.861  1.00  0.00     0.275 C 
BRANCH   7   8
HETATM    8  N   UNL     1       5.465  27.086  51.580  1.00  0.00    -0.067 N 
HETATM    9  C   UNL     1       4.678  26.555  50.405  1.00  0.00     0.236 C 
HETATM   10  C   UNL     1       5.125  27.237  49.120  1.00  0.00     0.037 C 
HETATM   11  C   UNL     1       4.945  28.762  49.194  1.00  0.00     0.025 C 
HETATM   12  C   UNL     1       5.764  29.269  50.386  1.00  0.00     0.037 C 
HETATM   13  C   UNL     1       5.381  28.592  51.699  1.00  0.00     0.236 C 
HETATM   14  H   UNL     1       6.453  26.851  51.447  1.00  0.00     0.280 HD
BRANCH  11  15
HETATM   15  C   UNL     1       3.494  29.162  49.233  1.00  0.00    -0.018 A 
HETATM   16  C   UNL     1       2.401  28.470  48.650  1.00  0.00     0.147 A 
HETATM   17  N   UNL     1       1.228  29.034  48.927  1.00  0.00    -0.185 NA
HETATM   18  N   UNL     1       1.554  30.159  49.581  1.00  0.00    -0.285 N 
HETATM   19  C   UNL     1       0.513  31.068  50.000  1.00  0.00     0.179 C 
HETATM   20  C   UNL     1       2.900  30.278  49.795  1.00  0.00     0.120 A 
ENDBRANCH  11  15
ENDBRANCH   7   8
ENDBRANCH   1   7
BRANCH   2  21
HETATM   21  N   UNL     1       6.782  27.165  55.108  1.00  0.00    -0.380 N 
HETATM   22  C   UNL     1       7.746  28.093  54.498  1.00  0.00     0.150 C 
BRANCH  21  23
HETATM   23  C   UNL     1       6.463  27.248  56.555  1.00  0.00     0.087 C 
HETATM   24  C   UNL     1       5.248  28.152  56.823  1.00  0.00     0.053 C 
HETATM   25  C   UNL     1       5.580  29.610  57.115  1.00  0.00     0.236 C 
HETATM   26  N   UNL     1       6.637  29.695  58.178  1.00  0.00    -0.075 N 
HETATM   27  H   UNL     1       6.287  29.230  59.028  1.00  0.00     0.279 HD
HETATM   28  C   UNL     1       6.894  31.125  58.597  1.00  0.00     0.269 C 
HETATM   29  C   UNL     1       7.908  29.012  57.750  1.00  0.00     0.236 C 
HETATM   30  C   UNL     1       7.636  27.540  57.496  1.00  0.00     0.053 C 
ENDBRANCH  21  23
ENDBRANCH   2  21
TORSDOF 5
ENDMDL
MODEL 5
REMARK VINA RESULT:      -7.7      3.846      7.549
REMARK  5 active torsions:
REMARK  status: ('A' for Active; 'I' for Inactive)
REMARK    1  A    between atoms: C_5  and  C_6 
REMARK    2  A    between atoms: N_9  and  C_11 
REMARK    3  A    between atoms: C_11  and  C_12 
REMARK    4  A    between atoms: C_13  and  N_14 
REMARK    5  A    between atoms: N_14  and  C_15 
ROOT
HETATM    1  C   UNL     1       4.614  26.816  49.891  1.00  0.00    -0.006 A 
HETATM    2  C   UNL     1       4.282  28.171  50.125  1.00  0.00     0.038 A 
HETATM    3  C   UNL     1       4.335  29.065  49.037  1.00  0.00     0.030 A 
HETATM    4  C   UNL     1       4.705  28.646  47.759  1.00  0.00     0.002 A 
HETATM    5  C   UNL     1       5.005  27.313  47.529  1.00  0.00     0.001 A 
HETATM    6  C   UNL     1       4.949  26.405  48.581  1.00  0.00     0.011 A 
ENDROOT
BRANCH   1   7
HETATM    7  C   UNL     1       4.562  25.768  50.973  1.00  0.00     0.275 C 
BRANCH   7   8
HETATM    8  N   UNL     1       5.480  26.041  52.166  1.00  0.00    -0.067 N 
HETATM    9  C   UNL     1       4.993  25.276  53.374  1.00  0.00     0.236 C 
HETATM   10  C   UNL     1       5.876  25.575  54.578  1.00  0.00     0.037 C 
HETATM   11  C   UNL     1       7.344  25.205  54.310  1.00  0.00     0.025 C 
HETATM   12  C   UNL     1       7.809  26.006  53.088  1.00  0.00     0.037 C 
HETATM   13  C   UNL     1       6.937  25.772  51.859  1.00  0.00     0.236 C 
HETATM   14  H   UNL     1       5.395  27.044  52.356  1.00  0.00     0.280 HD
BRANCH  11  15
HETATM   15  C   UNL     1       7.542  23.719  54.180  1.00  0.00    -0.018 A 
HETATM   16  C   UNL     1       7.382  22.743  55.198  1.00  0.00     0.147 A 
HETATM   17  N   UNL     1       7.551  21.501  54.751  1.00  0.00    -0.185 NA
HETATM   18  N   UNL     1       7.943  21.662  53.479  1.00  0.00    -0.285 N 
HETATM   19  C   UNL     1       8.272  20.505  52.681  1.00  0.00     0.179 C 
HETATM   20  C   UNL     1       7.946  22.973  53.087  1.00  0.00     0.120 A 
ENDBRANCH  11  15
ENDBRANCH   7   8
ENDBRANCH   1   7
BRANCH   2  21
HETATM   21  N   UNL     1       3.802  28.592  51.388  1.00  0.00    -0.380 N 
HETATM   22  C   UNL     1       2.340  28.754  51.385  1.00  0.00     0.150 C 
BRANCH  21  23
HETATM   23  C   UNL     1       4.665  29.533  52.145  1.00  0.00     0.087 C 
HETATM   24  C   UNL     1       5.011  28.995  53.544  1.00  0.00     0.053 C 
HETATM   25  C   UNL     1       4.067  29.431  54.656  1.00  0.00     0.236 C 
HETATM   26  N   UNL     1       3.878  30.921  54.617  1.00  0.00    -0.075 N 
HETATM   27  H   UNL     1       4.797  31.372  54.729  1.00  0.00     0.279 HD
HETATM   28  C   UNL     1       3.060  31.410  55.791  1.00  0.00     0.269 C 
HETATM   29  C   UNL     1       3.283  31.368  53.309  1.00  0.00     0.236 C 
HETATM   30  C   UNL     1       4.218  30.998  52.171  1.00  0.00     0.053 C 
ENDBRANCH  21  23
ENDBRANCH   2  21
TORSDOF 5
ENDMDL
MODEL 6
REMARK VINA RESULT:      -7.6      2.470      7.294
REMARK  5 active torsions:
REMARK  status: ('A' for Active; 'I' for Inactive)
REMARK    1  A    between atoms: C_5  and  C_6 
REMARK    2  A    between atoms: N_9  and  C_11 
REMARK    3  A    between atoms: C_11  and  C_12 
REMARK    4  A    between atoms: C_13  and  N_14 
REMARK    5  A    between atoms: N_14  and  C_15 
ROOT
HETATM    1  C   UNL     1       7.683  27.970  55.347  1.00  0.00    -0.006 A 
HETATM    2  C   UNL     1       7.487  26.946  56.303  1.00  0.00     0.038 A 
HETATM    3  C   UNL     1       7.492  27.302  57.667  1.00  0.00     0.030 A 
HETATM    4  C   UNL     1       7.686  28.620  58.081  1.00  0.00     0.002 A 
HETATM    5  C   UNL     1       7.852  29.623  57.140  1.00  0.00     0.001 A 
HETATM    6  C   UNL     1       7.839  29.304  55.786  1.00  0.00     0.011 A 
ENDROOT
BRANCH   1   7
HETATM    7  C   UNL     1       7.665  27.709  53.862  1.00  0.00     0.275 C 
BRANCH   7   8
HETATM    8  N   UNL     1       6.298  27.301  53.306  1.00  0.00    -0.067 N 
HETATM    9  C   UNL     1       5.405  28.514  53.196  1.00  0.00     0.236 C 
HETATM   10  C   UNL     1       4.030  28.112  52.684  1.00  0.00     0.037 C 
HETATM   11  C   UNL     1       4.114  27.427  51.311  1.00  0.00     0.025 C 
HETATM   12  C   UNL     1       5.015  26.196  51.460  1.00  0.00     0.037 C 
HETATM   13  C   UNL     1       6.399  26.537  52.004  1.00  0.00     0.236 C 
HETATM   14  H   UNL     1       5.898  26.660  53.999  1.00  0.00     0.280 HD
BRANCH  11  15
HETATM   15  C   UNL     1       4.549  28.376  50.227  1.00  0.00    -0.018 A 
HETATM   16  C   UNL     1       5.195  28.043  49.008  1.00  0.00     0.147 A 
HETATM   17  N   UNL     1       5.379  29.098  48.218  1.00  0.00    -0.185 NA
HETATM   18  N   UNL     1       4.974  30.137  48.962  1.00  0.00    -0.285 N 
HETATM   19  C   UNL     1       5.079  31.478  48.434  1.00  0.00     0.179 C 
HETATM   20  C   UNL     1       4.460  29.756  50.171  1.00  0.00     0.120 A 
ENDBRANCH  11  15
ENDBRANCH   7   8
ENDBRANCH   1   7
BRANCH   2  21
HETATM   21  N   UNL     1       7.183  25.624  55.899  1.00  0.00    -0.380 N 
HETATM   22  C   UNL     1       6.000  25.103  56.601  1.00  0.00     0.150 C 
BRANCH  21  23
HETATM   23  C   UNL     1       8.337  24.739  55.603  1.00  0.00     0.087 C 
HETATM   24  C   UNL     1       8.068  23.835  54.387  1.00  0.00     0.053 C 
HETATM   25  C   UNL     1       7.484  22.467  54.717  1.00  0.00     0.236 C 
HETATM   26  N   UNL     1       8.298  21.804  55.789  1.00  0.00    -0.075 N 
HETATM   27  H   UNL     1       9.268  21.708  55.455  1.00  0.00     0.279 HD
HETATM   28  C   UNL     1       7.835  20.387  56.046  1.00  0.00     0.269 C 
HETATM   29  C   UNL     1       8.309  22.615  57.057  1.00  0.00     0.236 C 
HETATM   30  C   UNL     1       8.932  23.973  56.788  1.00  0.00     0.053 C 
ENDBRANCH  21  23
ENDBRANCH   2  21
TORSDOF 5
ENDMDL
MODEL 7
REMARK VINA RESULT:      -7.5      2.380      7.178
REMARK  5 active torsions:
REMARK  status: ('A' for Active; 'I' for Inactive)
REMARK    1  A    between atoms: C_5  and  C_6 
REMARK    2  A    between atoms: N_9  and  C_11 
REMARK    3  A    between atoms: C_11  and  C_12 
REMARK    4  A    between atoms: C_13  and  N_14 
REMARK    5  A    between atoms: N_14  and  C_15 
ROOT
HETATM    1  C   UNL     1       5.430  26.291  53.487  1.00  0.00    -0.006 A 
HETATM    2  C   UNL     1       6.473  26.458  54.426  1.00  0.00     0.038 A 
HETATM    3  C   UNL     1       7.391  25.402  54.595  1.00  0.00     0.030 A 
HETATM    4  C   UNL     1       7.287  24.216  53.867  1.00  0.00     0.002 A 
HETATM    5  C   UNL     1       6.278  24.066  52.930  1.00  0.00     0.001 A 
HETATM    6  C   UNL     1       5.365  25.097  52.733  1.00  0.00     0.011 A 
ENDROOT
BRANCH   1   7
HETATM    7  C   UNL     1       4.412  27.366  53.203  1.00  0.00     0.275 C 
BRANCH   7   8
HETATM    8  N   UNL     1       4.082  27.550  51.720  1.00  0.00    -0.067 N 
HETATM    9  C   UNL     1       3.124  28.705  51.547  1.00  0.00     0.236 C 
HETATM   10  C   UNL     1       2.757  28.870  50.079  1.00  0.00     0.037 C 
HETATM   11  C   UNL     1       3.999  29.117  49.207  1.00  0.00     0.025 C 
HETATM   12  C   UNL     1       4.943  27.923  49.397  1.00  0.00     0.037 C 
HETATM   13  C   UNL     1       5.317  27.689  50.856  1.00  0.00     0.236 C 
HETATM   14  H   UNL     1       3.611  26.687  51.432  1.00  0.00     0.280 HD
BRANCH  11  15
HETATM   15  C   UNL     1       4.636  30.451  49.488  1.00  0.00    -0.018 A 
HETATM   16  C   UNL     1       5.978  30.691  49.881  1.00  0.00     0.147 A 
HETATM   17  N   UNL     1       6.263  31.988  49.975  1.00  0.00    -0.185 NA
HETATM   18  N   UNL     1       5.086  32.596  49.770  1.00  0.00    -0.285 N 
HETATM   19  C   UNL     1       5.001  34.035  49.850  1.00  0.00     0.179 C 
HETATM   20  C   UNL     1       4.081  31.718  49.467  1.00  0.00     0.120 A 
ENDBRANCH  11  15
ENDBRANCH   7   8
ENDBRANCH   1   7
BRANCH   2  21
HETATM   21  N   UNL     1       6.658  27.693  55.094  1.00  0.00    -0.380 N 
HETATM   22  C   UNL     1       7.888  28.368  54.653  1.00  0.00     0.150 C 
BRANCH  21  23
HETATM   23  C   UNL     1       6.233  27.747  56.515  1.00  0.00     0.087 C 
HETATM   24  C   UNL     1       5.224  28.881  56.769  1.00  0.00     0.053 C 
HETATM   25  C   UNL     1       5.837  30.204  57.209  1.00  0.00     0.236 C 
HETATM   26  N   UNL     1       6.785  29.978  58.352  1.00  0.00    -0.075 N 
HETATM   27  H   UNL     1       6.266  29.546  59.130  1.00  0.00     0.279 HD
HETATM   28  C   UNL     1       7.307  31.283  58.910  1.00  0.00     0.269 C 
HETATM   29  C   UNL     1       7.911  29.058  57.963  1.00  0.00     0.236 C 
HETATM   30  C   UNL     1       7.350  27.705  57.563  1.00  0.00     0.053 C 
ENDBRANCH  21  23
ENDBRANCH   2  21
TORSDOF 5
ENDMDL
MODEL 8
REMARK VINA RESULT:      -7.4      2.822      6.935
REMARK  5 active torsions:
REMARK  status: ('A' for Active; 'I' for Inactive)
REMARK    1  A    between atoms: C_5  and  C_6 
REMARK    2  A    between atoms: N_9  and  C_11 
REMARK    3  A    between atoms: C_11  and  C_12 
REMARK    4  A    between atoms: C_13  and  N_14 
REMARK    5  A    between atoms: N_14  and  C_15 
ROOT
HETATM    1  C   UNL     1       4.214  26.909  49.489  1.00  0.00    -0.006 A 
HETATM    2  C   UNL     1       3.286  27.949  49.255  1.00  0.00     0.038 A 
HETATM    3  C   UNL     1       2.223  27.702  48.363  1.00  0.00     0.030 A 
HETATM    4  C   UNL     1       2.077  26.474  47.717  1.00  0.00     0.002 A 
HETATM    5  C   UNL     1       2.974  25.449  47.969  1.00  0.00     0.001 A 
HETATM    6  C   UNL     1       4.026  25.660  48.855  1.00  0.00     0.011 A 
ENDROOT
BRANCH   1   7
HETATM    7  C   UNL     1       5.370  27.051  50.447  1.00  0.00     0.275 C 
BRANCH   7   8
HETATM    8  N   UNL     1       5.539  25.879  51.416  1.00  0.00    -0.067 N 
HETATM    9  C   UNL     1       7.003  25.674  51.724  1.00  0.00     0.236 C 
HETATM   10  C   UNL     1       7.185  24.483  52.655  1.00  0.00     0.037 C 
HETATM   11  C   UNL     1       6.417  24.671  53.974  1.00  0.00     0.025 C 
HETATM   12  C   UNL     1       4.937  24.864  53.626  1.00  0.00     0.037 C 
HETATM   13  C   UNL     1       4.699  26.025  52.667  1.00  0.00     0.236 C 
HETATM   14  H   UNL     1       5.189  25.055  50.917  1.00  0.00     0.280 HD
BRANCH  11  15
HETATM   15  C   UNL     1       6.997  25.776  54.816  1.00  0.00    -0.018 A 
HETATM   16  C   UNL     1       7.372  25.700  56.183  1.00  0.00     0.147 A 
HETATM   17  N   UNL     1       7.931  26.824  56.626  1.00  0.00    -0.185 NA
HETATM   18  N   UNL     1       7.810  27.675  55.598  1.00  0.00    -0.285 N 
HETATM   19  C   UNL     1       8.272  29.037  55.740  1.00  0.00     0.179 C 
HETATM   20  C   UNL     1       7.264  27.092  54.487  1.00  0.00     0.120 A 
ENDBRANCH  11  15
ENDBRANCH   7   8
ENDBRANCH   1   7
BRANCH   2  21
HETATM   21  N   UNL     1       3.357  29.163  49.981  1.00  0.00    -0.380 N 
HETATM   22  C   UNL     1       2.362  29.204  51.063  1.00  0.00     0.150 C 
BRANCH  21  23
HETATM   23  C   UNL     1       3.675  30.384  49.200  1.00  0.00     0.087 C 
HETATM   24  C   UNL     1       5.193  30.587  49.048  1.00  0.00     0.053 C 
HETATM   25  C   UNL     1       5.838  31.460  50.116  1.00  0.00     0.236 C 
HETATM   26  N   UNL     1       5.073  32.744  50.264  1.00  0.00    -0.075 N 
HETATM   27  H   UNL     1       5.070  33.231  49.356  1.00  0.00     0.279 HD
HETATM   28  C   UNL     1       5.762  33.697  51.214  1.00  0.00     0.269 C 
HETATM   29  C   UNL     1       3.647  32.494  50.676  1.00  0.00     0.236 C 
HETATM   30  C   UNL     1       2.947  31.667  49.612  1.00  0.00     0.053 C 
ENDBRANCH  21  23
ENDBRANCH   2  21
TORSDOF 5
ENDMDL
MODEL 9
REMARK VINA RESULT:      -7.4      3.115      6.077
REMARK  5 active torsions:
REMARK  status: ('A' for Active; 'I' for Inactive)
REMARK    1  A    between atoms: C_5  and  C_6 
REMARK    2  A    between atoms: N_9  and  C_11 
REMARK    3  A    between atoms: C_11  and  C_12 
REMARK    4  A    between atoms: C_13  and  N_14 
REMARK    5  A    between atoms: N_14  and  C_15 
ROOT
HETATM    1  C   UNL     1       4.405  29.033  54.793  1.00  0.00    -0.006 A 
HETATM    2  C   UNL     1       3.845  30.288  54.460  1.00  0.00     0.038 A 
HETATM    3  C   UNL     1       3.330  30.463  53.160  1.00  0.00     0.030 A 
HETATM    4  C   UNL     1       3.367  29.439  52.212  1.00  0.00     0.002 A 
HETATM    5  C   UNL     1       3.894  28.203  52.550  1.00  0.00     0.001 A 
HETATM    6  C   UNL     1       4.398  27.998  53.830  1.00  0.00     0.011 A 
ENDROOT
BRANCH   1   7
HETATM    7  C   UNL     1       4.955  28.725  56.162  1.00  0.00     0.275 C 
BRANCH   7   8
HETATM    8  N   UNL     1       6.431  28.320  56.176  1.00  0.00    -0.067 N 
HETATM    9  C   UNL     1       7.268  29.408  55.545  1.00  0.00     0.236 C 
HETATM   10  C   UNL     1       8.733  28.995  55.516  1.00  0.00     0.037 C 
HETATM   11  C   UNL     1       9.269  28.707  56.928  1.00  0.00     0.025 C 
HETATM   12  C   UNL     1       8.407  27.594  57.534  1.00  0.00     0.037 C 
HETATM   13  C   UNL     1       6.922  27.939  57.556  1.00  0.00     0.236 C 
HETATM   14  H   UNL     1       6.492  27.479  55.594  1.00  0.00     0.280 HD
BRANCH  11  15
HETATM   15  C   UNL     1       9.345  29.951  57.773  1.00  0.00    -0.018 A 
HETATM   16  C   UNL     1      10.349  30.953  57.729  1.00  0.00     0.147 A 
HETATM   17  N   UNL     1      10.094  31.972  58.545  1.00  0.00    -0.185 NA
HETATM   18  N   UNL     1       8.998  31.588  59.215  1.00  0.00    -0.285 N 
HETATM   19  C   UNL     1       8.453  32.442  60.244  1.00  0.00     0.179 C 
HETATM   20  C   UNL     1       8.506  30.386  58.783  1.00  0.00     0.120 A 
ENDBRANCH  11  15
ENDBRANCH   7   8
ENDBRANCH   1   7
BRANCH   2  21
HETATM   21  N   UNL     1       3.701  31.301  55.439  1.00  0.00    -0.380 N 
HETATM   22  C   UNL     1       2.319  31.798  55.505  1.00  0.00     0.150 C 
BRANCH  21  23
HETATM   23  C   UNL     1       4.847  32.230  55.604  1.00  0.00     0.087 C 
HETATM   24  C   UNL     1       5.257  32.378  57.080  1.00  0.00     0.053 C 
HETATM   25  C   UNL     1       4.595  33.534  57.820  1.00  0.00     0.236 C 
HETATM   26  N   UNL     1       4.737  34.802  57.028  1.00  0.00    -0.075 N 
HETATM   27  H   UNL     1       5.740  34.992  56.888  1.00  0.00     0.279 HD
HETATM   28  C   UNL     1       4.218  35.998  57.793  1.00  0.00     0.269 C 
HETATM   29  C   UNL     1       4.080  34.687  55.679  1.00  0.00     0.236 C 
HETATM   30  C   UNL     1       4.743  33.577  54.882  1.00  0.00     0.053 C 
ENDBRANCH  21  23
ENDBRANCH   2  21
TORSDOF 5
ENDMDL
MODEL 10
REMARK VINA RESULT:      -7.3      3.642      8.078
REMARK  5 active torsions:
REMARK  status: ('A' for Active; 'I' for Inactive)
REMARK    1  A    between atoms: C_5  and  C_6 
REMARK    2  A    between atoms: N_9  and  C_11 
REMARK    3  A    between atoms: C_11  and  C_12 
REMARK    4  A    between atoms: C_13  and  N_14 
REMARK    5  A    between atoms: N_14  and  C_15 
ROOT
HETATM    1  C   UNL     1       5.413  28.116  53.913  1.00  0.00    -0.006 A 
HETATM    2  C   UNL     1       5.668  26.833  54.449  1.00  0.00     0.038 A 
HETATM    3  C   UNL     1       5.367  26.608  55.807  1.00  0.00     0.030 A 
HETATM    4  C   UNL     1       4.834  27.612  56.617  1.00  0.00     0.002 A 
HETATM    5  C   UNL     1       4.563  28.860  56.082  1.00  0.00     0.001 A 
HETATM    6  C   UNL     1       4.838  29.107  54.740  1.00  0.00     0.011 A 
ENDROOT
BRANCH   1   7
HETATM    7  C   UNL     1       5.666  28.458  52.467  1.00  0.00     0.275 C 
BRANCH   7   8
HETATM    8  N   UNL     1       4.523  28.091  51.518  1.00  0.00    -0.067 N 
HETATM    9  C   UNL     1       3.573  29.258  51.382  1.00  0.00     0.236 C 
HETATM   10  C   UNL     1       2.410  28.888  50.474  1.00  0.00     0.037 C 
HETATM   11  C   UNL     1       2.893  28.470  49.075  1.00  0.00     0.025 C 
HETATM   12  C   UNL     1       3.842  27.279  49.248  1.00  0.00     0.037 C 
HETATM   13  C   UNL     1       5.011  27.584  50.179  1.00  0.00     0.236 C 
HETATM   14  H   UNL     1       4.028  27.315  51.969  1.00  0.00     0.280 HD
BRANCH  11  15
HETATM   15  C   UNL     1       3.488  29.622  48.311  1.00  0.00    -0.018 A 
HETATM   16  C   UNL     1       4.428  29.549  47.250  1.00  0.00     0.147 A 
HETATM   17  N   UNL     1       4.703  30.740  46.723  1.00  0.00    -0.185 NA
HETATM   18  N   UNL     1       4.048  31.604  47.511  1.00  0.00    -0.285 N 
HETATM   19  C   UNL     1       4.160  33.023  47.264  1.00  0.00     0.179 C 
HETATM   20  C   UNL     1       3.299  30.983  48.473  1.00  0.00     0.120 A 
ENDBRANCH  11  15
ENDBRANCH   7   8
ENDBRANCH   1   7
BRANCH   2  21
HETATM   21  N   UNL     1       6.106  25.773  53.618  1.00  0.00    -0.380 N 
HETATM   22  C   UNL     1       4.998  24.877  53.255  1.00  0.00     0.150 C 
BRANCH  21  23
HETATM   23  C   UNL     1       7.458  25.229  53.896  1.00  0.00     0.087 C 
HETATM   24  C   UNL     1       8.007  24.422  52.706  1.00  0.00     0.053 C 
HETATM   25  C   UNL     1       7.719  22.927  52.753  1.00  0.00     0.236 C 
HETATM   26  N   UNL     1       8.114  22.368  54.090  1.00  0.00    -0.075 N 
HETATM   27  H   UNL     1       9.118  22.544  54.238  1.00  0.00     0.279 HD
HETATM   28  C   UNL     1       7.975  20.862  54.128  1.00  0.00     0.269 C 
HETATM   29  C   UNL     1       7.345  23.017  55.210  1.00  0.00     0.236 C 
HETATM   30  C   UNL     1       7.642  24.507  55.234  1.00  0.00     0.053 C 
ENDBRANCH  21  23
ENDBRANCH   2  21
TORSDOF 5
ENDMDL
