MODEL 1
REMARK VINA RESULT:     -10.8      0.000      0.000
REMARK  7 active torsions:
REMARK  status: ('A' for Active; 'I' for Inactive)
REMARK    1  A    between atoms: C_3  and  C_4 
REMARK    2  A    between atoms: C_11  and  N_12 
REMARK       I    between atoms: N_12  and  C_13 
REMARK    3  A    between atoms: C_13  and  C_14 
REMARK    4  A    between atoms: C_21  and  C_22 
REMARK       I    between atoms: C_22  and  N_23 
REMARK    5  A    between atoms: N_23  and  C_24 
REMARK    6  A    between atoms: C_24  and  C_25 
REMARK    7  A    between atoms: C_25  and  C_26 
ROOT
HETATM    1  C   UNL     1       6.244  25.620  53.137  1.00  0.00     0.158 C 
HETATM    2  N   UNL     1       6.900  25.685  54.421  1.00  0.00    -0.335 N 
HETATM    3  C   UNL     1       7.338  24.600  55.149  1.00  0.00     0.111 A 
HETATM    4  N   UNL     1       7.981  24.987  56.226  1.00  0.00    -0.233 NA
HETATM    5  C   UNL     1       7.918  26.353  56.229  1.00  0.00     0.089 A 
HETATM    6  C   UNL     1       7.235  26.840  55.110  1.00  0.00     0.091 A 
HETATM    7  C   UNL     1       7.054  28.227  54.892  1.00  0.00     0.065 A 
HETATM    8  C   UNL     1       7.575  29.081  55.878  1.00  0.00     0.049 A 
HETATM    9  C   UNL     1       8.254  28.599  57.006  1.00  0.00     0.036 A 
HETATM   10  C   UNL     1       8.439  27.228  57.192  1.00  0.00     0.051 A 
ENDROOT
BRANCH   9  11
HETATM   11  C   UNL     1       8.719  29.585  58.014  1.00  0.00     0.251 C 
HETATM   12  N   UNL     1       7.924  29.752  59.133  1.00  0.00    -0.357 N 
HETATM   13  H   UNL     1       7.227  29.044  59.326  1.00  0.00     0.162 HD
HETATM   14  O   UNL     1       9.778  30.177  57.842  1.00  0.00    -0.268 OA
BRANCH  12  15
HETATM   15  C   UNL     1       8.430  30.538  60.247  1.00  0.00     0.127 C 
BRANCH  15  16
HETATM   16  C   UNL     1       8.169  32.035  60.087  1.00  0.00     0.060 C 
BRANCH  16  17
HETATM   17  C   UNL     1       6.970  32.474  60.869  1.00  0.00    -0.029 A 
HETATM   18  C   UNL     1       6.932  32.790  62.266  1.00  0.00    -0.002 A 
HETATM   19  C   UNL     1       5.612  33.105  62.590  1.00  0.00     0.042 A 
HETATM   20  C   UNL     1       7.901  32.821  63.291  1.00  0.00     0.014 A 
HETATM   21  C   UNL     1       5.211  33.446  63.887  1.00  0.00     0.030 A 
HETATM   22  N   UNL     1       4.877  32.996  61.433  1.00  0.00    -0.365 N 
HETATM   23  C   UNL     1       6.190  33.469  64.884  1.00  0.00     0.002 A 
HETATM   24  C   UNL     1       7.517  33.163  64.593  1.00  0.00     0.001 A 
HETATM   25  H   UNL     1       3.882  33.162  61.372  1.00  0.00     0.165 HD
HETATM   26  C   UNL     1       5.682  32.620  60.391  1.00  0.00     0.096 A 
ENDBRANCH  16  17
ENDBRANCH  15  16
ENDBRANCH  12  15
ENDBRANCH   9  11
BRANCH   7  27
HETATM   27  N   UNL     1       6.383  28.714  53.756  1.00  0.00    -0.323 N 
HETATM   28  C   UNL     1       5.017  28.875  53.567  1.00  0.00     0.251 C 
HETATM   29  O   UNL     1       4.131  28.618  54.373  1.00  0.00    -0.270 OA
HETATM   30  H   UNL     1       6.929  28.983  52.948  1.00  0.00     0.169 HD
BRANCH  28  31
HETATM   31  C   UNL     1       4.721  29.576  52.226  1.00  0.00     0.213 C 
HETATM   32  O   UNL     1       5.859  29.521  51.343  1.00  0.00    -0.376 OA
HETATM   33  C   UNL     1       5.443  28.883  50.125  1.00  0.00     0.168 C 
HETATM   34  C   UNL     1       4.199  28.093  50.459  1.00  0.00     0.029 C 
HETATM   35  C   UNL     1       3.535  28.978  51.485  1.00  0.00     0.044 C 
ENDBRANCH  28  31
ENDBRANCH   7  27
BRANCH   3  36
HETATM   36  C   UNL     1       7.142  23.126  54.798  1.00  0.00     0.056 C 
HETATM   37  C   UNL     1       8.174  22.609  53.746  1.00  0.00     0.012 C 
HETATM   38  C   UNL     1       8.204  21.285  54.531  1.00  0.00     0.002 C 
HETATM   39  C   UNL     1       7.819  22.114  55.770  1.00  0.00     0.012 C 
ENDBRANCH   3  36
TORSDOF 7
ENDMDL
MODEL 2
REMARK VINA RESULT:     -10.7      1.441      1.698
REMARK  7 active torsions:
REMARK  status: ('A' for Active; 'I' for Inactive)
REMARK    1  A    between atoms: C_3  and  C_4 
REMARK    2  A    between atoms: C_11  and  N_12 
REMARK       I    between atoms: N_12  and  C_13 
REMARK    3  A    between atoms: C_13  and  C_14 
REMARK    4  A    between atoms: C_21  and  C_22 
REMARK       I    between atoms: C_22  and  N_23 
REMARK    5  A    between atoms: N_23  and  C_24 
REMARK    6  A    between atoms: C_24  and  C_25 
REMARK    7  A    between atoms: C_25  and  C_26 
ROOT
HETATM    1  C   UNL     1       7.200  23.827  53.194  1.00  0.00     0.158 C 
HETATM    2  N   UNL     1       7.366  24.259  54.561  1.00  0.00    -0.335 N 
HETATM    3  C   UNL     1       7.657  23.436  55.628  1.00  0.00     0.111 A 
HETATM    4  N   UNL     1       7.842  24.136  56.723  1.00  0.00    -0.233 NA
HETATM    5  C   UNL     1       7.617  25.439  56.376  1.00  0.00     0.089 A 
HETATM    6  C   UNL     1       7.304  25.565  55.019  1.00  0.00     0.091 A 
HETATM    7  C   UNL     1       7.042  26.824  54.427  1.00  0.00     0.065 A 
HETATM    8  C   UNL     1       7.088  27.934  55.288  1.00  0.00     0.049 A 
HETATM    9  C   UNL     1       7.394  27.813  56.650  1.00  0.00     0.036 A 
HETATM   10  C   UNL     1       7.668  26.565  57.210  1.00  0.00     0.051 A 
ENDROOT
BRANCH   9  11
HETATM   11  C   UNL     1       7.365  29.043  57.483  1.00  0.00     0.251 C 
HETATM   12  N   UNL     1       8.574  29.474  57.998  1.00  0.00    -0.357 N 
HETATM   13  H   UNL     1       9.420  29.094  57.596  1.00  0.00     0.162 HD
HETATM   14  O   UNL     1       6.306  29.637  57.653  1.00  0.00    -0.268 OA
BRANCH  12  15
HETATM   15  C   UNL     1       8.643  30.778  58.637  1.00  0.00     0.127 C 
BRANCH  15  16
HETATM   16  C   UNL     1       8.388  30.719  60.143  1.00  0.00     0.060 C 
BRANCH  16  17
HETATM   17  C   UNL     1       7.430  31.782  60.583  1.00  0.00    -0.029 A 
HETATM   18  C   UNL     1       7.379  32.402  61.874  1.00  0.00    -0.002 A 
HETATM   19  C   UNL     1       6.310  33.299  61.866  1.00  0.00     0.042 A 
HETATM   20  C   UNL     1       8.135  32.269  63.057  1.00  0.00     0.014 A 
HETATM   21  C   UNL     1       5.958  34.068  62.982  1.00  0.00     0.030 A 
HETATM   22  N   UNL     1       5.741  33.237  60.616  1.00  0.00    -0.365 N 
HETATM   23  C   UNL     1       6.724  33.916  64.142  1.00  0.00     0.002 A 
HETATM   24  C   UNL     1       7.799  33.032  64.181  1.00  0.00     0.001 A 
HETATM   25  H   UNL     1       4.938  33.779  60.328  1.00  0.00     0.165 HD
HETATM   26  C   UNL     1       6.407  32.330  59.835  1.00  0.00     0.096 A 
ENDBRANCH  16  17
ENDBRANCH  15  16
ENDBRANCH  12  15
ENDBRANCH   9  11
BRANCH   7  27
HETATM   27  N   UNL     1       6.746  26.948  53.058  1.00  0.00    -0.323 N 
HETATM   28  C   UNL     1       5.499  27.020  52.451  1.00  0.00     0.251 C 
HETATM   29  O   UNL     1       4.409  26.989  53.010  1.00  0.00    -0.270 OA
HETATM   30  H   UNL     1       7.510  26.984  52.397  1.00  0.00     0.169 HD
BRANCH  28  31
HETATM   31  C   UNL     1       5.632  27.298  50.940  1.00  0.00     0.213 C 
HETATM   32  O   UNL     1       4.905  26.326  50.162  1.00  0.00    -0.376 OA
HETATM   33  C   UNL     1       3.960  27.033  49.342  1.00  0.00     0.168 C 
HETATM   34  C   UNL     1       3.756  28.382  49.993  1.00  0.00     0.029 C 
HETATM   35  C   UNL     1       5.131  28.677  50.537  1.00  0.00     0.044 C 
ENDBRANCH  28  31
ENDBRANCH   7  27
BRANCH   3  36
HETATM   36  C   UNL     1       7.773  21.912  55.601  1.00  0.00     0.056 C 
HETATM   37  C   UNL     1       9.103  21.414  54.955  1.00  0.00     0.012 C 
HETATM   38  C   UNL     1       9.120  20.301  56.018  1.00  0.00     0.002 C 
HETATM   39  C   UNL     1       8.314  21.263  56.910  1.00  0.00     0.012 C 
ENDBRANCH   3  36
TORSDOF 7
ENDMDL
MODEL 3
REMARK VINA RESULT:     -10.4      3.227     10.110
REMARK  7 active torsions:
REMARK  status: ('A' for Active; 'I' for Inactive)
REMARK    1  A    between atoms: C_3  and  C_4 
REMARK    2  A    between atoms: C_11  and  N_12 
REMARK       I    between atoms: N_12  and  C_13 
REMARK    3  A    between atoms: C_13  and  C_14 
REMARK    4  A    between atoms: C_21  and  C_22 
REMARK       I    between atoms: C_22  and  N_23 
REMARK    5  A    between atoms: N_23  and  C_24 
REMARK    6  A    between atoms: C_24  and  C_25 
REMARK    7  A    between atoms: C_25  and  C_26 
ROOT
HETATM    1  C   UNL     1       7.845  24.595  56.361  1.00  0.00     0.158 C 
HETATM    2  N   UNL     1       7.609  24.567  54.938  1.00  0.00    -0.335 N 
HETATM    3  C   UNL     1       7.941  23.530  54.095  1.00  0.00     0.111 A 
HETATM    4  N   UNL     1       7.511  23.760  52.875  1.00  0.00    -0.233 NA
HETATM    5  C   UNL     1       6.930  24.997  52.911  1.00  0.00     0.089 A 
HETATM    6  C   UNL     1       6.976  25.551  54.195  1.00  0.00     0.091 A 
HETATM    7  C   UNL     1       6.425  26.823  54.478  1.00  0.00     0.065 A 
HETATM    8  C   UNL     1       5.855  27.507  53.390  1.00  0.00     0.049 A 
HETATM    9  C   UNL     1       5.813  26.960  52.101  1.00  0.00     0.036 A 
HETATM   10  C   UNL     1       6.344  25.696  51.847  1.00  0.00     0.051 A 
ENDROOT
BRANCH   9  11
HETATM   11  C   UNL     1       5.235  27.789  51.011  1.00  0.00     0.251 C 
HETATM   12  N   UNL     1       6.090  28.152  49.987  1.00  0.00    -0.357 N 
HETATM   13  H   UNL     1       6.963  27.649  49.901  1.00  0.00     0.162 HD
HETATM   14  O   UNL     1       4.047  28.086  51.039  1.00  0.00    -0.268 OA
BRANCH  12  15
HETATM   15  C   UNL     1       5.538  28.775  48.795  1.00  0.00     0.127 C 
BRANCH  15  16
HETATM   16  C   UNL     1       5.344  27.791  47.643  1.00  0.00     0.060 C 
BRANCH  16  17
HETATM   17  C   UNL     1       3.955  27.230  47.622  1.00  0.00    -0.029 A 
HETATM   18  C   UNL     1       2.760  27.927  47.250  1.00  0.00    -0.002 A 
HETATM   19  C   UNL     1       1.691  27.047  47.421  1.00  0.00     0.042 A 
HETATM   20  C   UNL     1       2.487  29.235  46.798  1.00  0.00     0.014 A 
HETATM   21  C   UNL     1       0.363  27.409  47.164  1.00  0.00     0.030 A 
HETATM   22  N   UNL     1       2.216  25.858  47.867  1.00  0.00    -0.365 N 
HETATM   23  C   UNL     1       0.120  28.711  46.717  1.00  0.00     0.002 A 
HETATM   24  C   UNL     1       1.166  29.613  46.534  1.00  0.00     0.001 A 
HETATM   25  H   UNL     1       1.666  25.037  48.082  1.00  0.00     0.165 HD
HETATM   26  C   UNL     1       3.576  25.954  47.991  1.00  0.00     0.096 A 
ENDBRANCH  16  17
ENDBRANCH  15  16
ENDBRANCH  12  15
ENDBRANCH   9  11
BRANCH   7  27
HETATM   27  N   UNL     1       6.456  27.370  55.774  1.00  0.00    -0.323 N 
HETATM   28  C   UNL     1       7.313  28.340  56.278  1.00  0.00     0.251 C 
HETATM   29  O   UNL     1       8.214  28.908  55.672  1.00  0.00    -0.270 OA
HETATM   30  H   UNL     1       5.793  27.033  56.459  1.00  0.00     0.169 HD
BRANCH  28  31
HETATM   31  C   UNL     1       6.906  28.751  57.707  1.00  0.00     0.213 C 
HETATM   32  O   UNL     1       8.058  28.872  58.566  1.00  0.00    -0.376 OA
HETATM   33  C   UNL     1       8.072  30.205  59.102  1.00  0.00     0.168 C 
HETATM   34  C   UNL     1       7.226  31.048  58.174  1.00  0.00     0.029 C 
HETATM   35  C   UNL     1       6.153  30.072  57.759  1.00  0.00     0.044 C 
ENDBRANCH  28  31
ENDBRANCH   7  27
BRANCH   3  36
HETATM   36  C   UNL     1       8.696  22.254  54.468  1.00  0.00     0.056 C 
HETATM   37  C   UNL     1       7.865  21.302  55.384  1.00  0.00     0.012 C 
HETATM   38  C   UNL     1       8.482  20.128  54.603  1.00  0.00     0.002 C 
HETATM   39  C   UNL     1       8.621  21.104  53.420  1.00  0.00     0.012 C 
ENDBRANCH   3  36
TORSDOF 7
ENDMDL
MODEL 4
REMARK VINA RESULT:     -10.3      3.151      9.576
REMARK  7 active torsions:
REMARK  status: ('A' for Active; 'I' for Inactive)
REMARK    1  A    between atoms: C_3  and  C_4 
REMARK    2  A    between atoms: C_11  and  N_12 
REMARK       I    between atoms: N_12  and  C_13 
REMARK    3  A    between atoms: C_13  and  C_14 
REMARK    4  A    between atoms: C_21  and  C_22 
REMARK       I    between atoms: C_22  and  N_23 
REMARK    5  A    between atoms: N_23  and  C_24 
REMARK    6  A    between atoms: C_24  and  C_25 
REMARK    7  A    between atoms: C_25  and  C_26 
ROOT
HETATM    1  C   UNL     1       8.353  24.716  56.426  1.00  0.00     0.158 C 
HETATM    2  N   UNL     1       7.605  24.796  55.194  1.00  0.00    -0.335 N 
HETATM    3  C   UNL     1       7.310  23.733  54.369  1.00  0.00     0.111 A 
HETATM    4  N   UNL     1       6.535  24.109  53.378  1.00  0.00    -0.233 NA
HETATM    5  C   UNL     1       6.361  25.456  53.530  1.00  0.00     0.089 A 
HETATM    6  C   UNL     1       7.028  25.938  54.661  1.00  0.00     0.091 A 
HETATM    7  C   UNL     1       6.982  27.304  55.029  1.00  0.00     0.065 A 
HETATM    8  C   UNL     1       6.253  28.150  54.176  1.00  0.00     0.049 A 
HETATM    9  C   UNL     1       5.589  27.675  53.037  1.00  0.00     0.036 A 
HETATM   10  C   UNL     1       5.630  26.321  52.703  1.00  0.00     0.051 A 
ENDROOT
BRANCH   9  11
HETATM   11  C   UNL     1       4.890  28.662  52.175  1.00  0.00     0.251 C 
HETATM   12  N   UNL     1       5.685  29.567  51.497  1.00  0.00    -0.357 N 
HETATM   13  H   UNL     1       6.673  29.364  51.423  1.00  0.00     0.162 HD
HETATM   14  O   UNL     1       3.670  28.622  52.071  1.00  0.00    -0.268 OA
BRANCH  12  15
HETATM   15  C   UNL     1       5.081  30.413  50.480  1.00  0.00     0.127 C 
BRANCH  15  16
HETATM   16  C   UNL     1       5.513  30.041  49.062  1.00  0.00     0.060 C 
BRANCH  16  17
HETATM   17  C   UNL     1       4.388  29.431  48.284  1.00  0.00    -0.029 A 
HETATM   18  C   UNL     1       4.003  28.051  48.282  1.00  0.00    -0.002 A 
HETATM   19  C   UNL     1       2.942  27.913  47.386  1.00  0.00     0.042 A 
HETATM   20  C   UNL     1       4.473  26.900  48.949  1.00  0.00     0.014 A 
HETATM   21  C   UNL     1       2.329  26.682  47.123  1.00  0.00     0.030 A 
HETATM   22  N   UNL     1       2.683  29.161  46.873  1.00  0.00    -0.365 N 
HETATM   23  C   UNL     1       2.814  25.558  47.798  1.00  0.00     0.002 A 
HETATM   24  C   UNL     1       3.869  25.663  48.699  1.00  0.00     0.001 A 
HETATM   25  H   UNL     1       1.964  29.359  46.191  1.00  0.00     0.165 HD
HETATM   26  C   UNL     1       3.544  30.083  47.406  1.00  0.00     0.096 A 
ENDBRANCH  16  17
ENDBRANCH  15  16
ENDBRANCH  12  15
ENDBRANCH   9  11
BRANCH   7  27
HETATM   27  N   UNL     1       7.638  27.781  56.178  1.00  0.00    -0.323 N 
HETATM   28  C   UNL     1       8.665  28.713  56.257  1.00  0.00     0.251 C 
HETATM   29  O   UNL     1       9.194  29.302  55.322  1.00  0.00    -0.270 OA
HETATM   30  H   UNL     1       7.363  27.418  57.081  1.00  0.00     0.169 HD
BRANCH  28  31
HETATM   31  C   UNL     1       8.992  29.055  57.725  1.00  0.00     0.213 C 
HETATM   32  O   UNL     1      10.044  30.038  57.812  1.00  0.00    -0.376 OA
HETATM   33  C   UNL     1       9.540  31.159  58.555  1.00  0.00     0.168 C 
HETATM   34  C   UNL     1       8.033  31.082  58.478  1.00  0.00     0.029 C 
HETATM   35  C   UNL     1       7.796  29.592  58.497  1.00  0.00     0.044 C 
ENDBRANCH  28  31
ENDBRANCH   7  27
BRANCH   3  36
HETATM   36  C   UNL     1       7.781  22.289  54.537  1.00  0.00     0.056 C 
HETATM   37  C   UNL     1       7.542  21.419  53.263  1.00  0.00     0.012 C 
HETATM   38  C   UNL     1       8.889  20.736  53.562  1.00  0.00     0.002 C 
HETATM   39  C   UNL     1       9.295  22.046  54.262  1.00  0.00     0.012 C 
ENDBRANCH   3  36
TORSDOF 7
ENDMDL
MODEL 5
REMARK VINA RESULT:     -10.3      2.211      3.182
REMARK  7 active torsions:
REMARK  status: ('A' for Active; 'I' for Inactive)
REMARK    1  A    between atoms: C_3  and  C_4 
REMARK    2  A    between atoms: C_11  and  N_12 
REMARK       I    between atoms: N_12  and  C_13 
REMARK    3  A    between atoms: C_13  and  C_14 
REMARK    4  A    between atoms: C_21  and  C_22 
REMARK       I    between atoms: C_22  and  N_23 
REMARK    5  A    between atoms: N_23  and  C_24 
REMARK    6  A    between atoms: C_24  and  C_25 
REMARK    7  A    between atoms: C_25  and  C_26 
ROOT
HETATM    1  C   UNL     1       5.252  25.180  51.772  1.00  0.00     0.158 C 
HETATM    2  N   UNL     1       5.437  25.610  53.137  1.00  0.00    -0.335 N 
HETATM    3  C   UNL     1       6.139  24.922  54.102  1.00  0.00     0.111 A 
HETATM    4  N   UNL     1       6.211  25.615  55.215  1.00  0.00    -0.233 NA
HETATM    5  C   UNL     1       5.498  26.760  54.988  1.00  0.00     0.089 A 
HETATM    6  C   UNL     1       4.982  26.798  53.689  1.00  0.00     0.091 A 
HETATM    7  C   UNL     1       4.218  27.893  53.221  1.00  0.00     0.065 A 
HETATM    8  C   UNL     1       3.985  28.925  54.146  1.00  0.00     0.049 A 
HETATM    9  C   UNL     1       4.494  28.890  55.451  1.00  0.00     0.036 A 
HETATM   10  C   UNL     1       5.262  27.810  55.887  1.00  0.00     0.051 A 
ENDROOT
BRANCH   9  11
HETATM   11  C   UNL     1       4.146  30.008  56.365  1.00  0.00     0.251 C 
HETATM   12  N   UNL     1       4.756  30.010  57.606  1.00  0.00    -0.357 N 
HETATM   13  H   UNL     1       5.566  29.417  57.734  1.00  0.00     0.162 HD
HETATM   14  O   UNL     1       3.377  30.885  55.988  1.00  0.00    -0.268 OA
BRANCH  12  15
HETATM   15  C   UNL     1       4.622  31.181  58.456  1.00  0.00     0.127 C 
BRANCH  15  16
HETATM   16  C   UNL     1       5.877  32.055  58.469  1.00  0.00     0.060 C 
BRANCH  16  17
HETATM   17  C   UNL     1       6.877  31.570  59.473  1.00  0.00    -0.029 A 
HETATM   18  C   UNL     1       7.075  32.084  60.795  1.00  0.00    -0.002 A 
HETATM   19  C   UNL     1       8.134  31.377  61.366  1.00  0.00     0.042 A 
HETATM   20  C   UNL     1       6.459  33.100  61.556  1.00  0.00     0.014 A 
HETATM   21  C   UNL     1       8.610  31.637  62.657  1.00  0.00     0.030 A 
HETATM   22  N   UNL     1       8.556  30.461  60.432  1.00  0.00    -0.365 N 
HETATM   23  C   UNL     1       7.982  32.649  63.389  1.00  0.00     0.002 A 
HETATM   24  C   UNL     1       6.920  33.371  62.849  1.00  0.00     0.001 A 
HETATM   25  H   UNL     1       9.320  29.814  60.573  1.00  0.00     0.165 HD
HETATM   26  C   UNL     1       7.807  30.566  59.291  1.00  0.00     0.096 A 
ENDBRANCH  16  17
ENDBRANCH  15  16
ENDBRANCH  12  15
ENDBRANCH   9  11
BRANCH   7  27
HETATM   27  N   UNL     1       3.716  27.935  51.908  1.00  0.00    -0.323 N 
HETATM   28  C   UNL     1       4.333  28.431  50.766  1.00  0.00     0.251 C 
HETATM   29  O   UNL     1       5.450  28.930  50.695  1.00  0.00    -0.270 OA
HETATM   30  H   UNL     1       2.786  27.577  51.731  1.00  0.00     0.169 HD
BRANCH  28  31
HETATM   31  C   UNL     1       3.485  28.148  49.510  1.00  0.00     0.213 C 
HETATM   32  O   UNL     1       3.576  29.231  48.562  1.00  0.00    -0.376 OA
HETATM   33  C   UNL     1       4.054  28.692  47.319  1.00  0.00     0.168 C 
HETATM   34  C   UNL     1       4.739  27.387  47.655  1.00  0.00     0.029 C 
HETATM   35  C   UNL     1       3.888  26.871  48.789  1.00  0.00     0.044 C 
ENDBRANCH  28  31
ENDBRANCH   7  27
BRANCH   3  36
HETATM   36  C   UNL     1       6.778  23.541  53.957  1.00  0.00     0.056 C 
HETATM   37  C   UNL     1       8.103  23.568  53.132  1.00  0.00     0.012 C 
HETATM   38  C   UNL     1       8.649  22.508  54.105  1.00  0.00     0.002 C 
HETATM   39  C   UNL     1       7.679  23.095  55.147  1.00  0.00     0.012 C 
ENDBRANCH   3  36
TORSDOF 7
ENDMDL
MODEL 6
REMARK VINA RESULT:     -10.2      3.149     10.396
REMARK  7 active torsions:
REMARK  status: ('A' for Active; 'I' for Inactive)
REMARK    1  A    between atoms: C_3  and  C_4 
REMARK    2  A    between atoms: C_11  and  N_12 
REMARK       I    between atoms: N_12  and  C_13 
REMARK    3  A    between atoms: C_13  and  C_14 
REMARK    4  A    between atoms: C_21  and  C_22 
REMARK       I    between atoms: C_22  and  N_23 
REMARK    5  A    between atoms: N_23  and  C_24 
REMARK    6  A    between atoms: C_24  and  C_25 
REMARK    7  A    between atoms: C_25  and  C_26 
ROOT
HETATM    1  C   UNL     1       4.364  33.489  57.712  1.00  0.00     0.158 C 
HETATM    2  N   UNL     1       3.926  32.389  56.889  1.00  0.00    -0.335 N 
HETATM    3  C   UNL     1       2.969  32.463  55.900  1.00  0.00     0.111 A 
HETATM    4  N   UNL     1       2.861  31.320  55.264  1.00  0.00    -0.233 NA
HETATM    5  C   UNL     1       3.730  30.465  55.882  1.00  0.00     0.089 A 
HETATM    6  C   UNL     1       4.421  31.094  56.923  1.00  0.00     0.091 A 
HETATM    7  C   UNL     1       5.384  30.409  57.701  1.00  0.00     0.065 A 
HETATM    8  C   UNL     1       5.585  29.054  57.385  1.00  0.00     0.049 A 
HETATM    9  C   UNL     1       4.891  28.416  56.348  1.00  0.00     0.036 A 
HETATM   10  C   UNL     1       3.959  29.115  55.580  1.00  0.00     0.051 A 
ENDROOT
BRANCH   9  11
HETATM   11  C   UNL     1       5.140  26.968  56.131  1.00  0.00     0.251 C 
HETATM   12  N   UNL     1       5.121  26.524  54.821  1.00  0.00    -0.357 N 
HETATM   13  H   UNL     1       5.188  27.217  54.087  1.00  0.00     0.162 HD
HETATM   14  O   UNL     1       5.379  26.242  57.089  1.00  0.00    -0.268 OA
BRANCH  12  15
HETATM   15  C   UNL     1       5.566  25.171  54.529  1.00  0.00     0.127 C 
BRANCH  15  16
HETATM   16  C   UNL     1       7.069  25.080  54.270  1.00  0.00     0.060 C 
BRANCH  16  17
HETATM   17  C   UNL     1       7.685  23.920  54.989  1.00  0.00    -0.029 A 
HETATM   18  C   UNL     1       7.987  22.635  54.432  1.00  0.00    -0.002 A 
HETATM   19  C   UNL     1       8.505  21.844  55.459  1.00  0.00     0.042 A 
HETATM   20  C   UNL     1       7.853  22.065  53.149  1.00  0.00     0.014 A 
HETATM   21  C   UNL     1       8.892  20.512  55.267  1.00  0.00     0.030 A 
HETATM   22  N   UNL     1       8.529  22.621  56.593  1.00  0.00    -0.365 N 
HETATM   23  C   UNL     1       8.747  19.973  53.986  1.00  0.00     0.002 A 
HETATM   24  C   UNL     1       8.237  20.736  52.939  1.00  0.00     0.001 A 
HETATM   25  H   UNL     1       8.852  22.302  57.496  1.00  0.00     0.165 HD
HETATM   26  C   UNL     1       8.040  23.872  56.323  1.00  0.00     0.096 A 
ENDBRANCH  16  17
ENDBRANCH  15  16
ENDBRANCH  12  15
ENDBRANCH   9  11
BRANCH   7  27
HETATM   27  N   UNL     1       6.090  31.051  58.735  1.00  0.00    -0.323 N 
HETATM   28  C   UNL     1       7.462  31.086  58.946  1.00  0.00     0.251 C 
HETATM   29  O   UNL     1       8.324  30.555  58.255  1.00  0.00    -0.270 OA
HETATM   30  H   UNL     1       5.568  31.553  59.440  1.00  0.00     0.169 HD
BRANCH  28  31
HETATM   31  C   UNL     1       7.819  32.024  60.116  1.00  0.00     0.213 C 
HETATM   32  O   UNL     1       7.172  31.610  61.337  1.00  0.00    -0.376 OA
HETATM   33  C   UNL     1       8.191  31.386  62.324  1.00  0.00     0.168 C 
HETATM   34  C   UNL     1       9.480  31.166  61.565  1.00  0.00     0.029 C 
HETATM   35  C   UNL     1       9.313  32.099  60.391  1.00  0.00     0.044 C 
ENDBRANCH  28  31
ENDBRANCH   7  27
BRANCH   3  36
HETATM   36  C   UNL     1       2.123  33.684  55.539  1.00  0.00     0.056 C 
HETATM   37  C   UNL     1       2.568  34.359  54.204  1.00  0.00     0.012 C 
HETATM   38  C   UNL     1       1.076  34.608  53.915  1.00  0.00     0.002 C 
HETATM   39  C   UNL     1       0.792  33.374  54.790  1.00  0.00     0.012 C 
ENDBRANCH   3  36
TORSDOF 7
ENDMDL
MODEL 7
REMARK VINA RESULT:     -10.1      2.723      9.729
REMARK  7 active torsions:
REMARK  status: ('A' for Active; 'I' for Inactive)
REMARK    1  A    between atoms: C_3  and  C_4 
REMARK    2  A    between atoms: C_11  and  N_12 
REMARK       I    between atoms: N_12  and  C_13 
REMARK    3  A    between atoms: C_13  and  C_14 
REMARK    4  A    between atoms: C_21  and  C_22 
REMARK       I    between atoms: C_22  and  N_23 
REMARK    5  A    between atoms: N_23  and  C_24 
REMARK    6  A    between atoms: C_24  and  C_25 
REMARK    7  A    between atoms: C_25  and  C_26 
ROOT
HETATM    1  C   UNL     1       5.224  33.758  60.180  1.00  0.00     0.158 C 
HETATM    2  N   UNL     1       6.257  32.761  60.329  1.00  0.00    -0.335 N 
HETATM    3  C   UNL     1       7.040  32.586  61.449  1.00  0.00     0.111 A 
HETATM    4  N   UNL     1       7.820  31.538  61.317  1.00  0.00    -0.233 NA
HETATM    5  C   UNL     1       7.579  31.048  60.063  1.00  0.00     0.089 A 
HETATM    6  C   UNL     1       6.603  31.796  59.396  1.00  0.00     0.091 A 
HETATM    7  C   UNL     1       6.180  31.470  58.086  1.00  0.00     0.065 A 
HETATM    8  C   UNL     1       6.816  30.370  57.486  1.00  0.00     0.049 A 
HETATM    9  C   UNL     1       7.800  29.622  58.146  1.00  0.00     0.036 A 
HETATM   10  C   UNL     1       8.190  29.948  59.446  1.00  0.00     0.051 A 
ENDROOT
BRANCH   9  11
HETATM   11  C   UNL     1       8.447  28.511  57.402  1.00  0.00     0.251 C 
HETATM   12  N   UNL     1       7.789  27.294  57.407  1.00  0.00    -0.357 N 
HETATM   13  H   UNL     1       6.818  27.284  57.690  1.00  0.00     0.162 HD
HETATM   14  O   UNL     1       9.494  28.712  56.799  1.00  0.00    -0.268 OA
BRANCH  12  15
HETATM   15  C   UNL     1       8.258  26.236  56.527  1.00  0.00     0.127 C 
BRANCH  15  16
HETATM   16  C   UNL     1       7.177  25.204  56.208  1.00  0.00     0.060 C 
BRANCH  16  17
HETATM   17  C   UNL     1       7.481  24.457  54.946  1.00  0.00    -0.029 A 
HETATM   18  C   UNL     1       7.657  23.042  54.814  1.00  0.00    -0.002 A 
HETATM   19  C   UNL     1       7.971  22.780  53.479  1.00  0.00     0.042 A 
HETATM   20  C   UNL     1       7.594  21.957  55.714  1.00  0.00     0.014 A 
HETATM   21  C   UNL     1       8.228  21.489  53.001  1.00  0.00     0.030 A 
HETATM   22  N   UNL     1       7.974  23.987  52.823  1.00  0.00    -0.365 N 
HETATM   23  C   UNL     1       8.159  20.433  53.914  1.00  0.00     0.002 A 
HETATM   24  C   UNL     1       7.846  20.660  55.251  1.00  0.00     0.001 A 
HETATM   25  H   UNL     1       8.177  24.101  51.839  1.00  0.00     0.165 HD
HETATM   26  C   UNL     1       7.679  25.003  53.692  1.00  0.00     0.096 A 
ENDBRANCH  16  17
ENDBRANCH  15  16
ENDBRANCH  12  15
ENDBRANCH   9  11
BRANCH   7  27
HETATM   27  N   UNL     1       5.184  32.213  57.426  1.00  0.00    -0.323 N 
HETATM   28  C   UNL     1       3.823  31.951  57.351  1.00  0.00     0.251 C 
HETATM   29  O   UNL     1       3.229  31.007  57.859  1.00  0.00    -0.270 OA
HETATM   30  H   UNL     1       5.455  33.047  56.921  1.00  0.00     0.169 HD
BRANCH  28  31
HETATM   31  C   UNL     1       3.074  33.101  56.649  1.00  0.00     0.213 C 
HETATM   32  O   UNL     1       3.977  34.161  56.272  1.00  0.00    -0.376 OA
HETATM   33  C   UNL     1       3.860  34.357  54.854  1.00  0.00     0.168 C 
HETATM   34  C   UNL     1       3.274  33.082  54.292  1.00  0.00     0.029 C 
HETATM   35  C   UNL     1       2.335  32.659  55.395  1.00  0.00     0.044 C 
ENDBRANCH  28  31
ENDBRANCH   7  27
BRANCH   3  36
HETATM   36  C   UNL     1       7.039  33.451  62.710  1.00  0.00     0.056 C 
HETATM   37  C   UNL     1       5.908  33.062  63.713  1.00  0.00     0.012 C 
HETATM   38  C   UNL     1       6.912  33.346  64.845  1.00  0.00     0.002 C 
HETATM   39  C   UNL     1       8.017  32.993  63.832  1.00  0.00     0.012 C 
ENDBRANCH   3  36
TORSDOF 7
ENDMDL
MODEL 8
REMARK VINA RESULT:      -9.9      3.295     10.773
REMARK  7 active torsions:
REMARK  status: ('A' for Active; 'I' for Inactive)
REMARK    1  A    between atoms: C_3  and  C_4 
REMARK    2  A    between atoms: C_11  and  N_12 
REMARK       I    between atoms: N_12  and  C_13 
REMARK    3  A    between atoms: C_13  and  C_14 
REMARK    4  A    between atoms: C_21  and  C_22 
REMARK       I    between atoms: C_22  and  N_23 
REMARK    5  A    between atoms: N_23  and  C_24 
REMARK    6  A    between atoms: C_24  and  C_25 
REMARK    7  A    between atoms: C_25  and  C_26 
ROOT
HETATM    1  C   UNL     1       8.592  26.443  56.918  1.00  0.00     0.158 C 
HETATM    2  N   UNL     1       7.669  27.287  56.199  1.00  0.00    -0.335 N 
HETATM    3  C   UNL     1       7.208  28.513  56.628  1.00  0.00     0.111 A 
HETATM    4  N   UNL     1       6.458  29.080  55.712  1.00  0.00    -0.233 NA
HETATM    5  C   UNL     1       6.385  28.183  54.682  1.00  0.00     0.089 A 
HETATM    6  C   UNL     1       7.128  27.029  54.949  1.00  0.00     0.091 A 
HETATM    7  C   UNL     1       7.211  25.964  54.021  1.00  0.00     0.065 A 
HETATM    8  C   UNL     1       6.480  26.121  52.831  1.00  0.00     0.049 A 
HETATM    9  C   UNL     1       5.728  27.272  52.561  1.00  0.00     0.036 A 
HETATM   10  C   UNL     1       5.675  28.320  53.481  1.00  0.00     0.051 A 
ENDROOT
BRANCH   9  11
HETATM   11  C   UNL     1       4.951  27.316  51.295  1.00  0.00     0.251 C 
HETATM   12  N   UNL     1       5.255  26.357  50.346  1.00  0.00    -0.357 N 
HETATM   13  H   UNL     1       5.791  25.552  50.644  1.00  0.00     0.162 HD
HETATM   14  O   UNL     1       4.069  28.155  51.152  1.00  0.00    -0.268 OA
BRANCH  12  15
HETATM   15  C   UNL     1       4.392  26.215  49.186  1.00  0.00     0.127 C 
BRANCH  15  16
HETATM   16  C   UNL     1       4.932  26.933  47.949  1.00  0.00     0.060 C 
BRANCH  16  17
HETATM   17  C   UNL     1       4.091  28.118  47.587  1.00  0.00    -0.029 A 
HETATM   18  C   UNL     1       2.722  28.095  47.165  1.00  0.00    -0.002 A 
HETATM   19  C   UNL     1       2.347  29.410  46.886  1.00  0.00     0.042 A 
HETATM   20  C   UNL     1       1.770  27.071  46.978  1.00  0.00     0.014 A 
HETATM   21  C   UNL     1       1.069  29.752  46.427  1.00  0.00     0.030 A 
HETATM   22  N   UNL     1       3.440  30.203  47.140  1.00  0.00    -0.365 N 
HETATM   23  C   UNL     1       0.145  28.718  46.250  1.00  0.00     0.002 A 
HETATM   24  C   UNL     1       0.487  27.396  46.522  1.00  0.00     0.001 A 
HETATM   25  H   UNL     1       3.458  31.206  47.017  1.00  0.00     0.165 HD
HETATM   26  C   UNL     1       4.494  29.439  47.564  1.00  0.00     0.096 A 
ENDBRANCH  16  17
ENDBRANCH  15  16
ENDBRANCH  12  15
ENDBRANCH   9  11
BRANCH   7  27
HETATM   27  N   UNL     1       7.975  24.812  54.286  1.00  0.00    -0.323 N 
HETATM   28  C   UNL     1       7.649  23.731  55.095  1.00  0.00     0.251 C 
HETATM   29  O   UNL     1       6.616  23.581  55.737  1.00  0.00    -0.270 OA
HETATM   30  H   UNL     1       8.887  24.726  53.859  1.00  0.00     0.169 HD
BRANCH  28  31
HETATM   31  C   UNL     1       8.711  22.619  54.988  1.00  0.00     0.213 C 
HETATM   32  O   UNL     1       8.434  21.539  55.904  1.00  0.00    -0.376 OA
HETATM   33  C   UNL     1       8.321  20.329  55.139  1.00  0.00     0.168 C 
HETATM   34  C   UNL     1       8.020  20.747  53.718  1.00  0.00     0.029 C 
HETATM   35  C   UNL     1       8.817  22.022  53.593  1.00  0.00     0.044 C 
ENDBRANCH  28  31
ENDBRANCH   7  27
BRANCH   3  36
HETATM   36  C   UNL     1       7.504  29.181  57.971  1.00  0.00     0.056 C 
HETATM   37  C   UNL     1       8.876  29.924  57.992  1.00  0.00     0.012 C 
HETATM   38  C   UNL     1       8.196  31.009  58.846  1.00  0.00     0.002 C 
HETATM   39  C   UNL     1       6.879  30.595  58.163  1.00  0.00     0.012 C 
ENDBRANCH   3  36
TORSDOF 7
ENDMDL
MODEL 9
REMARK VINA RESULT:      -9.8      2.722     10.065
REMARK  7 active torsions:
REMARK  status: ('A' for Active; 'I' for Inactive)
REMARK    1  A    between atoms: C_3  and  C_4 
REMARK    2  A    between atoms: C_11  and  N_12 
REMARK       I    between atoms: N_12  and  C_13 
REMARK    3  A    between atoms: C_13  and  C_14 
REMARK    4  A    between atoms: C_21  and  C_22 
REMARK       I    between atoms: C_22  and  N_23 
REMARK    5  A    between atoms: N_23  and  C_24 
REMARK    6  A    between atoms: C_24  and  C_25 
REMARK    7  A    between atoms: C_25  and  C_26 
ROOT
HETATM    1  C   UNL     1       4.869  34.553  61.084  1.00  0.00     0.158 C 
HETATM    2  N   UNL     1       5.897  33.556  61.257  1.00  0.00    -0.335 N 
HETATM    3  C   UNL     1       6.585  33.314  62.427  1.00  0.00     0.111 A 
HETATM    4  N   UNL     1       7.385  32.282  62.295  1.00  0.00    -0.233 NA
HETATM    5  C   UNL     1       7.257  31.872  60.997  1.00  0.00     0.089 A 
HETATM    6  C   UNL     1       6.332  32.654  60.298  1.00  0.00     0.091 A 
HETATM    7  C   UNL     1       6.024  32.410  58.939  1.00  0.00     0.065 A 
HETATM    8  C   UNL     1       6.722  31.355  58.327  1.00  0.00     0.049 A 
HETATM    9  C   UNL     1       7.655  30.572  59.020  1.00  0.00     0.036 A 
HETATM   10  C   UNL     1       7.930  30.817  60.365  1.00  0.00     0.051 A 
ENDROOT
BRANCH   9  11
HETATM   11  C   UNL     1       8.375  29.514  58.264  1.00  0.00     0.251 C 
HETATM   12  N   UNL     1       7.712  28.313  58.092  1.00  0.00    -0.357 N 
HETATM   13  H   UNL     1       6.715  28.297  58.260  1.00  0.00     0.162 HD
HETATM   14  O   UNL     1       9.487  29.746  57.804  1.00  0.00    -0.268 OA
BRANCH  12  15
HETATM   15  C   UNL     1       8.271  27.323  57.186  1.00  0.00     0.127 C 
BRANCH  15  16
HETATM   16  C   UNL     1       7.865  25.893  57.542  1.00  0.00     0.060 C 
BRANCH  16  17
HETATM   17  C   UNL     1       8.006  24.971  56.370  1.00  0.00    -0.029 A 
HETATM   18  C   UNL     1       7.196  24.963  55.189  1.00  0.00    -0.002 A 
HETATM   19  C   UNL     1       7.642  23.916  54.381  1.00  0.00     0.042 A 
HETATM   20  C   UNL     1       6.111  25.743  54.738  1.00  0.00     0.014 A 
HETATM   21  C   UNL     1       7.055  23.608  53.148  1.00  0.00     0.030 A 
HETATM   22  N   UNL     1       8.690  23.318  55.040  1.00  0.00    -0.365 N 
HETATM   23  C   UNL     1       5.981  24.397  52.725  1.00  0.00     0.002 A 
HETATM   24  C   UNL     1       5.515  25.451  53.506  1.00  0.00     0.001 A 
HETATM   25  H   UNL     1       9.204  22.521  54.688  1.00  0.00     0.165 HD
HETATM   26  C   UNL     1       8.920  23.943  56.236  1.00  0.00     0.096 A 
ENDBRANCH  16  17
ENDBRANCH  15  16
ENDBRANCH  12  15
ENDBRANCH   9  11
BRANCH   7  27
HETATM   27  N   UNL     1       5.080  33.188  58.245  1.00  0.00    -0.323 N 
HETATM   28  C   UNL     1       3.694  33.093  58.280  1.00  0.00     0.251 C 
HETATM   29  O   UNL     1       3.031  32.299  58.937  1.00  0.00    -0.270 OA
HETATM   30  H   UNL     1       5.411  33.913  57.623  1.00  0.00     0.169 HD
BRANCH  28  31
HETATM   31  C   UNL     1       3.039  34.234  57.478  1.00  0.00     0.213 C 
HETATM   32  O   UNL     1       1.728  34.550  57.990  1.00  0.00    -0.376 OA
HETATM   33  C   UNL     1       1.717  35.941  58.348  1.00  0.00     0.168 C 
HETATM   34  C   UNL     1       3.161  36.346  58.535  1.00  0.00     0.029 C 
HETATM   35  C   UNL     1       3.856  35.518  57.483  1.00  0.00     0.044 C 
ENDBRANCH  28  31
ENDBRANCH   7  27
BRANCH   3  36
HETATM   36  C   UNL     1       6.467  34.097  63.734  1.00  0.00     0.056 C 
HETATM   37  C   UNL     1       5.397  33.504  64.704  1.00  0.00     0.012 C 
HETATM   38  C   UNL     1       6.353  33.853  65.859  1.00  0.00     0.002 C 
HETATM   39  C   UNL     1       7.496  33.709  64.837  1.00  0.00     0.012 C 
ENDBRANCH   3  36
TORSDOF 7
ENDMDL
MODEL 10
REMARK VINA RESULT:      -9.6      2.035      2.657
REMARK  7 active torsions:
REMARK  status: ('A' for Active; 'I' for Inactive)
REMARK    1  A    between atoms: C_3  and  C_4 
REMARK    2  A    between atoms: C_11  and  N_12 
REMARK       I    between atoms: N_12  and  C_13 
REMARK    3  A    between atoms: C_13  and  C_14 
REMARK    4  A    between atoms: C_21  and  C_22 
REMARK       I    between atoms: C_22  and  N_23 
REMARK    5  A    between atoms: N_23  and  C_24 
REMARK    6  A    between atoms: C_24  and  C_25 
REMARK    7  A    between atoms: C_25  and  C_26 
ROOT
HETATM    1  C   UNL     1       5.319  25.836  51.514  1.00  0.00     0.158 C 
HETATM    2  N   UNL     1       5.549  26.050  52.922  1.00  0.00    -0.335 N 
HETATM    3  C   UNL     1       6.166  25.160  53.774  1.00  0.00     0.111 A 
HETATM    4  N   UNL     1       6.314  25.680  54.970  1.00  0.00    -0.233 NA
HETATM    5  C   UNL     1       5.735  26.918  54.913  1.00  0.00     0.089 A 
HETATM    6  C   UNL     1       5.229  27.193  53.639  1.00  0.00     0.091 A 
HETATM    7  C   UNL     1       4.594  28.420  53.337  1.00  0.00     0.065 A 
HETATM    8  C   UNL     1       4.477  29.334  54.398  1.00  0.00     0.049 A 
HETATM    9  C   UNL     1       4.976  29.062  55.679  1.00  0.00     0.036 A 
HETATM   10  C   UNL     1       5.617  27.852  55.951  1.00  0.00     0.051 A 
ENDROOT
BRANCH   9  11
HETATM   11  C   UNL     1       4.754  30.075  56.743  1.00  0.00     0.251 C 
HETATM   12  N   UNL     1       5.864  30.781  57.170  1.00  0.00    -0.357 N 
HETATM   13  H   UNL     1       6.691  30.756  56.588  1.00  0.00     0.162 HD
HETATM   14  O   UNL     1       3.623  30.268  57.172  1.00  0.00    -0.268 OA
BRANCH  12  15
HETATM   15  C   UNL     1       5.677  31.925  58.048  1.00  0.00     0.127 C 
BRANCH  15  16
HETATM   16  C   UNL     1       6.600  31.898  59.266  1.00  0.00     0.060 C 
BRANCH  16  17
HETATM   17  C   UNL     1       5.894  32.357  60.504  1.00  0.00    -0.029 A 
HETATM   18  C   UNL     1       6.486  32.583  61.789  1.00  0.00    -0.002 A 
HETATM   19  C   UNL     1       5.464  32.955  62.663  1.00  0.00     0.042 A 
HETATM   20  C   UNL     1       7.800  32.488  62.294  1.00  0.00     0.014 A 
HETATM   21  C   UNL     1       5.689  33.235  64.016  1.00  0.00     0.030 A 
HETATM   22  N   UNL     1       4.298  32.968  61.936  1.00  0.00    -0.365 N 
HETATM   23  C   UNL     1       7.000  33.133  64.491  1.00  0.00     0.002 A 
HETATM   24  C   UNL     1       8.043  32.766  63.644  1.00  0.00     0.001 A 
HETATM   25  H   UNL     1       3.391  33.198  62.317  1.00  0.00     0.165 HD
HETATM   26  C   UNL     1       4.543  32.612  60.636  1.00  0.00     0.096 A 
ENDBRANCH  16  17
ENDBRANCH  15  16
ENDBRANCH  12  15
ENDBRANCH   9  11
BRANCH   7  27
HETATM   27  N   UNL     1       4.102  28.700  52.049  1.00  0.00    -0.323 N 
HETATM   28  C   UNL     1       4.761  29.315  50.992  1.00  0.00     0.251 C 
HETATM   29  O   UNL     1       5.913  29.733  50.990  1.00  0.00    -0.270 OA
HETATM   30  H   UNL     1       3.149  28.445  51.827  1.00  0.00     0.169 HD
BRANCH  28  31
HETATM   31  C   UNL     1       3.900  29.293  49.713  1.00  0.00     0.213 C 
HETATM   32  O   UNL     1       3.019  28.151  49.695  1.00  0.00    -0.376 OA
HETATM   33  C   UNL     1       1.672  28.634  49.569  1.00  0.00     0.168 C 
HETATM   34  C   UNL     1       1.690  30.075  50.027  1.00  0.00     0.029 C 
HETATM   35  C   UNL     1       3.042  30.538  49.545  1.00  0.00     0.044 C 
ENDBRANCH  28  31
ENDBRANCH   7  27
BRANCH   3  36
HETATM   36  C   UNL     1       6.647  23.750  53.430  1.00  0.00     0.056 C 
HETATM   37  C   UNL     1       8.019  23.739  52.686  1.00  0.00     0.012 C 
HETATM   38  C   UNL     1       8.367  22.476  53.494  1.00  0.00     0.002 C 
HETATM   39  C   UNL     1       7.404  23.008  54.571  1.00  0.00     0.012 C 
ENDBRANCH   3  36
TORSDOF 7
ENDMDL
