MODEL 1
REMARK VINA RESULT:      -8.9      0.000      0.000
REMARK  6 active torsions:
REMARK  status: ('A' for Active; 'I' for Inactive)
REMARK    1  A    between atoms: O_2  and  C_3 
REMARK    2  A    between atoms: C_3  and  C_4 
REMARK    3  A    between atoms: C_4  and  N_5 
REMARK       I    between atoms: N_5  and  C_6 
REMARK    4  A    between atoms: C_6  and  C_7 
REMARK    5  A    between atoms: C_12  and  C_13 
REMARK    6  A    between atoms: C_20  and  C_21 
ROOT
HETATM    1  C   UNL     1       8.031  30.019  58.219  1.00  0.00     0.165 A 
HETATM    2  N   UNL     1       6.739  29.602  58.186  1.00  0.00    -0.163 NA
HETATM    3  N   UNL     1       6.701  28.749  57.149  1.00  0.00    -0.238 N 
HETATM    4  C   UNL     1       7.910  28.548  56.541  1.00  0.00     0.141 A 
HETATM    5  N   UNL     1       8.042  27.669  55.518  1.00  0.00    -0.365 N 
HETATM    6  C   UNL     1       6.866  27.079  54.882  1.00  0.00     0.118 C 
HETATM    7  C   UNL     1       5.786  26.818  55.948  1.00  0.00     0.066 C 
HETATM    8  C   UNL     1       5.469  28.096  56.747  1.00  0.00     0.221 C 
HETATM    9  C   UNL     1       8.785  29.368  57.208  1.00  0.00     0.092 A 
HETATM   10 BR   UNL     1      10.612  29.569  56.844  1.00  0.00    -0.044 Br
HETATM   11  H   UNL     1       8.890  27.672  54.950  1.00  0.00     0.162 HD
ENDROOT
BRANCH   1  12
HETATM   12  C   UNL     1       8.473  31.011  59.214  1.00  0.00     0.273 C 
HETATM   13  N   UNL     1       8.457  30.527  60.504  1.00  0.00    -0.353 N 
HETATM   14  H   UNL     1       8.303  29.524  60.596  1.00  0.00     0.162 HD
HETATM   15  O   UNL     1       8.823  32.153  58.935  1.00  0.00    -0.266 OA
BRANCH  13  16
HETATM   16  C   UNL     1       9.026  31.248  61.622  1.00  0.00     0.149 C 
BRANCH  16  17
HETATM   17  C   UNL     1       7.970  31.564  62.679  1.00  0.00     0.186 C 
BRANCH  17  18
HETATM   18  O   UNL     1       8.382  32.713  63.427  1.00  0.00    -0.394 OA
HETATM   19  C   UNL     1       7.376  33.125  64.344  1.00  0.00     0.201 C 
ENDBRANCH  17  18
ENDBRANCH  16  17
ENDBRANCH  13  16
ENDBRANCH   1  12
BRANCH   8  20
HETATM   20  C   UNL     1       4.610  29.061  55.959  1.00  0.00     0.409 C 
HETATM   21  F   UNL     1       3.834  28.450  55.037  1.00  0.00    -0.169 F 
HETATM   22  F   UNL     1       3.768  29.721  56.797  1.00  0.00    -0.169 F 
HETATM   23  F   UNL     1       5.335  30.008  55.323  1.00  0.00    -0.169 F 
ENDBRANCH   8  20
BRANCH   6  24
HETATM   24  C   UNL     1       7.237  25.796  54.163  1.00  0.00    -0.035 A 
HETATM   25  C   UNL     1       7.231  24.553  54.819  1.00  0.00     0.009 A 
HETATM   26  C   UNL     1       7.552  23.383  54.130  1.00  0.00     0.001 A 
HETATM   27  C   UNL     1       7.876  23.436  52.775  1.00  0.00     0.000 A 
HETATM   28  C   UNL     1       7.876  24.659  52.109  1.00  0.00     0.001 A 
HETATM   29  C   UNL     1       7.558  25.831  52.797  1.00  0.00     0.009 A 
ENDBRANCH   6  24
TORSDOF 6
ENDMDL
MODEL 2
REMARK VINA RESULT:      -8.9      2.567      3.707
REMARK  6 active torsions:
REMARK  status: ('A' for Active; 'I' for Inactive)
REMARK    1  A    between atoms: O_2  and  C_3 
REMARK    2  A    between atoms: C_3  and  C_4 
REMARK    3  A    between atoms: C_4  and  N_5 
REMARK       I    between atoms: N_5  and  C_6 
REMARK    4  A    between atoms: C_6  and  C_7 
REMARK    5  A    between atoms: C_12  and  C_13 
REMARK    6  A    between atoms: C_20  and  C_21 
ROOT
HETATM    1  C   UNL     1       6.142  28.779  55.764  1.00  0.00     0.165 A 
HETATM    2  N   UNL     1       5.203  28.300  54.909  1.00  0.00    -0.163 NA
HETATM    3  N   UNL     1       5.694  27.110  54.524  1.00  0.00    -0.238 N 
HETATM    4  C   UNL     1       6.874  26.768  55.124  1.00  0.00     0.141 A 
HETATM    5  N   UNL     1       7.461  25.570  54.882  1.00  0.00    -0.365 N 
HETATM    6  C   UNL     1       6.981  24.705  53.807  1.00  0.00     0.118 C 
HETATM    7  C   UNL     1       5.448  24.810  53.714  1.00  0.00     0.066 C 
HETATM    8  C   UNL     1       4.995  26.274  53.564  1.00  0.00     0.221 C 
HETATM    9  C   UNL     1       7.191  27.837  55.923  1.00  0.00     0.092 A 
HETATM   10 BR   UNL     1       8.711  27.997  57.008  1.00  0.00    -0.044 Br
HETATM   11  H   UNL     1       8.425  25.407  55.176  1.00  0.00     0.162 HD
ENDROOT
BRANCH   1  12
HETATM   12  C   UNL     1       5.984  30.106  56.384  1.00  0.00     0.273 C 
HETATM   13  N   UNL     1       6.487  30.167  57.666  1.00  0.00    -0.353 N 
HETATM   14  H   UNL     1       7.037  29.362  57.962  1.00  0.00     0.162 HD
HETATM   15  O   UNL     1       5.462  31.066  55.827  1.00  0.00    -0.266 OA
BRANCH  13  16
HETATM   16  C   UNL     1       6.618  31.407  58.401  1.00  0.00     0.149 C 
BRANCH  16  17
HETATM   17  C   UNL     1       7.777  31.348  59.394  1.00  0.00     0.186 C 
BRANCH  17  18
HETATM   18  O   UNL     1       8.785  32.282  58.995  1.00  0.00    -0.394 OA
HETATM   19  C   UNL     1       9.991  31.622  58.628  1.00  0.00     0.201 C 
ENDBRANCH  17  18
ENDBRANCH  16  17
ENDBRANCH  13  16
ENDBRANCH   1  12
BRANCH   8  20
HETATM   20  C   UNL     1       5.223  26.800  52.164  1.00  0.00     0.409 C 
HETATM   21  F   UNL     1       5.217  25.829  51.226  1.00  0.00    -0.169 F 
HETATM   22  F   UNL     1       4.232  27.668  51.830  1.00  0.00    -0.169 F 
HETATM   23  F   UNL     1       6.384  27.480  52.042  1.00  0.00    -0.169 F 
ENDBRANCH   8  20
BRANCH   6  24
HETATM   24  C   UNL     1       7.411  23.270  54.045  1.00  0.00    -0.035 A 
HETATM   25  C   UNL     1       7.447  22.714  55.335  1.00  0.00     0.009 A 
HETATM   26  C   UNL     1       7.824  21.384  55.527  1.00  0.00     0.001 A 
HETATM   27  C   UNL     1       8.161  20.588  54.433  1.00  0.00     0.000 A 
HETATM   28  C   UNL     1       8.120  21.122  53.147  1.00  0.00     0.001 A 
HETATM   29  C   UNL     1       7.746  22.454  52.953  1.00  0.00     0.009 A 
ENDBRANCH   6  24
TORSDOF 6
ENDMDL
MODEL 3
REMARK VINA RESULT:      -8.6      3.952      4.856
REMARK  6 active torsions:
REMARK  status: ('A' for Active; 'I' for Inactive)
REMARK    1  A    between atoms: O_2  and  C_3 
REMARK    2  A    between atoms: C_3  and  C_4 
REMARK    3  A    between atoms: C_4  and  N_5 
REMARK       I    between atoms: N_5  and  C_6 
REMARK    4  A    between atoms: C_6  and  C_7 
REMARK    5  A    between atoms: C_12  and  C_13 
REMARK    6  A    between atoms: C_20  and  C_21 
ROOT
HETATM    1  C   UNL     1       5.625  28.326  55.705  1.00  0.00     0.165 A 
HETATM    2  N   UNL     1       4.875  27.865  54.671  1.00  0.00    -0.163 NA
HETATM    3  N   UNL     1       5.478  26.717  54.322  1.00  0.00    -0.238 N 
HETATM    4  C   UNL     1       6.546  26.380  55.108  1.00  0.00     0.141 A 
HETATM    5  N   UNL     1       7.219  25.219  54.916  1.00  0.00    -0.365 N 
HETATM    6  C   UNL     1       6.976  24.402  53.730  1.00  0.00     0.118 C 
HETATM    7  C   UNL     1       5.481  24.459  53.367  1.00  0.00     0.066 C 
HETATM    8  C   UNL     1       4.999  25.914  53.212  1.00  0.00     0.221 C 
HETATM    9  C   UNL     1       6.669  27.412  56.003  1.00  0.00     0.092 A 
HETATM   10 BR   UNL     1       7.962  27.562  57.352  1.00  0.00    -0.044 Br
HETATM   11  H   UNL     1       8.121  25.072  55.370  1.00  0.00     0.162 HD
ENDROOT
BRANCH   1  12
HETATM   12  C   UNL     1       5.302  29.609  56.353  1.00  0.00     0.273 C 
HETATM   13  N   UNL     1       5.353  30.680  55.485  1.00  0.00    -0.353 N 
HETATM   14  H   UNL     1       5.444  30.443  54.499  1.00  0.00     0.162 HD
HETATM   15  O   UNL     1       5.014  29.726  57.539  1.00  0.00    -0.266 OA
BRANCH  13  16
HETATM   16  C   UNL     1       4.892  32.004  55.843  1.00  0.00     0.149 C 
BRANCH  16  17
HETATM   17  C   UNL     1       3.379  32.132  55.678  1.00  0.00     0.186 C 
BRANCH  17  18
HETATM   18  O   UNL     1       2.802  32.522  56.929  1.00  0.00    -0.394 OA
HETATM   19  C   UNL     1       3.782  33.056  57.810  1.00  0.00     0.201 C 
ENDBRANCH  17  18
ENDBRANCH  16  17
ENDBRANCH  13  16
ENDBRANCH   1  12
BRANCH   8  20
HETATM   20  C   UNL     1       5.450  26.526  51.904  1.00  0.00     0.409 C 
HETATM   21  F   UNL     1       5.679  25.609  50.940  1.00  0.00    -0.169 F 
HETATM   22  F   UNL     1       4.487  27.357  51.426  1.00  0.00    -0.169 F 
HETATM   23  F   UNL     1       6.568  27.273  52.033  1.00  0.00    -0.169 F 
ENDBRANCH   8  20
BRANCH   6  24
HETATM   24  C   UNL     1       7.419  22.970  53.969  1.00  0.00    -0.035 A 
HETATM   25  C   UNL     1       7.804  22.130  52.911  1.00  0.00     0.009 A 
HETATM   26  C   UNL     1       8.230  20.824  53.157  1.00  0.00     0.001 A 
HETATM   27  C   UNL     1       8.285  20.342  54.464  1.00  0.00     0.000 A 
HETATM   28  C   UNL     1       7.916  21.166  55.524  1.00  0.00     0.001 A 
HETATM   29  C   UNL     1       7.486  22.472  55.279  1.00  0.00     0.009 A 
ENDBRANCH   6  24
TORSDOF 6
ENDMDL
MODEL 4
REMARK VINA RESULT:      -8.5      5.215      7.472
REMARK  6 active torsions:
REMARK  status: ('A' for Active; 'I' for Inactive)
REMARK    1  A    between atoms: O_2  and  C_3 
REMARK    2  A    between atoms: C_3  and  C_4 
REMARK    3  A    between atoms: C_4  and  N_5 
REMARK       I    between atoms: N_5  and  C_6 
REMARK    4  A    between atoms: C_6  and  C_7 
REMARK    5  A    between atoms: C_12  and  C_13 
REMARK    6  A    between atoms: C_20  and  C_21 
ROOT
HETATM    1  C   UNL     1       5.724  27.862  53.013  1.00  0.00     0.165 A 
HETATM    2  N   UNL     1       6.318  27.873  54.234  1.00  0.00    -0.163 NA
HETATM    3  N   UNL     1       6.558  26.576  54.488  1.00  0.00    -0.238 N 
HETATM    4  C   UNL     1       6.201  25.729  53.476  1.00  0.00     0.141 A 
HETATM    5  N   UNL     1       6.437  24.397  53.561  1.00  0.00    -0.365 N 
HETATM    6  C   UNL     1       6.866  23.793  54.820  1.00  0.00     0.118 C 
HETATM    7  C   UNL     1       7.812  24.760  55.555  1.00  0.00     0.066 C 
HETATM    8  C   UNL     1       7.164  26.145  55.735  1.00  0.00     0.221 C 
HETATM    9  C   UNL     1       5.649  26.535  52.514  1.00  0.00     0.092 A 
HETATM   10 BR   UNL     1       4.945  25.977  50.869  1.00  0.00    -0.044 Br
HETATM   11  H   UNL     1       5.997  23.758  52.898  1.00  0.00     0.162 HD
ENDROOT
BRANCH   1  12
HETATM   12  C   UNL     1       5.266  29.116  52.390  1.00  0.00     0.273 C 
HETATM   13  N   UNL     1       5.899  29.389  51.196  1.00  0.00    -0.353 N 
HETATM   14  H   UNL     1       6.469  28.635  50.818  1.00  0.00     0.162 HD
HETATM   15  O   UNL     1       4.411  29.850  52.874  1.00  0.00    -0.266 OA
BRANCH  13  16
HETATM   16  C   UNL     1       5.484  30.457  50.313  1.00  0.00     0.149 C 
BRANCH  16  17
HETATM   17  C   UNL     1       5.036  29.918  48.957  1.00  0.00     0.186 C 
BRANCH  17  18
HETATM   18  O   UNL     1       5.706  28.679  48.699  1.00  0.00    -0.394 OA
HETATM   19  C   UNL     1       5.294  28.112  47.461  1.00  0.00     0.201 C 
ENDBRANCH  17  18
ENDBRANCH  16  17
ENDBRANCH  13  16
ENDBRANCH   1  12
BRANCH   8  20
HETATM   20  C   UNL     1       6.128  26.151  56.838  1.00  0.00     0.409 C 
HETATM   21  F   UNL     1       6.361  25.219  57.788  1.00  0.00    -0.169 F 
HETATM   22  F   UNL     1       6.131  27.354  57.468  1.00  0.00    -0.169 F 
HETATM   23  F   UNL     1       4.872  25.963  56.378  1.00  0.00    -0.169 F 
ENDBRANCH   8  20
BRANCH   6  24
HETATM   24  C   UNL     1       7.547  22.460  54.568  1.00  0.00    -0.035 A 
HETATM   25  C   UNL     1       7.876  21.588  55.620  1.00  0.00     0.009 A 
HETATM   26  C   UNL     1       8.480  20.357  55.361  1.00  0.00     0.001 A 
HETATM   27  C   UNL     1       8.757  19.976  54.049  1.00  0.00     0.000 A 
HETATM   28  C   UNL     1       8.427  20.826  52.995  1.00  0.00     0.001 A 
HETATM   29  C   UNL     1       7.825  22.059  53.252  1.00  0.00     0.009 A 
ENDBRANCH   6  24
TORSDOF 6
ENDMDL
MODEL 5
REMARK VINA RESULT:      -8.4      5.023      6.134
REMARK  6 active torsions:
REMARK  status: ('A' for Active; 'I' for Inactive)
REMARK    1  A    between atoms: O_2  and  C_3 
REMARK    2  A    between atoms: C_3  and  C_4 
REMARK    3  A    between atoms: C_4  and  N_5 
REMARK       I    between atoms: N_5  and  C_6 
REMARK    4  A    between atoms: C_6  and  C_7 
REMARK    5  A    between atoms: C_12  and  C_13 
REMARK    6  A    between atoms: C_20  and  C_21 
ROOT
HETATM    1  C   UNL     1       5.917  27.941  52.860  1.00  0.00     0.165 A 
HETATM    2  N   UNL     1       6.494  27.954  54.090  1.00  0.00    -0.163 NA
HETATM    3  N   UNL     1       6.684  26.655  54.370  1.00  0.00    -0.238 N 
HETATM    4  C   UNL     1       6.313  25.802  53.368  1.00  0.00     0.141 A 
HETATM    5  N   UNL     1       6.501  24.464  53.480  1.00  0.00    -0.365 N 
HETATM    6  C   UNL     1       6.891  23.869  54.755  1.00  0.00     0.118 C 
HETATM    7  C   UNL     1       7.860  24.816  55.487  1.00  0.00     0.066 C 
HETATM    8  C   UNL     1       7.258  26.226  55.633  1.00  0.00     0.221 C 
HETATM    9  C   UNL     1       5.802  26.609  52.383  1.00  0.00     0.092 A 
HETATM   10 BR   UNL     1       5.103  26.046  50.739  1.00  0.00    -0.044 Br
HETATM   11  H   UNL     1       6.048  23.829  52.822  1.00  0.00     0.162 HD
ENDROOT
BRANCH   1  12
HETATM   12  C   UNL     1       5.511  29.199  52.209  1.00  0.00     0.273 C 
HETATM   13  N   UNL     1       4.617  29.932  52.959  1.00  0.00    -0.353 N 
HETATM   14  H   UNL     1       4.474  29.608  53.914  1.00  0.00     0.162 HD
HETATM   15  O   UNL     1       5.921  29.567  51.113  1.00  0.00    -0.266 OA
BRANCH  13  16
HETATM   16  C   UNL     1       4.225  31.283  52.616  1.00  0.00     0.149 C 
BRANCH  16  17
HETATM   17  C   UNL     1       2.961  31.703  53.362  1.00  0.00     0.186 C 
BRANCH  17  18
HETATM   18  O   UNL     1       2.918  31.034  54.627  1.00  0.00    -0.394 OA
HETATM   19  C   UNL     1       3.218  31.923  55.696  1.00  0.00     0.201 C 
ENDBRANCH  17  18
ENDBRANCH  16  17
ENDBRANCH  13  16
ENDBRANCH   1  12
BRANCH   8  20
HETATM   20  C   UNL     1       6.208  26.287  56.720  1.00  0.00     0.409 C 
HETATM   21  F   UNL     1       4.956  26.077  56.260  1.00  0.00    -0.169 F 
HETATM   22  F   UNL     1       6.446  25.322  57.647  1.00  0.00    -0.169 F 
HETATM   23  F   UNL     1       6.209  27.463  57.385  1.00  0.00    -0.169 F 
ENDBRANCH   8  20
BRANCH   6  24
HETATM   24  C   UNL     1       7.528  22.509  54.537  1.00  0.00    -0.035 A 
HETATM   25  C   UNL     1       7.816  21.647  55.609  1.00  0.00     0.009 A 
HETATM   26  C   UNL     1       8.381  20.391  55.381  1.00  0.00     0.001 A 
HETATM   27  C   UNL     1       8.659  19.976  54.080  1.00  0.00     0.000 A 
HETATM   28  C   UNL     1       8.370  20.815  53.006  1.00  0.00     0.001 A 
HETATM   29  C   UNL     1       7.808  22.073  53.232  1.00  0.00     0.009 A 
ENDBRANCH   6  24
TORSDOF 6
ENDMDL
MODEL 6
REMARK VINA RESULT:      -8.1      6.155      9.752
REMARK  6 active torsions:
REMARK  status: ('A' for Active; 'I' for Inactive)
REMARK    1  A    between atoms: O_2  and  C_3 
REMARK    2  A    between atoms: C_3  and  C_4 
REMARK    3  A    between atoms: C_4  and  N_5 
REMARK       I    between atoms: N_5  and  C_6 
REMARK    4  A    between atoms: C_6  and  C_7 
REMARK    5  A    between atoms: C_12  and  C_13 
REMARK    6  A    between atoms: C_20  and  C_21 
ROOT
HETATM    1  C   UNL     1       5.084  26.819  50.313  1.00  0.00     0.165 A 
HETATM    2  N   UNL     1       5.323  25.727  51.084  1.00  0.00    -0.163 NA
HETATM    3  N   UNL     1       5.906  26.230  52.184  1.00  0.00    -0.238 N 
HETATM    4  C   UNL     1       6.010  27.593  52.192  1.00  0.00     0.141 A 
HETATM    5  N   UNL     1       6.523  28.251  53.262  1.00  0.00    -0.365 N 
HETATM    6  C   UNL     1       7.187  27.522  54.339  1.00  0.00     0.118 C 
HETATM    7  C   UNL     1       6.466  26.181  54.570  1.00  0.00     0.066 C 
HETATM    8  C   UNL     1       6.359  25.372  53.264  1.00  0.00     0.221 C 
HETATM    9  C   UNL     1       5.496  27.998  50.987  1.00  0.00     0.092 A 
HETATM   10 BR   UNL     1       5.364  29.764  50.374  1.00  0.00    -0.044 Br
HETATM   11  H   UNL     1       6.775  29.236  53.181  1.00  0.00     0.162 HD
ENDROOT
BRANCH   1  12
HETATM   12  C   UNL     1       4.474  26.676  48.979  1.00  0.00     0.273 C 
HETATM   13  N   UNL     1       3.096  26.699  49.010  1.00  0.00    -0.353 N 
HETATM   14  H   UNL     1       2.680  26.968  49.900  1.00  0.00     0.162 HD
HETATM   15  O   UNL     1       5.115  26.550  47.941  1.00  0.00    -0.266 OA
BRANCH  13  16
HETATM   16  C   UNL     1       2.284  26.768  47.814  1.00  0.00     0.149 C 
BRANCH  16  17
HETATM   17  C   UNL     1       1.093  27.704  48.001  1.00  0.00     0.186 C 
BRANCH  17  18
HETATM   18  O   UNL     1      -0.000  27.240  47.202  1.00  0.00    -0.394 OA
HETATM   19  C   UNL     1      -0.148  28.018  46.020  1.00  0.00     0.201 C 
ENDBRANCH  17  18
ENDBRANCH  16  17
ENDBRANCH  13  16
ENDBRANCH   1  12
BRANCH   8  20
HETATM   20  C   UNL     1       7.673  24.723  52.887  1.00  0.00     0.409 C 
HETATM   21  F   UNL     1       8.437  25.498  52.088  1.00  0.00    -0.169 F 
HETATM   22  F   UNL     1       8.406  24.480  54.005  1.00  0.00    -0.169 F 
HETATM   23  F   UNL     1       7.511  23.532  52.270  1.00  0.00    -0.169 F 
ENDBRANCH   8  20
BRANCH   6  24
HETATM   24  C   UNL     1       7.208  28.350  55.610  1.00  0.00    -0.035 A 
HETATM   25  C   UNL     1       6.198  29.282  55.900  1.00  0.00     0.009 A 
HETATM   26  C   UNL     1       6.226  30.016  57.087  1.00  0.00     0.001 A 
HETATM   27  C   UNL     1       7.258  29.822  58.004  1.00  0.00     0.000 A 
HETATM   28  C   UNL     1       8.261  28.894  57.735  1.00  0.00     0.001 A 
HETATM   29  C   UNL     1       8.236  28.161  56.547  1.00  0.00     0.009 A 
ENDBRANCH   6  24
TORSDOF 6
ENDMDL
MODEL 7
REMARK VINA RESULT:      -7.9      5.497      7.858
REMARK  6 active torsions:
REMARK  status: ('A' for Active; 'I' for Inactive)
REMARK    1  A    between atoms: O_2  and  C_3 
REMARK    2  A    between atoms: C_3  and  C_4 
REMARK    3  A    between atoms: C_4  and  N_5 
REMARK       I    between atoms: N_5  and  C_6 
REMARK    4  A    between atoms: C_6  and  C_7 
REMARK    5  A    between atoms: C_12  and  C_13 
REMARK    6  A    between atoms: C_20  and  C_21 
ROOT
HETATM    1  C   UNL     1       5.736  28.488  51.578  1.00  0.00     0.165 A 
HETATM    2  N   UNL     1       6.346  28.694  52.774  1.00  0.00    -0.163 NA
HETATM    3  N   UNL     1       6.484  27.459  53.282  1.00  0.00    -0.238 N 
HETATM    4  C   UNL     1       6.048  26.458  52.458  1.00  0.00     0.141 A 
HETATM    5  N   UNL     1       6.177  25.155  52.808  1.00  0.00    -0.365 N 
HETATM    6  C   UNL     1       6.574  24.781  54.163  1.00  0.00     0.118 C 
HETATM    7  C   UNL     1       7.603  25.795  54.693  1.00  0.00     0.066 C 
HETATM    8  C   UNL     1       7.071  27.237  54.592  1.00  0.00     0.221 C 
HETATM    9  C   UNL     1       5.548  27.100  51.353  1.00  0.00     0.092 A 
HETATM   10 BR   UNL     1       4.781  26.285  49.850  1.00  0.00    -0.044 Br
HETATM   11  H   UNL     1       5.678  24.435  52.284  1.00  0.00     0.162 HD
ENDROOT
BRANCH   1  12
HETATM   12  C   UNL     1       5.372  29.627  50.717  1.00  0.00     0.273 C 
HETATM   13  N   UNL     1       4.010  29.820  50.625  1.00  0.00    -0.353 N 
HETATM   14  H   UNL     1       3.443  29.275  51.272  1.00  0.00     0.162 HD
HETATM   15  O   UNL     1       6.186  30.336  50.136  1.00  0.00    -0.266 OA
BRANCH  13  16
HETATM   16  C   UNL     1       3.422  30.984  49.996  1.00  0.00     0.149 C 
BRANCH  16  17
HETATM   17  C   UNL     1       2.800  30.634  48.646  1.00  0.00     0.186 C 
BRANCH  17  18
HETATM   18  O   UNL     1       3.585  31.218  47.601  1.00  0.00    -0.394 OA
HETATM   19  C   UNL     1       4.450  30.260  47.003  1.00  0.00     0.201 C 
ENDBRANCH  17  18
ENDBRANCH  16  17
ENDBRANCH  13  16
ENDBRANCH   1  12
BRANCH   8  20
HETATM   20  C   UNL     1       6.053  27.545  55.668  1.00  0.00     0.409 C 
HETATM   21  F   UNL     1       4.783  27.289  55.286  1.00  0.00    -0.169 F 
HETATM   22  F   UNL     1       6.290  26.773  56.762  1.00  0.00    -0.169 F 
HETATM   23  F   UNL     1       6.106  28.828  56.088  1.00  0.00    -0.169 F 
ENDBRANCH   8  20
BRANCH   6  24
HETATM   24  C   UNL     1       7.142  23.374  54.183  1.00  0.00    -0.035 A 
HETATM   25  C   UNL     1       7.518  22.713  53.002  1.00  0.00     0.009 A 
HETATM   26  C   UNL     1       8.061  21.427  53.047  1.00  0.00     0.001 A 
HETATM   27  C   UNL     1       8.242  20.789  54.272  1.00  0.00     0.000 A 
HETATM   28  C   UNL     1       7.883  21.435  55.453  1.00  0.00     0.001 A 
HETATM   29  C   UNL     1       7.338  22.720  55.409  1.00  0.00     0.009 A 
ENDBRANCH   6  24
TORSDOF 6
ENDMDL
MODEL 8
REMARK VINA RESULT:      -7.7      3.607      8.432
REMARK  6 active torsions:
REMARK  status: ('A' for Active; 'I' for Inactive)
REMARK    1  A    between atoms: O_2  and  C_3 
REMARK    2  A    between atoms: C_3  and  C_4 
REMARK    3  A    between atoms: C_4  and  N_5 
REMARK       I    between atoms: N_5  and  C_6 
REMARK    4  A    between atoms: C_6  and  C_7 
REMARK    5  A    between atoms: C_12  and  C_13 
REMARK    6  A    between atoms: C_20  and  C_21 
ROOT
HETATM    1  C   UNL     1       6.703  28.661  56.440  1.00  0.00     0.165 A 
HETATM    2  N   UNL     1       7.979  28.552  56.894  1.00  0.00    -0.163 NA
HETATM    3  N   UNL     1       8.068  29.506  57.835  1.00  0.00    -0.238 N 
HETATM    4  C   UNL     1       6.906  30.191  58.055  1.00  0.00     0.141 A 
HETATM    5  N   UNL     1       6.824  31.142  59.017  1.00  0.00    -0.365 N 
HETATM    6  C   UNL     1       8.025  31.627  59.692  1.00  0.00     0.118 C 
HETATM    7  C   UNL     1       9.009  30.459  59.889  1.00  0.00     0.066 C 
HETATM    8  C   UNL     1       9.306  29.749  58.555  1.00  0.00     0.221 C 
HETATM    9  C   UNL     1       6.009  29.670  57.156  1.00  0.00     0.092 A 
HETATM   10 BR   UNL     1       4.224  30.197  56.939  1.00  0.00    -0.044 Br
HETATM   11  H   UNL     1       6.024  31.775  59.042  1.00  0.00     0.162 HD
ENDROOT
BRANCH   1  12
HETATM   12  C   UNL     1       6.218  27.793  55.353  1.00  0.00     0.273 C 
HETATM   13  N   UNL     1       6.529  26.464  55.542  1.00  0.00    -0.353 N 
HETATM   14  H   UNL     1       6.901  26.225  56.459  1.00  0.00     0.162 HD
HETATM   15  O   UNL     1       5.599  28.200  54.375  1.00  0.00    -0.266 OA
BRANCH  13  16
HETATM   16  C   UNL     1       5.996  25.406  54.711  1.00  0.00     0.149 C 
BRANCH  16  17
HETATM   17  C   UNL     1       6.881  24.162  54.755  1.00  0.00     0.186 C 
BRANCH  17  18
HETATM   18  O   UNL     1       7.764  24.254  55.878  1.00  0.00    -0.394 OA
HETATM   19  C   UNL     1       8.909  23.426  55.709  1.00  0.00     0.201 C 
ENDBRANCH  17  18
ENDBRANCH  16  17
ENDBRANCH  13  16
ENDBRANCH   1  12
BRANCH   8  20
HETATM   20  C   UNL     1      10.256  30.544  57.686  1.00  0.00     0.409 C 
HETATM   21  F   UNL     1      11.505  30.032  57.660  1.00  0.00    -0.169 F 
HETATM   22  F   UNL     1       9.813  30.549  56.401  1.00  0.00    -0.169 F 
HETATM   23  F   UNL     1      10.351  31.839  58.061  1.00  0.00    -0.169 F 
ENDBRANCH   8  20
BRANCH   6  24
HETATM   24  C   UNL     1       7.669  32.263  61.024  1.00  0.00    -0.035 A 
HETATM   25  C   UNL     1       6.526  33.065  61.177  1.00  0.00     0.009 A 
HETATM   26  C   UNL     1       6.206  33.620  62.417  1.00  0.00     0.001 A 
HETATM   27  C   UNL     1       7.019  33.374  63.523  1.00  0.00     0.000 A 
HETATM   28  C   UNL     1       8.151  32.572  63.389  1.00  0.00     0.001 A 
HETATM   29  C   UNL     1       8.473  32.019  62.148  1.00  0.00     0.009 A 
ENDBRANCH   6  24
TORSDOF 6
ENDMDL
MODEL 9
REMARK VINA RESULT:      -7.6      3.763      8.186
REMARK  6 active torsions:
REMARK  status: ('A' for Active; 'I' for Inactive)
REMARK    1  A    between atoms: O_2  and  C_3 
REMARK    2  A    between atoms: C_3  and  C_4 
REMARK    3  A    between atoms: C_4  and  N_5 
REMARK       I    between atoms: N_5  and  C_6 
REMARK    4  A    between atoms: C_6  and  C_7 
REMARK    5  A    between atoms: C_12  and  C_13 
REMARK    6  A    between atoms: C_20  and  C_21 
ROOT
HETATM    1  C   UNL     1       6.823  27.405  55.661  1.00  0.00     0.165 A 
HETATM    2  N   UNL     1       8.055  27.481  56.228  1.00  0.00    -0.163 NA
HETATM    3  N   UNL     1       7.998  28.598  56.972  1.00  0.00    -0.238 N 
HETATM    4  C   UNL     1       6.781  29.220  56.962  1.00  0.00     0.141 A 
HETATM    5  N   UNL     1       6.552  30.325  57.713  1.00  0.00    -0.365 N 
HETATM    6  C   UNL     1       7.653  31.019  58.377  1.00  0.00     0.118 C 
HETATM    7  C   UNL     1       8.683  29.987  58.872  1.00  0.00     0.066 C 
HETATM    8  C   UNL     1       9.146  29.066  57.728  1.00  0.00     0.221 C 
HETATM    9  C   UNL     1       6.006  28.474  56.111  1.00  0.00     0.092 A 
HETATM   10 BR   UNL     1       4.220  28.811  55.654  1.00  0.00    -0.044 Br
HETATM   11  H   UNL     1       5.716  30.888  57.551  1.00  0.00     0.162 HD
ENDROOT
BRANCH   1  12
HETATM   12  C   UNL     1       6.495  26.315  54.725  1.00  0.00     0.273 C 
HETATM   13  N   UNL     1       7.587  25.866  54.014  1.00  0.00    -0.353 N 
HETATM   14  H   UNL     1       8.491  26.216  54.327  1.00  0.00     0.162 HD
HETATM   15  O   UNL     1       5.370  25.847  54.585  1.00  0.00    -0.266 OA
BRANCH  13  16
HETATM   16  C   UNL     1       7.551  24.683  53.181  1.00  0.00     0.149 C 
BRANCH  16  17
HETATM   17  C   UNL     1       7.770  23.415  54.003  1.00  0.00     0.186 C 
BRANCH  17  18
HETATM   18  O   UNL     1       8.740  23.677  55.022  1.00  0.00    -0.394 OA
HETATM   19  C   UNL     1       8.350  23.115  56.269  1.00  0.00     0.201 C 
ENDBRANCH  17  18
ENDBRANCH  16  17
ENDBRANCH  13  16
ENDBRANCH   1  12
BRANCH   8  20
HETATM   20  C   UNL     1      10.123  29.756  56.802  1.00  0.00     0.409 C 
HETATM   21  F   UNL     1      11.277  29.072  56.644  1.00  0.00    -0.169 F 
HETATM   22  F   UNL     1       9.576  29.883  55.564  1.00  0.00    -0.169 F 
HETATM   23  F   UNL     1      10.440  31.005  57.209  1.00  0.00    -0.169 F 
ENDBRANCH   8  20
BRANCH   6  24
HETATM   24  C   UNL     1       7.137  31.861  59.528  1.00  0.00    -0.035 A 
HETATM   25  C   UNL     1       7.960  32.220  60.608  1.00  0.00     0.009 A 
HETATM   26  C   UNL     1       7.469  33.016  61.644  1.00  0.00     0.001 A 
HETATM   27  C   UNL     1       6.152  33.471  61.612  1.00  0.00     0.000 A 
HETATM   28  C   UNL     1       5.326  33.131  60.543  1.00  0.00     0.001 A 
HETATM   29  C   UNL     1       5.815  32.333  59.507  1.00  0.00     0.009 A 
ENDBRANCH   6  24
TORSDOF 6
ENDMDL
MODEL 10
REMARK VINA RESULT:      -7.2      6.862      9.530
REMARK  6 active torsions:
REMARK  status: ('A' for Active; 'I' for Inactive)
REMARK    1  A    between atoms: O_2  and  C_3 
REMARK    2  A    between atoms: C_3  and  C_4 
REMARK    3  A    between atoms: C_4  and  N_5 
REMARK       I    between atoms: N_5  and  C_6 
REMARK    4  A    between atoms: C_6  and  C_7 
REMARK    5  A    between atoms: C_12  and  C_13 
REMARK    6  A    between atoms: C_20  and  C_21 
ROOT
HETATM    1  C   UNL     1       5.079  26.436  51.663  1.00  0.00     0.165 A 
HETATM    2  N   UNL     1       5.082  25.906  50.413  1.00  0.00    -0.163 NA
HETATM    3  N   UNL     1       4.862  26.963  49.614  1.00  0.00    -0.238 N 
HETATM    4  C   UNL     1       4.771  28.158  50.273  1.00  0.00     0.141 A 
HETATM    5  N   UNL     1       4.611  29.321  49.596  1.00  0.00    -0.365 N 
HETATM    6  C   UNL     1       4.302  29.319  48.168  1.00  0.00     0.118 C 
HETATM    7  C   UNL     1       5.054  28.163  47.484  1.00  0.00     0.066 C 
HETATM    8  C   UNL     1       4.756  26.818  48.173  1.00  0.00     0.221 C 
HETATM    9  C   UNL     1       4.897  27.842  51.602  1.00  0.00     0.092 A 
HETATM   10 BR   UNL     1       4.843  29.046  53.037  1.00  0.00    -0.044 Br
HETATM   11  H   UNL     1       4.349  30.171  50.097  1.00  0.00     0.162 HD
ENDROOT
BRANCH   1  12
HETATM   12  C   UNL     1       5.255  25.573  52.844  1.00  0.00     0.273 C 
HETATM   13  N   UNL     1       6.449  25.788  53.498  1.00  0.00    -0.353 N 
HETATM   14  H   UNL     1       6.976  26.605  53.194  1.00  0.00     0.162 HD
HETATM   15  O   UNL     1       4.431  24.745  53.217  1.00  0.00    -0.266 OA
BRANCH  13  16
HETATM   16  C   UNL     1       6.758  25.200  54.784  1.00  0.00     0.149 C 
BRANCH  16  17
HETATM   17  C   UNL     1       7.858  24.148  54.666  1.00  0.00     0.186 C 
BRANCH  17  18
HETATM   18  O   UNL     1       7.271  22.892  54.309  1.00  0.00    -0.394 OA
HETATM   19  C   UNL     1       7.777  22.414  53.068  1.00  0.00     0.201 C 
ENDBRANCH  17  18
ENDBRANCH  16  17
ENDBRANCH  13  16
ENDBRANCH   1  12
BRANCH   8  20
HETATM   20  C   UNL     1       3.388  26.283  47.811  1.00  0.00     0.409 C 
HETATM   21  F   UNL     1       2.969  26.682  46.591  1.00  0.00    -0.169 F 
HETATM   22  F   UNL     1       3.414  24.925  47.786  1.00  0.00    -0.169 F 
HETATM   23  F   UNL     1       2.436  26.630  48.705  1.00  0.00    -0.169 F 
ENDBRANCH   8  20
BRANCH   6  24
HETATM   24  C   UNL     1       4.672  30.649  47.540  1.00  0.00    -0.035 A 
HETATM   25  C   UNL     1       5.166  31.716  48.308  1.00  0.00     0.009 A 
HETATM   26  C   UNL     1       5.522  32.924  47.705  1.00  0.00     0.001 A 
HETATM   27  C   UNL     1       5.396  33.079  46.325  1.00  0.00     0.000 A 
HETATM   28  C   UNL     1       4.916  32.027  45.549  1.00  0.00     0.001 A 
HETATM   29  C   UNL     1       4.557  30.819  46.151  1.00  0.00     0.009 A 
ENDBRANCH   6  24
TORSDOF 6
ENDMDL
