MODEL 1
REMARK VINA RESULT:      -9.8      0.000      0.000
REMARK  5 active torsions:
REMARK  status: ('A' for Active; 'I' for Inactive)
REMARK    1  A    between atoms: C_7  and  C_8 
REMARK    2  A    between atoms: N_9  and  N_10 
REMARK       I    between atoms: N_10  and  C_11 
REMARK    3  A    between atoms: C_11  and  C_12 
REMARK    4  A    between atoms: C_12  and  N_13 
REMARK       I    between atoms: N_13  and  C_14 
REMARK    5  A    between atoms: C_14  and  C_15 
ROOT
HETATM    1  N   UNL     1       5.491  26.039  56.423  1.00  0.00    -0.246 N 
HETATM    2  C   UNL     1       5.215  27.327  55.986  1.00  0.00     0.255 C 
HETATM    3  O   UNL     1       5.192  27.696  54.813  1.00  0.00    -0.270 OA
HETATM    4  H   UNL     1       5.469  25.840  57.428  1.00  0.00     0.192 HD
ENDROOT
BRANCH   1   5
HETATM    5  N   UNL     1       5.795  25.059  55.526  1.00  0.00    -0.184 NA
HETATM    6  C   UNL     1       7.057  24.858  55.323  1.00  0.00     0.153 C 
BRANCH   6   7
HETATM    7  C   UNL     1       7.490  23.851  54.371  1.00  0.00     0.018 A 
HETATM    8  C   UNL     1       7.644  24.010  52.998  1.00  0.00     0.018 A 
HETATM    9  C   UNL     1       7.424  25.189  52.117  1.00  0.00     0.069 C 
HETATM   10  N   UNL     1       8.079  22.814  52.483  1.00  0.00    -0.358 N 
HETATM   11  H   UNL     1       8.277  22.642  51.509  1.00  0.00     0.166 HD
HETATM   12  C   UNL     1       8.215  21.878  53.480  1.00  0.00     0.043 A 
HETATM   13  C   UNL     1       7.851  22.496  54.676  1.00  0.00     0.004 A 
HETATM   14  C   UNL     1       8.634  20.543  53.407  1.00  0.00     0.030 A 
HETATM   15  C   UNL     1       7.912  21.734  55.863  1.00  0.00     0.014 A 
HETATM   16  C   UNL     1       8.329  20.398  55.809  1.00  0.00     0.001 A 
HETATM   17  C   UNL     1       8.686  19.815  54.597  1.00  0.00     0.002 A 
ENDBRANCH   6   7
ENDBRANCH   1   5
BRANCH   2  18
HETATM   18  C   UNL     1       5.035  28.318  57.138  1.00  0.00     0.227 C 
BRANCH  18  19
HETATM   19  N   UNL     1       6.207  29.137  57.404  1.00  0.00    -0.348 N 
HETATM   20  C   UNL     1       7.402  28.606  57.823  1.00  0.00     0.255 C 
HETATM   21  O   UNL     1       7.501  27.425  58.150  1.00  0.00    -0.268 OA
HETATM   22  H   UNL     1       6.143  30.126  57.185  1.00  0.00     0.163 HD
BRANCH  20  23
HETATM   23  C   UNL     1       8.579  29.517  57.899  1.00  0.00     0.070 A 
HETATM   24  C   UNL     1       8.630  30.621  58.753  1.00  0.00     0.132 A 
HETATM   25  F   UNL     1       7.607  30.913  59.571  1.00  0.00    -0.205 F 
HETATM   26  C   UNL     1       9.744  31.459  58.780  1.00  0.00     0.043 A 
HETATM   27  C   UNL     1      10.829  31.198  57.944  1.00  0.00     0.003 A 
HETATM   28  C   UNL     1      10.795  30.101  57.085  1.00  0.00     0.001 A 
HETATM   29  C   UNL     1       9.675  29.264  57.060  1.00  0.00     0.020 A 
ENDBRANCH  20  23
ENDBRANCH  18  19
ENDBRANCH   2  18
TORSDOF 5
ENDMDL
MODEL 2
REMARK VINA RESULT:      -9.4      2.203      2.857
REMARK  5 active torsions:
REMARK  status: ('A' for Active; 'I' for Inactive)
REMARK    1  A    between atoms: C_7  and  C_8 
REMARK    2  A    between atoms: N_9  and  N_10 
REMARK       I    between atoms: N_10  and  C_11 
REMARK    3  A    between atoms: C_11  and  C_12 
REMARK    4  A    between atoms: C_12  and  N_13 
REMARK       I    between atoms: N_13  and  C_14 
REMARK    5  A    between atoms: C_14  and  C_15 
ROOT
HETATM    1  N   UNL     1       7.149  27.587  55.624  1.00  0.00    -0.246 N 
HETATM    2  C   UNL     1       7.593  28.030  56.861  1.00  0.00     0.255 C 
HETATM    3  O   UNL     1       8.517  27.541  57.509  1.00  0.00    -0.270 OA
HETATM    4  H   UNL     1       6.376  28.081  55.167  1.00  0.00     0.192 HD
ENDROOT
BRANCH   1   5
HETATM    5  N   UNL     1       7.728  26.503  55.033  1.00  0.00    -0.184 NA
HETATM    6  C   UNL     1       7.045  25.406  55.086  1.00  0.00     0.153 C 
BRANCH   6   7
HETATM    7  C   UNL     1       7.579  24.187  54.505  1.00  0.00     0.018 A 
HETATM    8  C   UNL     1       7.839  23.946  53.161  1.00  0.00     0.018 A 
HETATM    9  C   UNL     1       7.659  24.805  51.958  1.00  0.00     0.069 C 
HETATM   10  N   UNL     1       8.345  22.675  53.052  1.00  0.00    -0.358 N 
HETATM   11  H   UNL     1       8.625  22.236  52.188  1.00  0.00     0.166 HD
HETATM   12  C   UNL     1       8.426  22.078  54.287  1.00  0.00     0.043 A 
HETATM   13  C   UNL     1       7.951  22.999  55.220  1.00  0.00     0.004 A 
HETATM   14  C   UNL     1       8.884  20.802  54.639  1.00  0.00     0.030 A 
HETATM   15  C   UNL     1       7.937  22.621  56.580  1.00  0.00     0.014 A 
HETATM   16  C   UNL     1       8.392  21.350  56.951  1.00  0.00     0.001 A 
HETATM   17  C   UNL     1       8.860  20.456  55.992  1.00  0.00     0.002 A 
ENDBRANCH   6   7
ENDBRANCH   1   5
BRANCH   2  18
HETATM   18  C   UNL     1       6.736  29.165  57.427  1.00  0.00     0.227 C 
BRANCH  18  19
HETATM   19  N   UNL     1       7.264  29.753  58.648  1.00  0.00    -0.348 N 
HETATM   20  C   UNL     1       7.138  31.089  58.941  1.00  0.00     0.255 C 
HETATM   21  O   UNL     1       6.711  31.891  58.113  1.00  0.00    -0.268 OA
HETATM   22  H   UNL     1       7.664  29.122  59.334  1.00  0.00     0.163 HD
BRANCH  20  23
HETATM   23  C   UNL     1       7.565  31.546  60.293  1.00  0.00     0.070 A 
HETATM   24  C   UNL     1       6.690  32.145  61.203  1.00  0.00     0.132 A 
HETATM   25  F   UNL     1       5.395  32.329  60.902  1.00  0.00    -0.205 F 
HETATM   26  C   UNL     1       7.135  32.574  62.453  1.00  0.00     0.043 A 
HETATM   27  C   UNL     1       8.472  32.408  62.809  1.00  0.00     0.003 A 
HETATM   28  C   UNL     1       9.359  31.814  61.913  1.00  0.00     0.001 A 
HETATM   29  C   UNL     1       8.909  31.386  60.660  1.00  0.00     0.020 A 
ENDBRANCH  20  23
ENDBRANCH  18  19
ENDBRANCH   2  18
TORSDOF 5
ENDMDL
MODEL 3
REMARK VINA RESULT:      -9.4      2.582      3.503
REMARK  5 active torsions:
REMARK  status: ('A' for Active; 'I' for Inactive)
REMARK    1  A    between atoms: C_7  and  C_8 
REMARK    2  A    between atoms: N_9  and  N_10 
REMARK       I    between atoms: N_10  and  C_11 
REMARK    3  A    between atoms: C_11  and  C_12 
REMARK    4  A    between atoms: C_12  and  N_13 
REMARK       I    between atoms: N_13  and  C_14 
REMARK    5  A    between atoms: C_14  and  C_15 
ROOT
HETATM    1  N   UNL     1       6.890  28.156  56.091  1.00  0.00    -0.246 N 
HETATM    2  C   UNL     1       7.373  28.544  57.333  1.00  0.00     0.255 C 
HETATM    3  O   UNL     1       7.752  27.786  58.224  1.00  0.00    -0.270 OA
HETATM    4  H   UNL     1       6.614  28.877  55.418  1.00  0.00     0.192 HD
ENDROOT
BRANCH   1   5
HETATM    5  N   UNL     1       6.777  26.834  55.781  1.00  0.00    -0.184 NA
HETATM    6  C   UNL     1       7.592  26.401  54.874  1.00  0.00     0.153 C 
BRANCH   6   7
HETATM    7  C   UNL     1       7.541  25.011  54.454  1.00  0.00     0.018 A 
HETATM    8  C   UNL     1       7.240  24.533  53.184  1.00  0.00     0.018 A 
HETATM    9  C   UNL     1       6.889  25.246  51.926  1.00  0.00     0.069 C 
HETATM   10  N   UNL     1       7.315  23.163  53.223  1.00  0.00    -0.358 N 
HETATM   11  H   UNL     1       7.147  22.552  52.437  1.00  0.00     0.166 HD
HETATM   12  C   UNL     1       7.659  22.731  54.481  1.00  0.00     0.043 A 
HETATM   13  C   UNL     1       7.806  23.866  55.278  1.00  0.00     0.004 A 
HETATM   14  C   UNL     1       7.851  21.430  54.963  1.00  0.00     0.030 A 
HETATM   15  C   UNL     1       8.166  23.686  56.631  1.00  0.00     0.014 A 
HETATM   16  C   UNL     1       8.364  22.393  57.130  1.00  0.00     0.001 A 
HETATM   17  C   UNL     1       8.208  21.283  56.304  1.00  0.00     0.002 A 
ENDBRANCH   6   7
ENDBRANCH   1   5
BRANCH   2  18
HETATM   18  C   UNL     1       7.297  30.057  57.552  1.00  0.00     0.227 C 
BRANCH  18  19
HETATM   19  N   UNL     1       7.208  30.449  58.949  1.00  0.00    -0.348 N 
HETATM   20  C   UNL     1       7.919  31.503  59.470  1.00  0.00     0.255 C 
HETATM   21  O   UNL     1       8.791  32.074  58.819  1.00  0.00    -0.268 OA
HETATM   22  H   UNL     1       6.526  29.966  59.526  1.00  0.00     0.163 HD
BRANCH  20  23
HETATM   23  C   UNL     1       7.619  31.919  60.869  1.00  0.00     0.070 A 
HETATM   24  C   UNL     1       8.578  31.912  61.885  1.00  0.00     0.132 A 
HETATM   25  F   UNL     1       9.843  31.535  61.642  1.00  0.00    -0.205 F 
HETATM   26  C   UNL     1       8.251  32.293  63.186  1.00  0.00     0.043 A 
HETATM   27  C   UNL     1       6.949  32.688  63.487  1.00  0.00     0.003 A 
HETATM   28  C   UNL     1       5.979  32.700  62.486  1.00  0.00     0.001 A 
HETATM   29  C   UNL     1       6.311  32.316  61.183  1.00  0.00     0.020 A 
ENDBRANCH  20  23
ENDBRANCH  18  19
ENDBRANCH   2  18
TORSDOF 5
ENDMDL
MODEL 4
REMARK VINA RESULT:      -9.4      4.320      7.226
REMARK  5 active torsions:
REMARK  status: ('A' for Active; 'I' for Inactive)
REMARK    1  A    between atoms: C_7  and  C_8 
REMARK    2  A    between atoms: N_9  and  N_10 
REMARK       I    between atoms: N_10  and  C_11 
REMARK    3  A    between atoms: C_11  and  C_12 
REMARK    4  A    between atoms: C_12  and  N_13 
REMARK       I    between atoms: N_13  and  C_14 
REMARK    5  A    between atoms: C_14  and  C_15 
ROOT
HETATM    1  N   UNL     1       4.779  26.391  53.470  1.00  0.00    -0.246 N 
HETATM    2  C   UNL     1       4.503  27.627  54.036  1.00  0.00     0.255 C 
HETATM    3  O   UNL     1       4.703  27.940  55.209  1.00  0.00    -0.270 OA
HETATM    4  H   UNL     1       4.584  26.245  52.475  1.00  0.00     0.192 HD
ENDROOT
BRANCH   1   5
HETATM    5  N   UNL     1       5.293  25.385  54.233  1.00  0.00    -0.184 NA
HETATM    6  C   UNL     1       6.573  25.218  54.151  1.00  0.00     0.153 C 
BRANCH   6   7
HETATM    7  C   UNL     1       7.220  24.160  54.907  1.00  0.00     0.018 A 
HETATM    8  C   UNL     1       7.548  24.180  56.258  1.00  0.00     0.018 A 
HETATM    9  C   UNL     1       7.357  25.228  57.298  1.00  0.00     0.069 C 
HETATM   10  N   UNL     1       8.134  22.977  56.565  1.00  0.00    -0.358 N 
HETATM   11  H   UNL     1       8.470  22.715  57.480  1.00  0.00     0.166 HD
HETATM   12  C   UNL     1       8.198  22.171  55.454  1.00  0.00     0.043 A 
HETATM   13  C   UNL     1       7.635  22.885  54.397  1.00  0.00     0.004 A 
HETATM   14  C   UNL     1       8.706  20.874  55.315  1.00  0.00     0.030 A 
HETATM   15  C   UNL     1       7.577  22.262  53.131  1.00  0.00     0.014 A 
HETATM   16  C   UNL     1       8.079  20.965  52.973  1.00  0.00     0.001 A 
HETATM   17  C   UNL     1       8.634  20.282  54.051  1.00  0.00     0.002 A 
ENDBRANCH   6   7
ENDBRANCH   1   5
BRANCH   2  18
HETATM   18  C   UNL     1       3.805  28.581  53.065  1.00  0.00     0.227 C 
BRANCH  18  19
HETATM   19  N   UNL     1       3.388  27.957  51.819  1.00  0.00    -0.348 N 
HETATM   20  C   UNL     1       3.759  28.440  50.588  1.00  0.00     0.255 C 
HETATM   21  O   UNL     1       4.334  29.520  50.468  1.00  0.00    -0.268 OA
HETATM   22  H   UNL     1       2.872  27.085  51.884  1.00  0.00     0.163 HD
BRANCH  20  23
HETATM   23  C   UNL     1       3.416  27.624  49.389  1.00  0.00     0.070 A 
HETATM   24  C   UNL     1       4.144  26.496  49.005  1.00  0.00     0.132 A 
HETATM   25  F   UNL     1       5.202  26.077  49.718  1.00  0.00    -0.205 F 
HETATM   26  C   UNL     1       3.800  25.769  47.866  1.00  0.00     0.043 A 
HETATM   27  C   UNL     1       2.712  26.169  47.091  1.00  0.00     0.003 A 
HETATM   28  C   UNL     1       1.974  27.293  47.459  1.00  0.00     0.001 A 
HETATM   29  C   UNL     1       2.324  28.019  48.601  1.00  0.00     0.020 A 
ENDBRANCH  20  23
ENDBRANCH  18  19
ENDBRANCH   2  18
TORSDOF 5
ENDMDL
MODEL 5
REMARK VINA RESULT:      -9.3      2.422      7.995
REMARK  5 active torsions:
REMARK  status: ('A' for Active; 'I' for Inactive)
REMARK    1  A    between atoms: C_7  and  C_8 
REMARK    2  A    between atoms: N_9  and  N_10 
REMARK       I    between atoms: N_10  and  C_11 
REMARK    3  A    between atoms: C_11  and  C_12 
REMARK    4  A    between atoms: C_12  and  N_13 
REMARK       I    between atoms: N_13  and  C_14 
REMARK    5  A    between atoms: C_14  and  C_15 
ROOT
HETATM    1  N   UNL     1       6.639  27.090  53.484  1.00  0.00    -0.246 N 
HETATM    2  C   UNL     1       5.502  26.870  52.721  1.00  0.00     0.255 C 
HETATM    3  O   UNL     1       4.453  27.508  52.797  1.00  0.00    -0.270 OA
HETATM    4  H   UNL     1       7.465  26.504  53.326  1.00  0.00     0.192 HD
ENDROOT
BRANCH   1   5
HETATM    5  N   UNL     1       6.651  28.065  54.436  1.00  0.00    -0.184 NA
HETATM    6  C   UNL     1       7.380  27.822  55.477  1.00  0.00     0.153 C 
BRANCH   6   7
HETATM    7  C   UNL     1       7.446  28.787  56.561  1.00  0.00     0.018 A 
HETATM    8  C   UNL     1       6.400  29.198  57.379  1.00  0.00     0.018 A 
HETATM    9  C   UNL     1       4.963  28.809  57.402  1.00  0.00     0.069 C 
HETATM   10  N   UNL     1       6.900  30.110  58.274  1.00  0.00    -0.358 N 
HETATM   11  H   UNL     1       6.361  30.572  58.991  1.00  0.00     0.166 HD
HETATM   12  C   UNL     1       8.244  30.306  58.067  1.00  0.00     0.043 A 
HETATM   13  C   UNL     1       8.617  29.492  56.998  1.00  0.00     0.004 A 
HETATM   14  C   UNL     1       9.146  31.134  58.746  1.00  0.00     0.030 A 
HETATM   15  C   UNL     1       9.969  29.510  56.588  1.00  0.00     0.014 A 
HETATM   16  C   UNL     1      10.885  30.332  57.256  1.00  0.00     0.001 A 
HETATM   17  C   UNL     1      10.476  31.131  58.320  1.00  0.00     0.002 A 
ENDBRANCH   6   7
ENDBRANCH   1   5
BRANCH   2  18
HETATM   18  C   UNL     1       5.628  25.650  51.806  1.00  0.00     0.227 C 
BRANCH  18  19
HETATM   19  N   UNL     1       5.982  24.423  52.502  1.00  0.00    -0.348 N 
HETATM   20  C   UNL     1       7.284  24.049  52.728  1.00  0.00     0.255 C 
HETATM   21  O   UNL     1       8.225  24.653  52.217  1.00  0.00    -0.268 OA
HETATM   22  H   UNL     1       5.224  23.877  52.899  1.00  0.00     0.163 HD
BRANCH  20  23
HETATM   23  C   UNL     1       7.525  22.863  53.597  1.00  0.00     0.070 A 
HETATM   24  C   UNL     1       7.397  22.901  54.987  1.00  0.00     0.132 A 
HETATM   25  F   UNL     1       7.031  24.028  55.620  1.00  0.00    -0.205 F 
HETATM   26  C   UNL     1       7.648  21.772  55.765  1.00  0.00     0.043 A 
HETATM   27  C   UNL     1       8.035  20.580  55.154  1.00  0.00     0.003 A 
HETATM   28  C   UNL     1       8.168  20.524  53.768  1.00  0.00     0.001 A 
HETATM   29  C   UNL     1       7.916  21.659  52.992  1.00  0.00     0.020 A 
ENDBRANCH  20  23
ENDBRANCH  18  19
ENDBRANCH   2  18
TORSDOF 5
ENDMDL
MODEL 6
REMARK VINA RESULT:      -9.0      3.863      5.273
REMARK  5 active torsions:
REMARK  status: ('A' for Active; 'I' for Inactive)
REMARK    1  A    between atoms: C_7  and  C_8 
REMARK    2  A    between atoms: N_9  and  N_10 
REMARK       I    between atoms: N_10  and  C_11 
REMARK    3  A    between atoms: C_11  and  C_12 
REMARK    4  A    between atoms: C_12  and  N_13 
REMARK       I    between atoms: N_13  and  C_14 
REMARK    5  A    between atoms: C_14  and  C_15 
ROOT
HETATM    1  N   UNL     1       7.848  29.402  58.837  1.00  0.00    -0.246 N 
HETATM    2  C   UNL     1       7.513  30.739  58.677  1.00  0.00     0.255 C 
HETATM    3  O   UNL     1       6.722  31.185  57.847  1.00  0.00    -0.270 OA
HETATM    4  H   UNL     1       8.512  29.141  59.573  1.00  0.00     0.192 HD
ENDROOT
BRANCH   1   5
HETATM    5  N   UNL     1       7.309  28.455  58.019  1.00  0.00    -0.184 NA
HETATM    6  C   UNL     1       8.128  27.910  57.178  1.00  0.00     0.153 C 
BRANCH   6   7
HETATM    7  C   UNL     1       7.651  26.903  56.246  1.00  0.00     0.018 A 
HETATM    8  C   UNL     1       6.923  27.121  55.082  1.00  0.00     0.018 A 
HETATM    9  C   UNL     1       6.426  28.377  54.457  1.00  0.00     0.069 C 
HETATM   10  N   UNL     1       6.690  25.900  54.499  1.00  0.00    -0.358 N 
HETATM   11  H   UNL     1       6.185  25.758  53.637  1.00  0.00     0.166 HD
HETATM   12  C   UNL     1       7.245  24.891  55.248  1.00  0.00     0.043 A 
HETATM   13  C   UNL     1       7.854  25.487  56.352  1.00  0.00     0.004 A 
HETATM   14  C   UNL     1       7.255  23.508  55.024  1.00  0.00     0.030 A 
HETATM   15  C   UNL     1       8.508  24.649  57.283  1.00  0.00     0.014 A 
HETATM   16  C   UNL     1       8.528  23.265  57.075  1.00  0.00     0.001 A 
HETATM   17  C   UNL     1       7.910  22.705  55.961  1.00  0.00     0.002 A 
ENDBRANCH   6   7
ENDBRANCH   1   5
BRANCH   2  18
HETATM   18  C   UNL     1       8.319  31.666  59.589  1.00  0.00     0.227 C 
BRANCH  18  19
HETATM   19  N   UNL     1       7.575  32.161  60.736  1.00  0.00    -0.348 N 
HETATM   20  C   UNL     1       7.779  31.689  62.010  1.00  0.00     0.255 C 
HETATM   21  O   UNL     1       8.490  30.711  62.228  1.00  0.00    -0.268 OA
HETATM   22  H   UNL     1       6.945  32.942  60.582  1.00  0.00     0.163 HD
BRANCH  20  23
HETATM   23  C   UNL     1       7.084  32.388  63.128  1.00  0.00     0.070 A 
HETATM   24  C   UNL     1       5.695  32.398  63.270  1.00  0.00     0.132 A 
HETATM   25  F   UNL     1       4.903  31.756  62.397  1.00  0.00    -0.205 F 
HETATM   26  C   UNL     1       5.083  33.078  64.323  1.00  0.00     0.043 A 
HETATM   27  C   UNL     1       5.863  33.763  65.253  1.00  0.00     0.003 A 
HETATM   28  C   UNL     1       7.252  33.765  65.126  1.00  0.00     0.001 A 
HETATM   29  C   UNL     1       7.860  33.082  64.069  1.00  0.00     0.020 A 
ENDBRANCH  20  23
ENDBRANCH  18  19
ENDBRANCH   2  18
TORSDOF 5
ENDMDL
MODEL 7
REMARK VINA RESULT:      -9.0      3.130      9.172
REMARK  5 active torsions:
REMARK  status: ('A' for Active; 'I' for Inactive)
REMARK    1  A    between atoms: C_7  and  C_8 
REMARK    2  A    between atoms: N_9  and  N_10 
REMARK       I    between atoms: N_10  and  C_11 
REMARK    3  A    between atoms: C_11  and  C_12 
REMARK    4  A    between atoms: C_12  and  N_13 
REMARK       I    between atoms: N_13  and  C_14 
REMARK    5  A    between atoms: C_14  and  C_15 
ROOT
HETATM    1  N   UNL     1       7.561  28.058  56.380  1.00  0.00    -0.246 N 
HETATM    2  C   UNL     1       6.653  27.297  55.658  1.00  0.00     0.255 C 
HETATM    3  O   UNL     1       5.447  27.214  55.883  1.00  0.00    -0.270 OA
HETATM    4  H   UNL     1       8.544  28.064  56.094  1.00  0.00     0.192 HD
ENDROOT
BRANCH   1   5
HETATM    5  N   UNL     1       7.147  28.778  57.461  1.00  0.00    -0.184 NA
HETATM    6  C   UNL     1       7.416  30.043  57.427  1.00  0.00     0.153 C 
BRANCH   6   7
HETATM    7  C   UNL     1       7.036  30.899  58.538  1.00  0.00     0.018 A 
HETATM    8  C   UNL     1       5.877  31.656  58.651  1.00  0.00     0.018 A 
HETATM    9  C   UNL     1       4.723  31.827  57.726  1.00  0.00     0.069 C 
HETATM   10  N   UNL     1       5.915  32.305  59.860  1.00  0.00    -0.358 N 
HETATM   11  H   UNL     1       5.197  32.923  60.208  1.00  0.00     0.166 HD
HETATM   12  C   UNL     1       7.066  31.991  60.542  1.00  0.00     0.043 A 
HETATM   13  C   UNL     1       7.792  31.113  59.739  1.00  0.00     0.004 A 
HETATM   14  C   UNL     1       7.507  32.417  61.802  1.00  0.00     0.030 A 
HETATM   15  C   UNL     1       9.029  30.635  60.226  1.00  0.00     0.014 A 
HETATM   16  C   UNL     1       9.486  31.049  61.483  1.00  0.00     0.001 A 
HETATM   17  C   UNL     1       8.733  31.926  62.258  1.00  0.00     0.002 A 
ENDBRANCH   6   7
ENDBRANCH   1   5
BRANCH   2  18
HETATM   18  C   UNL     1       7.321  26.452  54.571  1.00  0.00     0.227 C 
BRANCH  18  19
HETATM   19  N   UNL     1       7.654  25.100  54.992  1.00  0.00    -0.348 N 
HETATM   20  C   UNL     1       7.173  23.985  54.350  1.00  0.00     0.255 C 
HETATM   21  O   UNL     1       6.308  24.067  53.480  1.00  0.00    -0.268 OA
HETATM   22  H   UNL     1       8.333  24.999  55.739  1.00  0.00     0.163 HD
BRANCH  20  23
HETATM   23  C   UNL     1       7.714  22.660  54.761  1.00  0.00     0.070 A 
HETATM   24  C   UNL     1       8.061  21.664  53.846  1.00  0.00     0.132 A 
HETATM   25  F   UNL     1       7.932  21.861  52.524  1.00  0.00    -0.205 F 
HETATM   26  C   UNL     1       8.549  20.429  54.274  1.00  0.00     0.043 A 
HETATM   27  C   UNL     1       8.695  20.177  55.637  1.00  0.00     0.003 A 
HETATM   28  C   UNL     1       8.354  21.159  56.565  1.00  0.00     0.001 A 
HETATM   29  C   UNL     1       7.864  22.394  56.131  1.00  0.00     0.020 A 
ENDBRANCH  20  23
ENDBRANCH  18  19
ENDBRANCH   2  18
TORSDOF 5
ENDMDL
MODEL 8
REMARK VINA RESULT:      -8.7      2.914      9.155
REMARK  5 active torsions:
REMARK  status: ('A' for Active; 'I' for Inactive)
REMARK    1  A    between atoms: C_7  and  C_8 
REMARK    2  A    between atoms: N_9  and  N_10 
REMARK       I    between atoms: N_10  and  C_11 
REMARK    3  A    between atoms: C_11  and  C_12 
REMARK    4  A    between atoms: C_12  and  N_13 
REMARK       I    between atoms: N_13  and  C_14 
REMARK    5  A    between atoms: C_14  and  C_15 
ROOT
HETATM    1  N   UNL     1       7.055  29.133  56.517  1.00  0.00    -0.246 N 
HETATM    2  C   UNL     1       6.089  28.440  55.802  1.00  0.00     0.255 C 
HETATM    3  O   UNL     1       4.929  28.249  56.163  1.00  0.00    -0.270 OA
HETATM    4  H   UNL     1       7.989  29.244  56.111  1.00  0.00     0.192 HD
ENDROOT
BRANCH   1   5
HETATM    5  N   UNL     1       6.764  29.647  57.745  1.00  0.00    -0.184 NA
HETATM    6  C   UNL     1       6.730  30.938  57.818  1.00  0.00     0.153 C 
BRANCH   6   7
HETATM    7  C   UNL     1       6.449  31.590  59.085  1.00  0.00     0.018 A 
HETATM    8  C   UNL     1       5.267  32.220  59.457  1.00  0.00     0.018 A 
HETATM    9  C   UNL     1       3.990  32.420  58.720  1.00  0.00     0.069 C 
HETATM   10  N   UNL     1       5.426  32.689  60.737  1.00  0.00    -0.358 N 
HETATM   11  H   UNL     1       4.723  33.187  61.262  1.00  0.00     0.166 HD
HETATM   12  C   UNL     1       6.678  32.383  61.214  1.00  0.00     0.043 A 
HETATM   13  C   UNL     1       7.345  31.695  60.201  1.00  0.00     0.004 A 
HETATM   14  C   UNL     1       7.257  32.661  62.458  1.00  0.00     0.030 A 
HETATM   15  C   UNL     1       8.666  31.262  60.451  1.00  0.00     0.014 A 
HETATM   16  C   UNL     1       9.261  31.529  61.689  1.00  0.00     0.001 A 
HETATM   17  C   UNL     1       8.564  32.219  62.677  1.00  0.00     0.002 A 
ENDBRANCH   6   7
ENDBRANCH   1   5
BRANCH   2  18
HETATM   18  C   UNL     1       6.636  27.820  54.515  1.00  0.00     0.227 C 
BRANCH  18  19
HETATM   19  N   UNL     1       7.087  26.445  54.665  1.00  0.00    -0.348 N 
HETATM   20  C   UNL     1       6.329  25.369  54.272  1.00  0.00     0.255 C 
HETATM   21  O   UNL     1       5.160  25.503  53.915  1.00  0.00    -0.268 OA
HETATM   22  H   UNL     1       8.034  26.300  54.999  1.00  0.00     0.163 HD
BRANCH  20  23
HETATM   23  C   UNL     1       6.962  24.021  54.316  1.00  0.00     0.070 A 
HETATM   24  C   UNL     1       7.235  23.350  55.510  1.00  0.00     0.132 A 
HETATM   25  F   UNL     1       6.924  23.893  56.698  1.00  0.00    -0.205 F 
HETATM   26  C   UNL     1       7.844  22.096  55.508  1.00  0.00     0.043 A 
HETATM   27  C   UNL     1       8.190  21.494  54.299  1.00  0.00     0.003 A 
HETATM   28  C   UNL     1       7.925  22.150  53.098  1.00  0.00     0.001 A 
HETATM   29  C   UNL     1       7.315  23.408  53.105  1.00  0.00     0.020 A 
ENDBRANCH  20  23
ENDBRANCH  18  19
ENDBRANCH   2  18
TORSDOF 5
ENDMDL
MODEL 9
REMARK VINA RESULT:      -8.7      3.778      5.651
REMARK  5 active torsions:
REMARK  status: ('A' for Active; 'I' for Inactive)
REMARK    1  A    between atoms: C_7  and  C_8 
REMARK    2  A    between atoms: N_9  and  N_10 
REMARK       I    between atoms: N_10  and  C_11 
REMARK    3  A    between atoms: C_11  and  C_12 
REMARK    4  A    between atoms: C_12  and  N_13 
REMARK       I    between atoms: N_13  and  C_14 
REMARK    5  A    between atoms: C_14  and  C_15 
ROOT
HETATM    1  N   UNL     1       7.796  29.215  58.708  1.00  0.00    -0.246 N 
HETATM    2  C   UNL     1       7.275  30.489  58.533  1.00  0.00     0.255 C 
HETATM    3  O   UNL     1       6.329  30.782  57.804  1.00  0.00    -0.270 OA
HETATM    4  H   UNL     1       8.581  29.084  59.354  1.00  0.00     0.192 HD
ENDROOT
BRANCH   1   5
HETATM    5  N   UNL     1       7.276  28.159  58.021  1.00  0.00    -0.184 NA
HETATM    6  C   UNL     1       8.082  27.580  57.191  1.00  0.00     0.153 C 
BRANCH   6   7
HETATM    7  C   UNL     1       7.622  26.456  56.394  1.00  0.00     0.018 A 
HETATM    8  C   UNL     1       7.993  25.124  56.535  1.00  0.00     0.018 A 
HETATM    9  C   UNL     1       8.926  24.462  57.488  1.00  0.00     0.069 C 
HETATM   10  N   UNL     1       7.318  24.397  55.586  1.00  0.00    -0.358 N 
HETATM   11  H   UNL     1       7.394  23.399  55.461  1.00  0.00     0.166 HD
HETATM   12  C   UNL     1       6.515  25.216  54.829  1.00  0.00     0.043 A 
HETATM   13  C   UNL     1       6.684  26.514  55.309  1.00  0.00     0.004 A 
HETATM   14  C   UNL     1       5.657  24.900  53.768  1.00  0.00     0.030 A 
HETATM   15  C   UNL     1       5.953  27.552  54.691  1.00  0.00     0.014 A 
HETATM   16  C   UNL     1       5.090  27.255  53.629  1.00  0.00     0.001 A 
HETATM   17  C   UNL     1       4.946  25.946  53.177  1.00  0.00     0.002 A 
ENDBRANCH   6   7
ENDBRANCH   1   5
BRANCH   2  18
HETATM   18  C   UNL     1       8.072  31.563  59.275  1.00  0.00     0.227 C 
BRANCH  18  19
HETATM   19  N   UNL     1       7.418  32.062  60.475  1.00  0.00    -0.348 N 
HETATM   20  C   UNL     1       7.711  31.588  61.730  1.00  0.00     0.255 C 
HETATM   21  O   UNL     1       8.429  30.603  61.894  1.00  0.00    -0.268 OA
HETATM   22  H   UNL     1       6.785  32.848  60.367  1.00  0.00     0.163 HD
BRANCH  20  23
HETATM   23  C   UNL     1       7.106  32.290  62.896  1.00  0.00     0.070 A 
HETATM   24  C   UNL     1       5.728  32.339  63.122  1.00  0.00     0.132 A 
HETATM   25  F   UNL     1       4.867  31.733  62.289  1.00  0.00    -0.205 F 
HETATM   26  C   UNL     1       5.202  33.023  64.217  1.00  0.00     0.043 A 
HETATM   27  C   UNL     1       6.057  33.671  65.107  1.00  0.00     0.003 A 
HETATM   28  C   UNL     1       7.434  33.633  64.897  1.00  0.00     0.001 A 
HETATM   29  C   UNL     1       7.958  32.948  63.797  1.00  0.00     0.020 A 
ENDBRANCH  20  23
ENDBRANCH  18  19
ENDBRANCH   2  18
TORSDOF 5
ENDMDL
MODEL 10
REMARK VINA RESULT:      -8.7      4.647      7.981
REMARK  5 active torsions:
REMARK  status: ('A' for Active; 'I' for Inactive)
REMARK    1  A    between atoms: C_7  and  C_8 
REMARK    2  A    between atoms: N_9  and  N_10 
REMARK       I    between atoms: N_10  and  C_11 
REMARK    3  A    between atoms: C_11  and  C_12 
REMARK    4  A    between atoms: C_12  and  N_13 
REMARK       I    between atoms: N_13  and  C_14 
REMARK    5  A    between atoms: C_14  and  C_15 
ROOT
HETATM    1  N   UNL     1       5.890  26.530  53.119  1.00  0.00    -0.246 N 
HETATM    2  C   UNL     1       6.005  27.171  54.344  1.00  0.00     0.255 C 
HETATM    3  O   UNL     1       5.309  28.109  54.731  1.00  0.00    -0.270 OA
HETATM    4  H   UNL     1       6.517  25.748  52.907  1.00  0.00     0.192 HD
ENDROOT
BRANCH   1   5
HETATM    5  N   UNL     1       4.964  26.946  52.209  1.00  0.00    -0.184 NA
HETATM    6  C   UNL     1       5.438  27.382  51.087  1.00  0.00     0.153 C 
BRANCH   6   7
HETATM    7  C   UNL     1       4.538  27.868  50.056  1.00  0.00     0.018 A 
HETATM    8  C   UNL     1       4.155  29.186  49.836  1.00  0.00     0.018 A 
HETATM    9  C   UNL     1       4.519  30.444  50.544  1.00  0.00     0.069 C 
HETATM   10  N   UNL     1       3.305  29.202  48.758  1.00  0.00    -0.358 N 
HETATM   11  H   UNL     1       2.875  30.029  48.373  1.00  0.00     0.166 HD
HETATM   12  C   UNL     1       3.122  27.932  48.267  1.00  0.00     0.043 A 
HETATM   13  C   UNL     1       3.880  27.072  49.060  1.00  0.00     0.004 A 
HETATM   14  C   UNL     1       2.350  27.490  47.185  1.00  0.00     0.030 A 
HETATM   15  C   UNL     1       3.864  25.694  48.751  1.00  0.00     0.014 A 
HETATM   16  C   UNL     1       3.098  25.234  47.672  1.00  0.00     0.001 A 
HETATM   17  C   UNL     1       2.354  26.123  46.901  1.00  0.00     0.002 A 
ENDBRANCH   6   7
ENDBRANCH   1   5
BRANCH   2  18
HETATM   18  C   UNL     1       7.185  26.659  55.173  1.00  0.00     0.227 C 
BRANCH  18  19
HETATM   19  N   UNL     1       7.622  25.319  54.816  1.00  0.00    -0.348 N 
HETATM   20  C   UNL     1       7.099  24.190  55.398  1.00  0.00     0.255 C 
HETATM   21  O   UNL     1       6.345  24.256  56.366  1.00  0.00    -0.268 OA
HETATM   22  H   UNL     1       8.280  25.232  54.047  1.00  0.00     0.163 HD
BRANCH  20  23
HETATM   23  C   UNL     1       7.499  22.870  54.834  1.00  0.00     0.070 A 
HETATM   24  C   UNL     1       7.611  22.632  53.462  1.00  0.00     0.132 A 
HETATM   25  F   UNL     1       7.371  23.605  52.568  1.00  0.00    -0.205 F 
HETATM   26  C   UNL     1       7.971  21.376  52.976  1.00  0.00     0.043 A 
HETATM   27  C   UNL     1       8.225  20.334  53.866  1.00  0.00     0.003 A 
HETATM   28  C   UNL     1       8.117  20.553  55.238  1.00  0.00     0.001 A 
HETATM   29  C   UNL     1       7.754  21.813  55.721  1.00  0.00     0.020 A 
ENDBRANCH  20  23
ENDBRANCH  18  19
ENDBRANCH   2  18
TORSDOF 5
ENDMDL
