MODEL 1
REMARK VINA RESULT:     -10.6      0.000      0.000
REMARK  1 active torsions:
REMARK  status: ('A' for Active; 'I' for Inactive)
REMARK    1  A    between atoms: C_4  and  C_5 
REMARK       I    between atoms: C_5  and  N_6 
ROOT
HETATM    1  C   UNL     1       7.408  25.047  52.625  1.00  0.00     0.275 C 
HETATM    2  N   UNL     1       6.090  25.313  52.271  1.00  0.00    -0.342 N 
HETATM    3  C   UNL     1       5.841  25.948  50.967  1.00  0.00     0.167 C 
HETATM    4  C   UNL     1       5.148  27.257  51.190  1.00  0.00    -0.005 A 
HETATM    5  C   UNL     1       4.597  27.626  52.403  1.00  0.00     0.020 A 
HETATM    6  N   UNL     1       4.054  28.872  52.275  1.00  0.00    -0.358 N 
HETATM    7  H   UNL     1       3.604  29.400  53.009  1.00  0.00     0.166 HD
HETATM    8  C   UNL     1       4.204  29.310  50.975  1.00  0.00     0.043 A 
HETATM    9  C   UNL     1       4.888  28.313  50.272  1.00  0.00     0.000 A 
HETATM   10  C   UNL     1       3.790  30.504  50.374  1.00  0.00     0.030 A 
HETATM   11  C   UNL     1       4.076  30.681  49.016  1.00  0.00     0.002 A 
HETATM   12  C   UNL     1       4.751  29.704  48.290  1.00  0.00     0.001 A 
HETATM   13  C   UNL     1       5.166  28.517  48.906  1.00  0.00     0.014 A 
HETATM   14  C   UNL     1       4.628  26.793  53.641  1.00  0.00     0.077 C 
HETATM   15  C   UNL     1       4.960  25.339  53.225  1.00  0.00     0.132 C 
HETATM   16  O   UNL     1       8.377  25.206  51.890  1.00  0.00    -0.266 OA
ENDROOT
BRANCH   1  17
HETATM   17  C   UNL     1       7.672  24.436  53.991  1.00  0.00     0.156 A 
HETATM   18  N   UNL     1       7.739  25.245  55.009  1.00  0.00    -0.164 NA
HETATM   19  N   UNL     1       7.957  24.717  56.258  1.00  0.00    -0.238 N 
HETATM   20  C   UNL     1       8.020  25.659  57.358  1.00  0.00     0.183 C 
HETATM   21  C   UNL     1       8.172  23.366  56.517  1.00  0.00     0.274 A 
HETATM   22  C   UNL     1       8.113  22.459  55.357  1.00  0.00     0.046 A 
HETATM   23  O   UNL     1       8.392  22.909  57.636  1.00  0.00    -0.266 OA
HETATM   24  C   UNL     1       7.850  22.977  54.093  1.00  0.00     0.016 A 
HETATM   25  C   UNL     1       8.316  21.082  55.526  1.00  0.00     0.018 A 
HETATM   26  C   UNL     1       7.781  22.117  52.990  1.00  0.00     0.015 A 
HETATM   27  C   UNL     1       7.987  20.744  53.160  1.00  0.00     0.001 A 
HETATM   28  C   UNL     1       8.255  20.228  54.425  1.00  0.00     0.001 A 
ENDBRANCH   1  17
TORSDOF 1
ENDMDL
MODEL 2
REMARK VINA RESULT:     -10.0      4.561      8.329
REMARK  1 active torsions:
REMARK  status: ('A' for Active; 'I' for Inactive)
REMARK    1  A    between atoms: C_4  and  C_5 
REMARK       I    between atoms: C_5  and  N_6 
ROOT
HETATM    1  C   UNL     1       8.063  28.340  57.300  1.00  0.00     0.275 C 
HETATM    2  N   UNL     1       7.338  27.154  57.347  1.00  0.00    -0.342 N 
HETATM    3  C   UNL     1       8.063  25.893  57.129  1.00  0.00     0.167 C 
HETATM    4  C   UNL     1       7.485  25.201  55.932  1.00  0.00    -0.005 A 
HETATM    5  C   UNL     1       6.291  25.575  55.344  1.00  0.00     0.020 A 
HETATM    6  N   UNL     1       6.054  24.756  54.278  1.00  0.00    -0.358 N 
HETATM    7  H   UNL     1       5.265  24.814  53.650  1.00  0.00     0.166 HD
HETATM    8  C   UNL     1       7.061  23.816  54.185  1.00  0.00     0.043 A 
HETATM    9  C   UNL     1       7.973  24.074  55.214  1.00  0.00     0.000 A 
HETATM   10  C   UNL     1       7.232  22.768  53.274  1.00  0.00     0.030 A 
HETATM   11  C   UNL     1       8.361  21.955  53.422  1.00  0.00     0.002 A 
HETATM   12  C   UNL     1       9.283  22.185  54.440  1.00  0.00     0.001 A 
HETATM   13  C   UNL     1       9.103  23.242  55.340  1.00  0.00     0.014 A 
HETATM   14  C   UNL     1       5.435  26.708  55.801  1.00  0.00     0.077 C 
HETATM   15  C   UNL     1       5.864  27.074  57.244  1.00  0.00     0.132 C 
HETATM   16  O   UNL     1       9.283  28.411  57.193  1.00  0.00    -0.266 OA
ENDROOT
BRANCH   1  17
HETATM   17  C   UNL     1       7.308  29.647  57.475  1.00  0.00     0.156 A 
HETATM   18  N   UNL     1       6.477  29.992  56.535  1.00  0.00    -0.164 NA
HETATM   19  N   UNL     1       5.768  31.159  56.678  1.00  0.00    -0.238 N 
HETATM   20  C   UNL     1       4.853  31.497  55.605  1.00  0.00     0.183 C 
HETATM   21  C   UNL     1       5.912  32.046  57.742  1.00  0.00     0.274 A 
HETATM   22  C   UNL     1       6.869  31.656  58.794  1.00  0.00     0.046 A 
HETATM   23  O   UNL     1       5.291  33.100  57.846  1.00  0.00    -0.266 OA
HETATM   24  C   UNL     1       7.561  30.456  58.681  1.00  0.00     0.016 A 
HETATM   25  C   UNL     1       7.077  32.488  59.902  1.00  0.00     0.018 A 
HETATM   26  C   UNL     1       8.462  30.076  59.684  1.00  0.00     0.015 A 
HETATM   27  C   UNL     1       8.671  30.908  60.787  1.00  0.00     0.001 A 
HETATM   28  C   UNL     1       7.980  32.113  60.896  1.00  0.00     0.001 A 
ENDBRANCH   1  17
TORSDOF 1
ENDMDL
MODEL 3
REMARK VINA RESULT:      -9.8      2.133      7.862
REMARK  1 active torsions:
REMARK  status: ('A' for Active; 'I' for Inactive)
REMARK    1  A    between atoms: C_4  and  C_5 
REMARK       I    between atoms: C_5  and  N_6 
ROOT
HETATM    1  C   UNL     1       5.652  26.565  52.046  1.00  0.00     0.275 C 
HETATM    2  N   UNL     1       6.900  26.198  52.538  1.00  0.00    -0.342 N 
HETATM    3  C   UNL     1       7.392  24.846  52.232  1.00  0.00     0.167 C 
HETATM    4  C   UNL     1       7.617  24.109  53.517  1.00  0.00    -0.005 A 
HETATM    5  C   UNL     1       7.628  24.728  54.754  1.00  0.00     0.020 A 
HETATM    6  N   UNL     1       7.847  23.783  55.713  1.00  0.00    -0.358 N 
HETATM    7  H   UNL     1       7.883  23.946  56.709  1.00  0.00     0.166 HD
HETATM    8  C   UNL     1       8.025  22.551  55.115  1.00  0.00     0.043 A 
HETATM    9  C   UNL     1       7.886  22.729  53.735  1.00  0.00     0.000 A 
HETATM   10  C   UNL     1       8.295  21.302  55.689  1.00  0.00     0.030 A 
HETATM   11  C   UNL     1       8.434  20.209  54.828  1.00  0.00     0.002 A 
HETATM   12  C   UNL     1       8.306  20.357  53.449  1.00  0.00     0.001 A 
HETATM   13  C   UNL     1       8.028  21.610  52.890  1.00  0.00     0.014 A 
HETATM   14  C   UNL     1       7.406  26.186  54.978  1.00  0.00     0.077 C 
HETATM   15  C   UNL     1       7.610  26.910  53.624  1.00  0.00     0.132 C 
HETATM   16  O   UNL     1       4.971  25.884  51.287  1.00  0.00    -0.266 OA
ENDROOT
BRANCH   1  17
HETATM   17  C   UNL     1       5.120  27.943  52.402  1.00  0.00     0.156 A 
HETATM   18  N   UNL     1       4.674  28.122  53.611  1.00  0.00    -0.164 NA
HETATM   19  N   UNL     1       4.206  29.363  53.965  1.00  0.00    -0.238 N 
HETATM   20  C   UNL     1       3.724  29.511  55.324  1.00  0.00     0.183 C 
HETATM   21  C   UNL     1       4.117  30.450  53.099  1.00  0.00     0.274 A 
HETATM   22  C   UNL     1       4.607  30.234  51.725  1.00  0.00     0.046 A 
HETATM   23  O   UNL     1       3.672  31.549  53.419  1.00  0.00    -0.266 OA
HETATM   24  C   UNL     1       5.124  28.993  51.368  1.00  0.00     0.016 A 
HETATM   25  C   UNL     1       4.557  31.273  50.786  1.00  0.00     0.018 A 
HETATM   26  C   UNL     1       5.601  28.788  50.068  1.00  0.00     0.015 A 
HETATM   27  C   UNL     1       5.548  29.824  49.131  1.00  0.00     0.001 A 
HETATM   28  C   UNL     1       5.025  31.065  49.489  1.00  0.00     0.001 A 
ENDBRANCH   1  17
TORSDOF 1
ENDMDL
MODEL 4
REMARK VINA RESULT:      -9.7      4.242      7.149
REMARK  1 active torsions:
REMARK  status: ('A' for Active; 'I' for Inactive)
REMARK    1  A    between atoms: C_4  and  C_5 
REMARK       I    between atoms: C_5  and  N_6 
ROOT
HETATM    1  C   UNL     1       7.803  26.828  56.855  1.00  0.00     0.275 C 
HETATM    2  N   UNL     1       8.185  28.163  56.776  1.00  0.00    -0.342 N 
HETATM    3  C   UNL     1       8.843  28.763  57.948  1.00  0.00     0.167 C 
HETATM    4  C   UNL     1       8.017  29.913  58.433  1.00  0.00    -0.005 A 
HETATM    5  C   UNL     1       6.979  30.463  57.703  1.00  0.00     0.020 A 
HETATM    6  N   UNL     1       6.428  31.481  58.425  1.00  0.00    -0.358 N 
HETATM    7  H   UNL     1       5.638  32.046  58.146  1.00  0.00     0.166 HD
HETATM    8  C   UNL     1       7.122  31.637  59.608  1.00  0.00     0.043 A 
HETATM    9  C   UNL     1       8.126  30.664  59.637  1.00  0.00     0.000 A 
HETATM   10  C   UNL     1       6.936  32.558  60.646  1.00  0.00     0.030 A 
HETATM   11  C   UNL     1       7.805  32.487  61.740  1.00  0.00     0.002 A 
HETATM   12  C   UNL     1       8.817  31.532  61.794  1.00  0.00     0.001 A 
HETATM   13  C   UNL     1       8.987  30.613  60.752  1.00  0.00     0.014 A 
HETATM   14  C   UNL     1       6.537  29.985  56.360  1.00  0.00     0.077 C 
HETATM   15  C   UNL     1       7.675  29.117  55.768  1.00  0.00     0.132 C 
HETATM   16  O   UNL     1       8.066  26.079  57.789  1.00  0.00    -0.266 OA
ENDROOT
BRANCH   1  17
HETATM   17  C   UNL     1       7.078  26.221  55.666  1.00  0.00     0.156 A 
HETATM   18  N   UNL     1       6.084  26.892  55.161  1.00  0.00    -0.164 NA
HETATM   19  N   UNL     1       5.425  26.375  54.072  1.00  0.00    -0.238 N 
HETATM   20  C   UNL     1       4.327  27.162  53.546  1.00  0.00     0.183 C 
HETATM   21  C   UNL     1       5.706  25.140  53.493  1.00  0.00     0.274 A 
HETATM   22  C   UNL     1       6.821  24.378  54.083  1.00  0.00     0.046 A 
HETATM   23  O   UNL     1       5.091  24.676  52.536  1.00  0.00    -0.266 OA
HETATM   24  C   UNL     1       7.524  24.911  55.157  1.00  0.00     0.016 A 
HETATM   25  C   UNL     1       7.173  23.125  53.562  1.00  0.00     0.018 A 
HETATM   26  C   UNL     1       8.592  24.196  55.713  1.00  0.00     0.015 A 
HETATM   27  C   UNL     1       8.941  22.946  55.194  1.00  0.00     0.001 A 
HETATM   28  C   UNL     1       8.232  22.410  54.121  1.00  0.00     0.001 A 
ENDBRANCH   1  17
TORSDOF 1
ENDMDL
MODEL 5
REMARK VINA RESULT:      -9.4      5.383      8.030
REMARK  1 active torsions:
REMARK  status: ('A' for Active; 'I' for Inactive)
REMARK    1  A    between atoms: C_4  and  C_5 
REMARK       I    between atoms: C_5  and  N_6 
ROOT
HETATM    1  C   UNL     1       7.599  29.736  57.271  1.00  0.00     0.275 C 
HETATM    2  N   UNL     1       6.909  28.537  57.124  1.00  0.00    -0.342 N 
HETATM    3  C   UNL     1       7.480  27.518  56.230  1.00  0.00     0.167 C 
HETATM    4  C   UNL     1       6.500  27.230  55.135  1.00  0.00    -0.005 A 
HETATM    5  C   UNL     1       5.184  27.654  55.163  1.00  0.00     0.020 A 
HETATM    6  N   UNL     1       4.566  27.239  54.020  1.00  0.00    -0.358 N 
HETATM    7  H   UNL     1       3.607  27.428  53.762  1.00  0.00     0.166 HD
HETATM    8  C   UNL     1       5.452  26.506  53.256  1.00  0.00     0.043 A 
HETATM    9  C   UNL     1       6.674  26.485  53.935  1.00  0.00     0.000 A 
HETATM   10  C   UNL     1       5.264  25.866  52.025  1.00  0.00     0.030 A 
HETATM   11  C   UNL     1       6.352  25.180  51.477  1.00  0.00     0.002 A 
HETATM   12  C   UNL     1       7.580  25.138  52.133  1.00  0.00     0.001 A 
HETATM   13  C   UNL     1       7.756  25.788  53.360  1.00  0.00     0.014 A 
HETATM   14  C   UNL     1       4.573  28.457  56.263  1.00  0.00     0.077 C 
HETATM   15  C   UNL     1       5.493  28.340  57.503  1.00  0.00     0.132 C 
HETATM   16  O   UNL     1       8.704  29.971  56.793  1.00  0.00    -0.266 OA
ENDROOT
BRANCH   1  17
HETATM   17  C   UNL     1       6.988  30.809  58.155  1.00  0.00     0.156 A 
HETATM   18  N   UNL     1       5.962  31.460  57.688  1.00  0.00    -0.164 NA
HETATM   19  N   UNL     1       5.377  32.422  58.475  1.00  0.00    -0.238 N 
HETATM   20  C   UNL     1       4.236  33.115  57.910  1.00  0.00     0.183 C 
HETATM   21  C   UNL     1       5.840  32.802  59.732  1.00  0.00     0.274 A 
HETATM   22  C   UNL     1       7.014  32.073  60.246  1.00  0.00     0.046 A 
HETATM   23  O   UNL     1       5.324  33.683  60.415  1.00  0.00    -0.266 OA
HETATM   24  C   UNL     1       7.588  31.067  59.476  1.00  0.00     0.016 A 
HETATM   25  C   UNL     1       7.547  32.390  61.503  1.00  0.00     0.018 A 
HETATM   26  C   UNL     1       8.696  30.364  59.966  1.00  0.00     0.015 A 
HETATM   27  C   UNL     1       9.228  30.683  61.219  1.00  0.00     0.001 A 
HETATM   28  C   UNL     1       8.655  31.695  61.986  1.00  0.00     0.001 A 
ENDBRANCH   1  17
TORSDOF 1
ENDMDL
MODEL 6
REMARK VINA RESULT:      -9.2      1.745      3.450
REMARK  1 active torsions:
REMARK  status: ('A' for Active; 'I' for Inactive)
REMARK    1  A    between atoms: C_4  and  C_5 
REMARK       I    between atoms: C_5  and  N_6 
ROOT
HETATM    1  C   UNL     1       7.393  25.607  53.018  1.00  0.00     0.275 C 
HETATM    2  N   UNL     1       6.069  25.544  52.596  1.00  0.00    -0.342 N 
HETATM    3  C   UNL     1       5.797  25.680  51.156  1.00  0.00     0.167 C 
HETATM    4  C   UNL     1       4.916  26.872  50.940  1.00  0.00    -0.005 A 
HETATM    5  C   UNL     1       4.259  27.526  51.967  1.00  0.00     0.020 A 
HETATM    6  N   UNL     1       3.553  28.567  51.440  1.00  0.00    -0.358 N 
HETATM    7  H   UNL     1       2.997  29.231  51.961  1.00  0.00     0.166 HD
HETATM    8  C   UNL     1       3.703  28.580  50.068  1.00  0.00     0.043 A 
HETATM    9  C   UNL     1       4.555  27.524  49.728  1.00  0.00     0.000 A 
HETATM   10  C   UNL     1       3.154  29.442  49.110  1.00  0.00     0.030 A 
HETATM   11  C   UNL     1       3.478  29.212  47.769  1.00  0.00     0.002 A 
HETATM   12  C   UNL     1       4.320  28.166  47.401  1.00  0.00     0.001 A 
HETATM   13  C   UNL     1       4.867  27.317  48.370  1.00  0.00     0.014 A 
HETATM   14  C   UNL     1       4.347  27.151  53.408  1.00  0.00     0.077 C 
HETATM   15  C   UNL     1       4.902  25.707  53.489  1.00  0.00     0.132 C 
HETATM   16  O   UNL     1       8.364  25.664  52.271  1.00  0.00    -0.266 OA
ENDROOT
BRANCH   1  17
HETATM   17  C   UNL     1       7.673  25.515  54.509  1.00  0.00     0.156 A 
HETATM   18  N   UNL     1       7.862  24.331  55.013  1.00  0.00    -0.164 NA
HETATM   19  N   UNL     1       8.137  24.221  56.354  1.00  0.00    -0.238 N 
HETATM   20  C   UNL     1       8.342  22.881  56.866  1.00  0.00     0.183 C 
HETATM   21  C   UNL     1       8.173  25.293  57.242  1.00  0.00     0.274 A 
HETATM   22  C   UNL     1       7.939  26.630  56.666  1.00  0.00     0.046 A 
HETATM   23  O   UNL     1       8.394  25.180  58.446  1.00  0.00    -0.266 OA
HETATM   24  C   UNL     1       7.703  26.757  55.302  1.00  0.00     0.016 A 
HETATM   25  C   UNL     1       7.958  27.765  57.487  1.00  0.00     0.018 A 
HETATM   26  C   UNL     1       7.493  28.026  54.749  1.00  0.00     0.015 A 
HETATM   27  C   UNL     1       7.510  29.158  55.569  1.00  0.00     0.001 A 
HETATM   28  C   UNL     1       7.741  29.028  56.937  1.00  0.00     0.001 A 
ENDBRANCH   1  17
TORSDOF 1
ENDMDL
MODEL 7
REMARK VINA RESULT:      -9.2      2.863      8.194
REMARK  1 active torsions:
REMARK  status: ('A' for Active; 'I' for Inactive)
REMARK    1  A    between atoms: C_4  and  C_5 
REMARK       I    between atoms: C_5  and  N_6 
ROOT
HETATM    1  C   UNL     1       6.030  27.236  54.976  1.00  0.00     0.275 C 
HETATM    2  N   UNL     1       5.543  25.941  54.830  1.00  0.00    -0.342 N 
HETATM    3  C   UNL     1       6.158  24.878  55.641  1.00  0.00     0.167 C 
HETATM    4  C   UNL     1       6.744  23.848  54.726  1.00  0.00    -0.005 A 
HETATM    5  C   UNL     1       6.476  23.796  53.371  1.00  0.00     0.020 A 
HETATM    6  N   UNL     1       7.168  22.754  52.827  1.00  0.00    -0.358 N 
HETATM    7  H   UNL     1       7.179  22.494  51.851  1.00  0.00     0.166 HD
HETATM    8  C   UNL     1       7.858  22.089  53.821  1.00  0.00     0.043 A 
HETATM    9  C   UNL     1       7.608  22.757  55.025  1.00  0.00     0.000 A 
HETATM   10  C   UNL     1       8.679  20.958  53.746  1.00  0.00     0.030 A 
HETATM   11  C   UNL     1       9.253  20.491  54.933  1.00  0.00     0.002 A 
HETATM   12  C   UNL     1       9.018  21.133  56.146  1.00  0.00     0.001 A 
HETATM   13  C   UNL     1       8.200  22.268  56.206  1.00  0.00     0.014 A 
HETATM   14  C   UNL     1       5.592  24.752  52.641  1.00  0.00     0.077 C 
HETATM   15  C   UNL     1       4.719  25.485  53.690  1.00  0.00     0.132 C 
HETATM   16  O   UNL     1       6.864  27.582  55.807  1.00  0.00    -0.266 OA
ENDROOT
BRANCH   1  17
HETATM   17  C   UNL     1       5.431  28.327  54.104  1.00  0.00     0.156 A 
HETATM   18  N   UNL     1       5.780  28.354  52.851  1.00  0.00    -0.164 NA
HETATM   19  N   UNL     1       5.238  29.317  52.036  1.00  0.00    -0.238 N 
HETATM   20  C   UNL     1       5.655  29.302  50.648  1.00  0.00     0.183 C 
HETATM   21  C   UNL     1       4.374  30.321  52.467  1.00  0.00     0.274 A 
HETATM   22  C   UNL     1       3.999  30.295  53.893  1.00  0.00     0.046 A 
HETATM   23  O   UNL     1       3.916  31.194  51.734  1.00  0.00    -0.266 OA
HETATM   24  C   UNL     1       4.507  29.298  54.718  1.00  0.00     0.016 A 
HETATM   25  C   UNL     1       3.133  31.266  54.412  1.00  0.00     0.018 A 
HETATM   26  C   UNL     1       4.143  29.262  56.069  1.00  0.00     0.015 A 
HETATM   27  C   UNL     1       3.282  30.233  56.588  1.00  0.00     0.001 A 
HETATM   28  C   UNL     1       2.777  31.235  55.761  1.00  0.00     0.001 A 
ENDBRANCH   1  17
TORSDOF 1
ENDMDL
MODEL 8
REMARK VINA RESULT:      -9.0      5.101      7.698
REMARK  1 active torsions:
REMARK  status: ('A' for Active; 'I' for Inactive)
REMARK    1  A    between atoms: C_4  and  C_5 
REMARK       I    between atoms: C_5  and  N_6 
ROOT
HETATM    1  C   UNL     1       8.467  29.248  57.275  1.00  0.00     0.275 C 
HETATM    2  N   UNL     1       7.890  27.986  57.185  1.00  0.00    -0.342 N 
HETATM    3  C   UNL     1       8.243  27.148  56.027  1.00  0.00     0.167 C 
HETATM    4  C   UNL     1       6.996  26.835  55.258  1.00  0.00    -0.005 A 
HETATM    5  C   UNL     1       5.724  27.069  55.747  1.00  0.00     0.020 A 
HETATM    6  N   UNL     1       4.816  26.686  54.803  1.00  0.00    -0.358 N 
HETATM    7  H   UNL     1       3.812  26.764  54.881  1.00  0.00     0.166 HD
HETATM    8  C   UNL     1       5.478  26.161  53.712  1.00  0.00     0.043 A 
HETATM    9  C   UNL     1       6.849  26.243  53.972  1.00  0.00     0.000 A 
HETATM   10  C   UNL     1       4.969  25.626  52.522  1.00  0.00     0.030 A 
HETATM   11  C   UNL     1       5.887  25.154  51.578  1.00  0.00     0.002 A 
HETATM   12  C   UNL     1       7.258  25.218  51.812  1.00  0.00     0.001 A 
HETATM   13  C   UNL     1       7.752  25.763  53.003  1.00  0.00     0.014 A 
HETATM   14  C   UNL     1       5.421  27.667  57.080  1.00  0.00     0.077 C 
HETATM   15  C   UNL     1       6.699  27.558  57.949  1.00  0.00     0.132 C 
HETATM   16  O   UNL     1       9.330  29.680  56.518  1.00  0.00    -0.266 OA
ENDROOT
BRANCH   1  17
HETATM   17  C   UNL     1       8.067  30.135  58.443  1.00  0.00     0.156 A 
HETATM   18  N   UNL     1       8.738  30.007  59.551  1.00  0.00    -0.164 NA
HETATM   19  N   UNL     1       8.410  30.810  60.616  1.00  0.00    -0.238 N 
HETATM   20  C   UNL     1       9.189  30.632  61.826  1.00  0.00     0.183 C 
HETATM   21  C   UNL     1       7.362  31.726  60.620  1.00  0.00     0.274 A 
HETATM   22  C   UNL     1       6.595  31.851  59.367  1.00  0.00     0.046 A 
HETATM   23  O   UNL     1       7.061  32.421  61.588  1.00  0.00    -0.266 OA
HETATM   24  C   UNL     1       6.946  31.074  58.268  1.00  0.00     0.016 A 
HETATM   25  C   UNL     1       5.523  32.749  59.282  1.00  0.00     0.018 A 
HETATM   26  C   UNL     1       6.228  31.198  57.072  1.00  0.00     0.015 A 
HETATM   27  C   UNL     1       5.157  32.093  56.989  1.00  0.00     0.001 A 
HETATM   28  C   UNL     1       4.804  32.867  58.092  1.00  0.00     0.001 A 
ENDBRANCH   1  17
TORSDOF 1
ENDMDL
MODEL 9
REMARK VINA RESULT:      -8.6      4.145      7.821
REMARK  1 active torsions:
REMARK  status: ('A' for Active; 'I' for Inactive)
REMARK    1  A    between atoms: C_4  and  C_5 
REMARK       I    between atoms: C_5  and  N_6 
ROOT
HETATM    1  C   UNL     1       8.161  28.082  57.228  1.00  0.00     0.275 C 
HETATM    2  N   UNL     1       7.549  26.845  57.400  1.00  0.00    -0.342 N 
HETATM    3  C   UNL     1       8.345  25.638  57.128  1.00  0.00     0.167 C 
HETATM    4  C   UNL     1       7.682  24.857  56.034  1.00  0.00    -0.005 A 
HETATM    5  C   UNL     1       6.397  25.111  55.592  1.00  0.00     0.020 A 
HETATM    6  N   UNL     1       6.099  24.236  54.589  1.00  0.00    -0.358 N 
HETATM    7  H   UNL     1       5.235  24.207  54.065  1.00  0.00     0.166 HD
HETATM    8  C   UNL     1       7.161  23.376  54.395  1.00  0.00     0.043 A 
HETATM    9  C   UNL     1       8.169  23.745  55.292  1.00  0.00     0.000 A 
HETATM   10  C   UNL     1       7.305  22.310  53.499  1.00  0.00     0.030 A 
HETATM   11  C   UNL     1       8.507  21.596  53.526  1.00  0.00     0.002 A 
HETATM   12  C   UNL     1       9.526  21.938  54.412  1.00  0.00     0.001 A 
HETATM   13  C   UNL     1       9.372  23.011  55.297  1.00  0.00     0.014 A 
HETATM   14  C   UNL     1       5.513  26.190  56.123  1.00  0.00     0.077 C 
HETATM   15  C   UNL     1       6.086  26.644  57.488  1.00  0.00     0.132 C 
HETATM   16  O   UNL     1       9.348  28.245  56.965  1.00  0.00    -0.266 OA
ENDROOT
BRANCH   1  17
HETATM   17  C   UNL     1       7.327  29.331  57.461  1.00  0.00     0.156 A 
HETATM   18  N   UNL     1       7.501  29.968  58.582  1.00  0.00    -0.164 NA
HETATM   19  N   UNL     1       6.775  31.111  58.809  1.00  0.00    -0.238 N 
HETATM   20  C   UNL     1       7.006  31.786  60.071  1.00  0.00     0.183 C 
HETATM   21  C   UNL     1       5.809  31.618  57.944  1.00  0.00     0.274 A 
HETATM   22  C   UNL     1       5.605  30.880  56.685  1.00  0.00     0.046 A 
HETATM   23  O   UNL     1       5.146  32.628  58.171  1.00  0.00    -0.266 OA
HETATM   24  C   UNL     1       6.366  29.745  56.424  1.00  0.00     0.016 A 
HETATM   25  C   UNL     1       4.654  31.319  55.754  1.00  0.00     0.018 A 
HETATM   26  C   UNL     1       6.184  29.048  55.223  1.00  0.00     0.015 A 
HETATM   27  C   UNL     1       5.233  29.486  54.297  1.00  0.00     0.001 A 
HETATM   28  C   UNL     1       4.468  30.619  54.562  1.00  0.00     0.001 A 
ENDBRANCH   1  17
TORSDOF 1
ENDMDL
MODEL 10
REMARK VINA RESULT:      -8.4      9.789     12.932
REMARK  1 active torsions:
REMARK  status: ('A' for Active; 'I' for Inactive)
REMARK    1  A    between atoms: C_4  and  C_5 
REMARK       I    between atoms: C_5  and  N_6 
ROOT
HETATM    1  C   UNL     1       4.583  33.519  60.345  1.00  0.00     0.275 C 
HETATM    2  N   UNL     1       4.114  33.009  61.551  1.00  0.00    -0.342 N 
HETATM    3  C   UNL     1       3.617  33.962  62.556  1.00  0.00     0.167 C 
HETATM    4  C   UNL     1       4.440  33.827  63.801  1.00  0.00    -0.005 A 
HETATM    5  C   UNL     1       5.312  32.777  64.023  1.00  0.00     0.020 A 
HETATM    6  N   UNL     1       5.909  32.955  65.237  1.00  0.00    -0.358 N 
HETATM    7  H   UNL     1       6.609  32.353  65.648  1.00  0.00     0.166 HD
HETATM    8  C   UNL     1       5.406  34.092  65.837  1.00  0.00     0.043 A 
HETATM    9  C   UNL     1       4.480  34.658  64.955  1.00  0.00     0.000 A 
HETATM   10  C   UNL     1       5.699  34.657  67.084  1.00  0.00     0.030 A 
HETATM   11  C   UNL     1       5.023  35.828  67.442  1.00  0.00     0.002 A 
HETATM   12  C   UNL     1       4.092  36.411  66.586  1.00  0.00     0.001 A 
HETATM   13  C   UNL     1       3.814  35.839  65.339  1.00  0.00     0.014 A 
HETATM   14  C   UNL     1       5.561  31.660  63.066  1.00  0.00     0.077 C 
HETATM   15  C   UNL     1       4.397  31.644  62.044  1.00  0.00     0.132 C 
HETATM   16  O   UNL     1       4.519  34.698  60.011  1.00  0.00    -0.266 OA
ENDROOT
BRANCH   1  17
HETATM   17  C   UNL     1       5.142  32.543  59.325  1.00  0.00     0.156 A 
HETATM   18  N   UNL     1       4.312  32.034  58.461  1.00  0.00    -0.164 NA
HETATM   19  N   UNL     1       4.795  31.164  57.515  1.00  0.00    -0.238 N 
HETATM   20  C   UNL     1       3.831  30.628  56.575  1.00  0.00     0.183 C 
HETATM   21  C   UNL     1       6.117  30.731  57.442  1.00  0.00     0.274 A 
HETATM   22  C   UNL     1       7.047  31.297  58.436  1.00  0.00     0.046 A 
HETATM   23  O   UNL     1       6.532  29.931  56.608  1.00  0.00    -0.266 OA
HETATM   24  C   UNL     1       6.578  32.213  59.371  1.00  0.00     0.016 A 
HETATM   25  C   UNL     1       8.396  30.919  58.436  1.00  0.00     0.018 A 
HETATM   26  C   UNL     1       7.461  32.763  60.309  1.00  0.00     0.015 A 
HETATM   27  C   UNL     1       8.806  32.382  60.309  1.00  0.00     0.001 A 
HETATM   28  C   UNL     1       9.274  31.460  59.375  1.00  0.00     0.001 A 
ENDBRANCH   1  17
TORSDOF 1
ENDMDL
