MODEL 1
REMARK VINA RESULT:      -8.6      0.000      0.000
REMARK  5 active torsions:
REMARK  status: ('A' for Active; 'I' for Inactive)
REMARK    1  A    between atoms: C_4  and  C_5 
REMARK    2  A    between atoms: C_5  and  N_6 
REMARK    3  A    between atoms: N_6  and  C_9 
REMARK    4  A    between atoms: C_12  and  O_13 
REMARK    5  A    between atoms: O_13  and  C_14 
ROOT
HETATM    1  C   UNL     1       7.434  24.965  54.741  1.00  0.00     0.164 A 
HETATM    2  N   UNL     1       7.350  23.928  55.600  1.00  0.00    -0.236 NA
HETATM    3  C   UNL     1       7.608  22.696  55.093  1.00  0.00     0.142 A 
HETATM    4  C   UNL     1       7.936  22.458  53.766  1.00  0.00     0.062 A 
HETATM    5  C   UNL     1       8.198  21.129  53.310  1.00  0.00     0.101 C 
HETATM    6  N   UNL     1       8.407  20.049  52.947  1.00  0.00    -0.191 NA
HETATM    7  C   UNL     1       8.001  23.551  52.902  1.00  0.00     0.028 A 
HETATM    8  C   UNL     1       7.739  24.828  53.396  1.00  0.00     0.059 A 
ENDROOT
BRANCH   1   9
HETATM    9  O   UNL     1       7.168  26.244  55.188  1.00  0.00    -0.329 OA
BRANCH   9  10
HETATM   10  C   UNL     1       7.012  26.354  56.609  1.00  0.00     0.130 C 
HETATM   11  C   UNL     1       8.326  26.933  57.153  1.00  0.00     0.034 C 
HETATM   12  C   UNL     1       8.573  28.367  56.676  1.00  0.00     0.035 C 
HETATM   13  C   UNL     1       7.403  29.311  56.974  1.00  0.00     0.186 C 
HETATM   14  C   UNL     1       6.082  28.725  56.462  1.00  0.00     0.035 C 
HETATM   15  C   UNL     1       5.838  27.289  56.941  1.00  0.00     0.034 C 
BRANCH  13  16
HETATM   16  N   UNL     1       7.271  29.549  58.453  1.00  0.00    -0.067 N 
HETATM   17  H   UNL     1       6.984  28.693  58.945  1.00  0.00     0.278 HD
HETATM   18  H   UNL     1       6.504  30.217  58.620  1.00  0.00     0.278 HD
BRANCH  16  19
HETATM   19  C   UNL     1       8.476  30.095  59.157  1.00  0.00     0.280 C 
BRANCH  19  20
HETATM   20  C   UNL     1       8.079  31.016  60.252  1.00  0.00     0.027 A 
HETATM   21  S   UNL     1       8.824  30.928  61.798  1.00  0.00    -0.077 SA
HETATM   22  C   UNL     1       7.830  32.219  62.346  1.00  0.00     0.071 A 
HETATM   23  C   UNL     1       7.943  32.734  63.739  1.00  0.00     0.078 C 
HETATM   24  N   UNL     1       6.995  32.693  61.447  1.00  0.00    -0.258 NA
HETATM   25  C   UNL     1       7.145  32.029  60.251  1.00  0.00     0.133 A 
ENDBRANCH  19  20
ENDBRANCH  16  19
ENDBRANCH  13  16
ENDBRANCH   9  10
ENDBRANCH   1   9
TORSDOF 5
ENDMDL
MODEL 2
REMARK VINA RESULT:      -8.2      1.606      2.093
REMARK  5 active torsions:
REMARK  status: ('A' for Active; 'I' for Inactive)
REMARK    1  A    between atoms: C_4  and  C_5 
REMARK    2  A    between atoms: C_5  and  N_6 
REMARK    3  A    between atoms: N_6  and  C_9 
REMARK    4  A    between atoms: C_12  and  O_13 
REMARK    5  A    between atoms: O_13  and  C_14 
ROOT
HETATM    1  C   UNL     1       6.835  24.556  54.459  1.00  0.00     0.164 A 
HETATM    2  N   UNL     1       6.972  23.656  55.454  1.00  0.00    -0.236 NA
HETATM    3  C   UNL     1       7.490  22.449  55.115  1.00  0.00     0.142 A 
HETATM    4  C   UNL     1       7.866  22.102  53.825  1.00  0.00     0.062 A 
HETATM    5  C   UNL     1       8.407  20.809  53.550  1.00  0.00     0.101 C 
HETATM    6  N   UNL     1       8.845  19.758  53.333  1.00  0.00    -0.191 NA
HETATM    7  C   UNL     1       7.697  23.051  52.818  1.00  0.00     0.028 A 
HETATM    8  C   UNL     1       7.166  24.300  53.138  1.00  0.00     0.059 A 
ENDROOT
BRANCH   1   9
HETATM    9  O   UNL     1       6.299  25.800  54.732  1.00  0.00    -0.329 OA
BRANCH   9  10
HETATM   10  C   UNL     1       7.263  26.785  55.128  1.00  0.00     0.130 C 
HETATM   11  C   UNL     1       7.038  28.008  54.227  1.00  0.00     0.034 C 
HETATM   12  C   UNL     1       5.679  28.671  54.474  1.00  0.00     0.035 C 
HETATM   13  C   UNL     1       5.443  29.032  55.944  1.00  0.00     0.186 C 
HETATM   14  C   UNL     1       5.697  27.824  56.852  1.00  0.00     0.035 C 
HETATM   15  C   UNL     1       7.057  27.163  56.603  1.00  0.00     0.034 C 
BRANCH  13  16
HETATM   16  N   UNL     1       6.357  30.146  56.375  1.00  0.00    -0.067 N 
HETATM   17  H   UNL     1       6.419  30.877  55.656  1.00  0.00     0.278 HD
HETATM   18  H   UNL     1       7.316  29.782  56.462  1.00  0.00     0.278 HD
BRANCH  16  19
HETATM   19  C   UNL     1       6.034  30.816  57.677  1.00  0.00     0.280 C 
BRANCH  19  20
HETATM   20  C   UNL     1       7.224  30.853  58.564  1.00  0.00     0.027 A 
HETATM   21  S   UNL     1       7.275  31.889  59.935  1.00  0.00    -0.077 SA
HETATM   22  C   UNL     1       8.856  31.320  60.299  1.00  0.00     0.071 A 
HETATM   23  C   UNL     1       9.599  31.833  61.485  1.00  0.00     0.078 C 
HETATM   24  N   UNL     1       9.325  30.420  59.464  1.00  0.00    -0.258 NA
HETATM   25  C   UNL     1       8.397  30.135  58.489  1.00  0.00     0.133 A 
ENDBRANCH  19  20
ENDBRANCH  16  19
ENDBRANCH  13  16
ENDBRANCH   9  10
ENDBRANCH   1   9
TORSDOF 5
ENDMDL
MODEL 3
REMARK VINA RESULT:      -7.8      2.964      9.450
REMARK  5 active torsions:
REMARK  status: ('A' for Active; 'I' for Inactive)
REMARK    1  A    between atoms: C_4  and  C_5 
REMARK    2  A    between atoms: C_5  and  N_6 
REMARK    3  A    between atoms: N_6  and  C_9 
REMARK    4  A    between atoms: C_12  and  O_13 
REMARK    5  A    between atoms: O_13  and  C_14 
ROOT
HETATM    1  C   UNL     1       7.978  30.667  59.084  1.00  0.00     0.164 A 
HETATM    2  N   UNL     1       8.849  30.206  60.005  1.00  0.00    -0.236 NA
HETATM    3  C   UNL     1       8.818  30.802  61.223  1.00  0.00     0.142 A 
HETATM    4  C   UNL     1       7.962  31.843  61.555  1.00  0.00     0.062 A 
HETATM    5  C   UNL     1       7.988  32.416  62.863  1.00  0.00     0.101 C 
HETATM    6  N   UNL     1       8.016  32.877  63.926  1.00  0.00    -0.191 NA
HETATM    7  C   UNL     1       7.084  32.305  60.575  1.00  0.00     0.028 A 
HETATM    8  C   UNL     1       7.095  31.711  59.313  1.00  0.00     0.059 A 
ENDROOT
BRANCH   1   9
HETATM    9  O   UNL     1       7.968  30.115  57.818  1.00  0.00    -0.329 OA
BRANCH   9  10
HETATM   10  C   UNL     1       7.519  28.754  57.770  1.00  0.00     0.130 C 
HETATM   11  C   UNL     1       6.042  28.792  57.349  1.00  0.00     0.034 C 
HETATM   12  C   UNL     1       5.856  29.314  55.922  1.00  0.00     0.035 C 
HETATM   13  C   UNL     1       6.693  28.553  54.888  1.00  0.00     0.186 C 
HETATM   14  C   UNL     1       8.163  28.484  55.317  1.00  0.00     0.035 C 
HETATM   15  C   UNL     1       8.346  27.961  56.747  1.00  0.00     0.034 C 
BRANCH  13  16
HETATM   16  N   UNL     1       6.185  27.148  54.718  1.00  0.00    -0.067 N 
HETATM   17  H   UNL     1       5.157  27.121  54.712  1.00  0.00     0.278 HD
HETATM   18  H   UNL     1       6.457  26.589  55.538  1.00  0.00     0.278 HD
BRANCH  16  19
HETATM   19  C   UNL     1       6.665  26.400  53.511  1.00  0.00     0.280 C 
BRANCH  19  20
HETATM   20  C   UNL     1       7.009  24.998  53.858  1.00  0.00     0.027 A 
HETATM   21  S   UNL     1       7.716  23.946  52.697  1.00  0.00    -0.077 SA
HETATM   22  C   UNL     1       7.744  22.684  53.865  1.00  0.00     0.071 A 
HETATM   23  C   UNL     1       8.287  21.339  53.524  1.00  0.00     0.078 C 
HETATM   24  N   UNL     1       7.263  23.012  55.043  1.00  0.00    -0.258 NA
HETATM   25  C   UNL     1       6.863  24.329  55.054  1.00  0.00     0.133 A 
ENDBRANCH  19  20
ENDBRANCH  16  19
ENDBRANCH  13  16
ENDBRANCH   9  10
ENDBRANCH   1   9
TORSDOF 5
ENDMDL
MODEL 4
REMARK VINA RESULT:      -7.6      2.965      9.674
REMARK  5 active torsions:
REMARK  status: ('A' for Active; 'I' for Inactive)
REMARK    1  A    between atoms: C_4  and  C_5 
REMARK    2  A    between atoms: C_5  and  N_6 
REMARK    3  A    between atoms: N_6  and  C_9 
REMARK    4  A    between atoms: C_12  and  O_13 
REMARK    5  A    between atoms: O_13  and  C_14 
ROOT
HETATM    1  C   UNL     1       8.510  30.789  60.584  1.00  0.00     0.164 A 
HETATM    2  N   UNL     1       7.795  31.920  60.411  1.00  0.00    -0.236 NA
HETATM    3  C   UNL     1       7.548  32.659  61.521  1.00  0.00     0.142 A 
HETATM    4  C   UNL     1       7.976  32.310  62.795  1.00  0.00     0.062 A 
HETATM    5  C   UNL     1       7.676  33.145  63.915  1.00  0.00     0.101 C 
HETATM    6  N   UNL     1       7.429  33.827  64.819  1.00  0.00    -0.191 NA
HETATM    7  C   UNL     1       8.700  31.128  62.940  1.00  0.00     0.028 A 
HETATM    8  C   UNL     1       8.968  30.348  61.816  1.00  0.00     0.059 A 
ENDROOT
BRANCH   1   9
HETATM    9  O   UNL     1       8.784  29.982  59.497  1.00  0.00    -0.329 OA
BRANCH   9  10
HETATM   10  C   UNL     1       8.362  30.521  58.238  1.00  0.00     0.130 C 
HETATM   11  C   UNL     1       9.445  30.150  57.214  1.00  0.00     0.034 C 
HETATM   12  C   UNL     1       9.533  28.639  56.981  1.00  0.00     0.035 C 
HETATM   13  C   UNL     1       8.189  28.010  56.598  1.00  0.00     0.186 C 
HETATM   14  C   UNL     1       7.096  28.402  57.598  1.00  0.00     0.035 C 
HETATM   15  C   UNL     1       7.011  29.915  57.830  1.00  0.00     0.034 C 
BRANCH  13  16
HETATM   16  N   UNL     1       7.758  28.459  55.229  1.00  0.00    -0.067 N 
HETATM   17  H   UNL     1       8.503  28.312  54.536  1.00  0.00     0.278 HD
HETATM   18  H   UNL     1       7.608  29.477  55.239  1.00  0.00     0.278 HD
BRANCH  16  19
HETATM   19  C   UNL     1       6.504  27.846  54.683  1.00  0.00     0.280 C 
BRANCH  19  20
HETATM   20  C   UNL     1       6.677  26.387  54.467  1.00  0.00     0.027 A 
HETATM   21  S   UNL     1       7.658  25.791  53.188  1.00  0.00    -0.077 SA
HETATM   22  C   UNL     1       7.290  24.180  53.663  1.00  0.00     0.071 A 
HETATM   23  C   UNL     1       7.859  23.016  52.927  1.00  0.00     0.078 C 
HETATM   24  N   UNL     1       6.490  24.080  54.702  1.00  0.00    -0.258 NA
HETATM   25  C   UNL     1       6.155  25.328  55.177  1.00  0.00     0.133 A 
ENDBRANCH  19  20
ENDBRANCH  16  19
ENDBRANCH  13  16
ENDBRANCH   9  10
ENDBRANCH   1   9
TORSDOF 5
ENDMDL
MODEL 5
REMARK VINA RESULT:      -7.6      2.031      2.297
REMARK  5 active torsions:
REMARK  status: ('A' for Active; 'I' for Inactive)
REMARK    1  A    between atoms: C_4  and  C_5 
REMARK    2  A    between atoms: C_5  and  N_6 
REMARK    3  A    between atoms: N_6  and  C_9 
REMARK    4  A    between atoms: C_12  and  O_13 
REMARK    5  A    between atoms: O_13  and  C_14 
ROOT
HETATM    1  C   UNL     1       7.697  25.041  54.881  1.00  0.00     0.164 A 
HETATM    2  N   UNL     1       8.256  24.105  55.676  1.00  0.00    -0.236 NA
HETATM    3  C   UNL     1       8.415  22.869  55.140  1.00  0.00     0.142 A 
HETATM    4  C   UNL     1       8.032  22.529  53.850  1.00  0.00     0.062 A 
HETATM    5  C   UNL     1       8.237  21.203  53.358  1.00  0.00     0.101 C 
HETATM    6  N   UNL     1       8.406  20.126  52.966  1.00  0.00    -0.191 NA
HETATM    7  C   UNL     1       7.444  23.516  53.060  1.00  0.00     0.028 A 
HETATM    8  C   UNL     1       7.267  24.796  53.586  1.00  0.00     0.059 A 
ENDROOT
BRANCH   1   9
HETATM    9  O   UNL     1       7.491  26.317  55.369  1.00  0.00    -0.329 OA
BRANCH   9  10
HETATM   10  C   UNL     1       6.802  26.365  56.626  1.00  0.00     0.130 C 
HETATM   11  C   UNL     1       7.348  27.587  57.381  1.00  0.00     0.034 C 
HETATM   12  C   UNL     1       6.991  28.906  56.689  1.00  0.00     0.035 C 
HETATM   13  C   UNL     1       5.490  29.060  56.425  1.00  0.00     0.186 C 
HETATM   14  C   UNL     1       4.932  27.831  55.700  1.00  0.00     0.035 C 
HETATM   15  C   UNL     1       5.290  26.512  56.395  1.00  0.00     0.034 C 
BRANCH  13  16
HETATM   16  N   UNL     1       4.734  29.232  57.714  1.00  0.00    -0.067 N 
HETATM   17  H   UNL     1       5.361  29.164  58.526  1.00  0.00     0.278 HD
HETATM   18  H   UNL     1       4.075  28.448  57.826  1.00  0.00     0.278 HD
BRANCH  16  19
HETATM   19  C   UNL     1       3.933  30.489  57.863  1.00  0.00     0.280 C 
BRANCH  19  20
HETATM   20  C   UNL     1       4.604  31.440  58.786  1.00  0.00     0.027 A 
HETATM   21  S   UNL     1       3.720  32.262  60.009  1.00  0.00    -0.077 SA
HETATM   22  C   UNL     1       5.160  33.057  60.509  1.00  0.00     0.071 A 
HETATM   23  C   UNL     1       5.146  34.020  61.646  1.00  0.00     0.078 C 
HETATM   24  N   UNL     1       6.233  32.740  59.819  1.00  0.00    -0.258 NA
HETATM   25  C   UNL     1       5.931  31.808  58.853  1.00  0.00     0.133 A 
ENDBRANCH  19  20
ENDBRANCH  16  19
ENDBRANCH  13  16
ENDBRANCH   9  10
ENDBRANCH   1   9
TORSDOF 5
ENDMDL
MODEL 6
REMARK VINA RESULT:      -7.3      6.145      8.294
REMARK  5 active torsions:
REMARK  status: ('A' for Active; 'I' for Inactive)
REMARK    1  A    between atoms: C_4  and  C_5 
REMARK    2  A    between atoms: C_5  and  N_6 
REMARK    3  A    between atoms: N_6  and  C_9 
REMARK    4  A    between atoms: C_12  and  O_13 
REMARK    5  A    between atoms: O_13  and  C_14 
ROOT
HETATM    1  C   UNL     1       7.222  24.652  53.932  1.00  0.00     0.164 A 
HETATM    2  N   UNL     1       6.919  24.007  55.077  1.00  0.00    -0.236 NA
HETATM    3  C   UNL     1       7.353  22.727  55.187  1.00  0.00     0.142 A 
HETATM    4  C   UNL     1       8.068  22.064  54.199  1.00  0.00     0.062 A 
HETATM    5  C   UNL     1       8.493  20.714  54.392  1.00  0.00     0.101 C 
HETATM    6  N   UNL     1       8.833  19.618  54.556  1.00  0.00    -0.191 NA
HETATM    7  C   UNL     1       8.353  22.756  53.022  1.00  0.00     0.028 A 
HETATM    8  C   UNL     1       7.917  24.073  52.882  1.00  0.00     0.059 A 
ENDROOT
BRANCH   1   9
HETATM    9  O   UNL     1       6.797  25.954  53.749  1.00  0.00    -0.329 OA
BRANCH   9  10
HETATM   10  C   UNL     1       5.379  26.096  53.586  1.00  0.00     0.130 C 
HETATM   11  C   UNL     1       5.093  27.603  53.517  1.00  0.00     0.034 C 
HETATM   12  C   UNL     1       5.695  28.254  52.269  1.00  0.00     0.035 C 
HETATM   13  C   UNL     1       5.274  27.563  50.967  1.00  0.00     0.186 C 
HETATM   14  C   UNL     1       5.528  26.054  51.041  1.00  0.00     0.035 C 
HETATM   15  C   UNL     1       4.924  25.405  52.292  1.00  0.00     0.034 C 
BRANCH  13  16
HETATM   16  N   UNL     1       3.812  27.783  50.693  1.00  0.00    -0.067 N 
HETATM   17  H   UNL     1       3.469  28.634  51.156  1.00  0.00     0.278 HD
HETATM   18  H   UNL     1       3.270  27.017  51.118  1.00  0.00     0.278 HD
BRANCH  16  19
HETATM   19  C   UNL     1       3.399  27.852  49.254  1.00  0.00     0.280 C 
BRANCH  19  20
HETATM   20  C   UNL     1       3.843  29.126  48.635  1.00  0.00     0.027 A 
HETATM   21  S   UNL     1       3.712  30.616  49.483  1.00  0.00    -0.077 SA
HETATM   22  C   UNL     1       4.381  31.439  48.130  1.00  0.00     0.071 A 
HETATM   23  C   UNL     1       4.587  32.915  48.158  1.00  0.00     0.078 C 
HETATM   24  N   UNL     1       4.685  30.668  47.110  1.00  0.00    -0.258 NA
HETATM   25  C   UNL     1       4.402  29.352  47.396  1.00  0.00     0.133 A 
ENDBRANCH  19  20
ENDBRANCH  16  19
ENDBRANCH  13  16
ENDBRANCH   9  10
ENDBRANCH   1   9
TORSDOF 5
ENDMDL
MODEL 7
REMARK VINA RESULT:      -7.3      2.989      4.035
REMARK  5 active torsions:
REMARK  status: ('A' for Active; 'I' for Inactive)
REMARK    1  A    between atoms: C_4  and  C_5 
REMARK    2  A    between atoms: C_5  and  N_6 
REMARK    3  A    between atoms: N_6  and  C_9 
REMARK    4  A    between atoms: C_12  and  O_13 
REMARK    5  A    between atoms: O_13  and  C_14 
ROOT
HETATM    1  C   UNL     1       7.868  24.896  54.793  1.00  0.00     0.164 A 
HETATM    2  N   UNL     1       8.293  23.927  55.629  1.00  0.00    -0.236 NA
HETATM    3  C   UNL     1       8.437  22.687  55.099  1.00  0.00     0.142 A 
HETATM    4  C   UNL     1       8.166  22.375  53.774  1.00  0.00     0.062 A 
HETATM    5  C   UNL     1       8.346  21.042  53.291  1.00  0.00     0.101 C 
HETATM    6  N   UNL     1       8.494  19.959  52.906  1.00  0.00    -0.191 NA
HETATM    7  C   UNL     1       7.716  23.398  52.940  1.00  0.00     0.028 A 
HETATM    8  C   UNL     1       7.558  24.682  53.459  1.00  0.00     0.059 A 
ENDROOT
BRANCH   1   9
HETATM    9  O   UNL     1       7.686  26.179  55.272  1.00  0.00    -0.329 OA
BRANCH   9  10
HETATM   10  C   UNL     1       6.813  26.269  56.406  1.00  0.00     0.130 C 
HETATM   11  C   UNL     1       7.539  27.126  57.454  1.00  0.00     0.034 C 
HETATM   12  C   UNL     1       7.728  28.574  56.992  1.00  0.00     0.035 C 
HETATM   13  C   UNL     1       6.419  29.243  56.559  1.00  0.00     0.186 C 
HETATM   14  C   UNL     1       5.674  28.378  55.536  1.00  0.00     0.035 C 
HETATM   15  C   UNL     1       5.486  26.929  56.001  1.00  0.00     0.034 C 
BRANCH  13  16
HETATM   16  N   UNL     1       5.514  29.464  57.739  1.00  0.00    -0.067 N 
HETATM   17  H   UNL     1       5.896  29.031  58.589  1.00  0.00     0.278 HD
HETATM   18  H   UNL     1       4.621  28.977  57.576  1.00  0.00     0.278 HD
BRANCH  16  19
HETATM   19  C   UNL     1       5.172  30.885  58.069  1.00  0.00     0.280 C 
BRANCH  19  20
HETATM   20  C   UNL     1       4.117  31.401  57.160  1.00  0.00     0.027 A 
HETATM   21  S   UNL     1       4.172  33.013  56.564  1.00  0.00    -0.077 SA
HETATM   22  C   UNL     1       2.708  32.740  55.705  1.00  0.00     0.071 A 
HETATM   23  C   UNL     1       2.097  33.814  54.873  1.00  0.00     0.078 C 
HETATM   24  N   UNL     1       2.203  31.534  55.845  1.00  0.00    -0.258 NA
HETATM   25  C   UNL     1       3.007  30.763  56.652  1.00  0.00     0.133 A 
ENDBRANCH  19  20
ENDBRANCH  16  19
ENDBRANCH  13  16
ENDBRANCH   9  10
ENDBRANCH   1   9
TORSDOF 5
ENDMDL
MODEL 8
REMARK VINA RESULT:      -7.2      2.897      3.092
REMARK  5 active torsions:
REMARK  status: ('A' for Active; 'I' for Inactive)
REMARK    1  A    between atoms: C_4  and  C_5 
REMARK    2  A    between atoms: C_5  and  N_6 
REMARK    3  A    between atoms: N_6  and  C_9 
REMARK    4  A    between atoms: C_12  and  O_13 
REMARK    5  A    between atoms: O_13  and  C_14 
ROOT
HETATM    1  C   UNL     1       7.490  24.605  55.227  1.00  0.00     0.164 A 
HETATM    2  N   UNL     1       7.451  23.480  55.971  1.00  0.00    -0.236 NA
HETATM    3  C   UNL     1       7.724  22.317  55.328  1.00  0.00     0.142 A 
HETATM    4  C   UNL     1       8.024  22.231  53.975  1.00  0.00     0.062 A 
HETATM    5  C   UNL     1       8.303  20.967  53.372  1.00  0.00     0.101 C 
HETATM    6  N   UNL     1       8.527  19.937  52.889  1.00  0.00    -0.191 NA
HETATM    7  C   UNL     1       8.042  23.412  53.234  1.00  0.00     0.028 A 
HETATM    8  C   UNL     1       7.765  24.622  53.869  1.00  0.00     0.059 A 
ENDROOT
BRANCH   1   9
HETATM    9  O   UNL     1       7.208  25.822  55.817  1.00  0.00    -0.329 OA
BRANCH   9  10
HETATM   10  C   UNL     1       6.005  26.443  55.344  1.00  0.00     0.130 C 
HETATM   11  C   UNL     1       5.271  26.982  56.581  1.00  0.00     0.034 C 
HETATM   12  C   UNL     1       6.045  28.108  57.273  1.00  0.00     0.035 C 
HETATM   13  C   UNL     1       6.419  29.252  56.325  1.00  0.00     0.186 C 
HETATM   14  C   UNL     1       7.123  28.719  55.073  1.00  0.00     0.035 C 
HETATM   15  C   UNL     1       6.346  27.592  54.382  1.00  0.00     0.034 C 
BRANCH  13  16
HETATM   16  N   UNL     1       5.194  30.009  55.891  1.00  0.00    -0.067 N 
HETATM   17  H   UNL     1       4.337  29.574  56.256  1.00  0.00     0.278 HD
HETATM   18  H   UNL     1       5.104  29.947  54.867  1.00  0.00     0.278 HD
BRANCH  16  19
HETATM   19  C   UNL     1       5.146  31.467  56.236  1.00  0.00     0.280 C 
BRANCH  19  20
HETATM   20  C   UNL     1       4.430  31.685  57.519  1.00  0.00     0.027 A 
HETATM   21  S   UNL     1       4.528  33.190  58.344  1.00  0.00    -0.077 SA
HETATM   22  C   UNL     1       3.510  32.571  59.583  1.00  0.00     0.071 A 
HETATM   23  C   UNL     1       3.124  33.415  60.749  1.00  0.00     0.078 C 
HETATM   24  N   UNL     1       3.117  31.329  59.406  1.00  0.00    -0.258 NA
HETATM   25  C   UNL     1       3.618  30.826  58.227  1.00  0.00     0.133 A 
ENDBRANCH  19  20
ENDBRANCH  16  19
ENDBRANCH  13  16
ENDBRANCH   9  10
ENDBRANCH   1   9
TORSDOF 5
ENDMDL
MODEL 9
REMARK VINA RESULT:      -7.2      3.869      9.676
REMARK  5 active torsions:
REMARK  status: ('A' for Active; 'I' for Inactive)
REMARK    1  A    between atoms: C_4  and  C_5 
REMARK    2  A    between atoms: C_5  and  N_6 
REMARK    3  A    between atoms: N_6  and  C_9 
REMARK    4  A    between atoms: C_12  and  O_13 
REMARK    5  A    between atoms: O_13  and  C_14 
ROOT
HETATM    1  C   UNL     1       7.921  30.765  59.240  1.00  0.00     0.164 A 
HETATM    2  N   UNL     1       8.753  30.266  60.178  1.00  0.00    -0.236 NA
HETATM    3  C   UNL     1       8.707  30.849  61.402  1.00  0.00     0.142 A 
HETATM    4  C   UNL     1       7.875  31.912  61.724  1.00  0.00     0.062 A 
HETATM    5  C   UNL     1       7.884  32.469  63.039  1.00  0.00     0.101 C 
HETATM    6  N   UNL     1       7.898  32.916  64.109  1.00  0.00    -0.191 NA
HETATM    7  C   UNL     1       7.038  32.412  60.727  1.00  0.00     0.028 A 
HETATM    8  C   UNL     1       7.065  31.833  59.459  1.00  0.00     0.059 A 
ENDROOT
BRANCH   1   9
HETATM    9  O   UNL     1       7.927  30.228  57.967  1.00  0.00    -0.329 OA
BRANCH   9  10
HETATM   10  C   UNL     1       7.551  28.846  57.906  1.00  0.00     0.130 C 
HETATM   11  C   UNL     1       6.110  28.805  57.375  1.00  0.00     0.034 C 
HETATM   12  C   UNL     1       6.008  29.300  55.930  1.00  0.00     0.035 C 
HETATM   13  C   UNL     1       6.958  28.570  54.974  1.00  0.00     0.186 C 
HETATM   14  C   UNL     1       8.392  28.580  55.514  1.00  0.00     0.035 C 
HETATM   15  C   UNL     1       8.491  28.083  56.961  1.00  0.00     0.034 C 
BRANCH  13  16
HETATM   16  N   UNL     1       6.534  27.139  54.788  1.00  0.00    -0.067 N 
HETATM   17  H   UNL     1       6.609  26.610  55.666  1.00  0.00     0.278 HD
HETATM   18  H   UNL     1       7.190  26.674  54.144  1.00  0.00     0.278 HD
BRANCH  16  19
HETATM   19  C   UNL     1       5.159  26.911  54.236  1.00  0.00     0.280 C 
BRANCH  19  20
HETATM   20  C   UNL     1       5.186  26.846  52.753  1.00  0.00     0.027 A 
HETATM   21  S   UNL     1       5.042  28.269  51.801  1.00  0.00    -0.077 SA
HETATM   22  C   UNL     1       5.155  27.319  50.373  1.00  0.00     0.071 A 
HETATM   23  C   UNL     1       5.103  27.954  49.026  1.00  0.00     0.078 C 
HETATM   24  N   UNL     1       5.291  26.028  50.578  1.00  0.00    -0.258 NA
HETATM   25  C   UNL     1       5.330  25.753  51.926  1.00  0.00     0.133 A 
ENDBRANCH  19  20
ENDBRANCH  16  19
ENDBRANCH  13  16
ENDBRANCH   9  10
ENDBRANCH   1   9
TORSDOF 5
ENDMDL
MODEL 10
REMARK VINA RESULT:      -7.1      4.672      5.313
REMARK  5 active torsions:
REMARK  status: ('A' for Active; 'I' for Inactive)
REMARK    1  A    between atoms: C_4  and  C_5 
REMARK    2  A    between atoms: C_5  and  N_6 
REMARK    3  A    between atoms: N_6  and  C_9 
REMARK    4  A    between atoms: C_12  and  O_13 
REMARK    5  A    between atoms: O_13  and  C_14 
ROOT
HETATM    1  C   UNL     1       8.048  24.390  53.811  1.00  0.00     0.164 A 
HETATM    2  N   UNL     1       8.446  24.064  55.058  1.00  0.00    -0.236 NA
HETATM    3  C   UNL     1       8.669  22.748  55.299  1.00  0.00     0.142 A 
HETATM    4  C   UNL     1       8.502  21.747  54.353  1.00  0.00     0.062 A 
HETATM    5  C   UNL     1       8.761  20.382  54.685  1.00  0.00     0.101 C 
HETATM    6  N   UNL     1       8.973  19.276  54.963  1.00  0.00    -0.191 NA
HETATM    7  C   UNL     1       8.077  22.118  53.077  1.00  0.00     0.028 A 
HETATM    8  C   UNL     1       7.839  23.464  52.801  1.00  0.00     0.059 A 
ENDROOT
BRANCH   1   9
HETATM    9  O   UNL     1       7.788  25.711  53.501  1.00  0.00    -0.329 OA
BRANCH   9  10
HETATM   10  C   UNL     1       6.851  26.351  54.377  1.00  0.00     0.130 C 
HETATM   11  C   UNL     1       6.655  27.779  53.846  1.00  0.00     0.034 C 
HETATM   12  C   UNL     1       5.981  27.801  52.471  1.00  0.00     0.035 C 
HETATM   13  C   UNL     1       4.660  27.025  52.434  1.00  0.00     0.186 C 
HETATM   14  C   UNL     1       4.841  25.609  52.993  1.00  0.00     0.035 C 
HETATM   15  C   UNL     1       5.516  25.590  54.369  1.00  0.00     0.034 C 
BRANCH  13  16
HETATM   16  N   UNL     1       3.607  27.723  53.250  1.00  0.00    -0.067 N 
HETATM   17  H   UNL     1       3.896  27.816  54.232  1.00  0.00     0.278 HD
HETATM   18  H   UNL     1       2.761  27.136  53.281  1.00  0.00     0.278 HD
BRANCH  16  19
HETATM   19  C   UNL     1       3.173  29.076  52.773  1.00  0.00     0.280 C 
BRANCH  19  20
HETATM   20  C   UNL     1       3.631  30.138  53.704  1.00  0.00     0.027 A 
HETATM   21  S   UNL     1       3.878  31.749  53.157  1.00  0.00    -0.077 SA
HETATM   22  C   UNL     1       4.358  32.209  54.742  1.00  0.00     0.071 A 
HETATM   23  C   UNL     1       4.752  33.613  55.045  1.00  0.00     0.078 C 
HETATM   24  N   UNL     1       4.340  31.237  55.628  1.00  0.00    -0.258 NA
HETATM   25  C   UNL     1       3.910  30.064  55.051  1.00  0.00     0.133 A 
ENDBRANCH  19  20
ENDBRANCH  16  19
ENDBRANCH  13  16
ENDBRANCH   9  10
ENDBRANCH   1   9
TORSDOF 5
ENDMDL
