MODEL 1
REMARK VINA RESULT:      -8.8      0.000      0.000
REMARK  3 active torsions:
REMARK  status: ('A' for Active; 'I' for Inactive)
REMARK       I    between atoms: C_2  and  N_3 
REMARK    1  A    between atoms: C_2  and  C_16 
REMARK    2  A    between atoms: N_3  and  C_4 
REMARK    3  A    between atoms: C_7  and  C_10 
ROOT
HETATM    1  O   UNL     1       8.317  25.805  57.836  1.00  0.00    -0.270 OA
HETATM    2  C   UNL     1       7.232  26.059  57.334  1.00  0.00     0.255 C 
HETATM    3  N   UNL     1       6.905  27.419  57.092  1.00  0.00    -0.305 N 
HETATM    4  H   UNL     1       6.047  27.694  56.632  1.00  0.00     0.171 HD
ENDROOT
BRANCH   3   5
HETATM    5  C   UNL     1       7.642  28.413  57.549  1.00  0.00     0.151 A 
HETATM    6  N   UNL     1       7.504  29.013  58.732  1.00  0.00    -0.335 N 
HETATM    7  H   UNL     1       6.783  28.677  59.374  1.00  0.00     0.168 HD
HETATM    8  C   UNL     1       8.355  30.085  58.930  1.00  0.00     0.051 A 
HETATM    9  C   UNL     1       9.217  30.255  57.865  1.00  0.00     0.083 A 
HETATM   10  S   UNL     1       8.912  29.110  56.612  1.00  0.00    -0.063 SA
BRANCH   8  11
HETATM   11  C   UNL     1       8.316  30.926  60.121  1.00  0.00    -0.006 A 
HETATM   12  C   UNL     1       9.047  30.573  61.260  1.00  0.00     0.033 A 
HETATM   13  C   UNL     1       8.956  31.376  62.386  1.00  0.00     0.117 A 
HETATM   14  N   UNL     1       8.202  32.489  62.447  1.00  0.00    -0.273 NA
HETATM   15  C   UNL     1       7.506  32.823  61.343  1.00  0.00     0.117 A 
HETATM   16  C   UNL     1       7.528  32.084  60.172  1.00  0.00     0.033 A 
ENDBRANCH   8  11
ENDBRANCH   3   5
BRANCH   2  17
HETATM   17  C   UNL     1       6.177  25.053  56.888  1.00  0.00     0.245 C 
HETATM   18  C   UNL     1       5.125  25.721  56.018  1.00  0.00     0.218 C 
HETATM   19  O   UNL     1       5.720  26.262  54.834  1.00  0.00    -0.345 OA
HETATM   20  C   UNL     1       6.559  25.363  54.232  1.00  0.00     0.102 A 
HETATM   21  C   UNL     1       6.926  25.633  52.917  1.00  0.00     0.039 A 
HETATM   22  C   UNL     1       7.066  24.237  54.888  1.00  0.00     0.103 A 
HETATM   23  C   UNL     1       7.782  24.759  52.245  1.00  0.00     0.003 A 
HETATM   24  C   UNL     1       8.264  23.619  52.889  1.00  0.00     0.003 A 
HETATM   25  C   UNL     1       7.906  23.354  54.212  1.00  0.00     0.040 A 
HETATM   26  O   UNL     1       6.808  23.957  56.208  1.00  0.00    -0.331 OA
ENDBRANCH   2  17
TORSDOF 3
ENDMDL
MODEL 2
REMARK VINA RESULT:      -8.5      0.909      1.395
REMARK  3 active torsions:
REMARK  status: ('A' for Active; 'I' for Inactive)
REMARK       I    between atoms: C_2  and  N_3 
REMARK    1  A    between atoms: C_2  and  C_16 
REMARK    2  A    between atoms: N_3  and  C_4 
REMARK    3  A    between atoms: C_7  and  C_10 
ROOT
HETATM    1  O   UNL     1       6.973  26.425  57.648  1.00  0.00    -0.270 OA
HETATM    2  C   UNL     1       6.353  27.010  56.772  1.00  0.00     0.255 C 
HETATM    3  N   UNL     1       6.716  28.349  56.470  1.00  0.00    -0.305 N 
HETATM    4  H   UNL     1       6.279  28.870  55.722  1.00  0.00     0.171 HD
ENDROOT
BRANCH   3   5
HETATM    5  C   UNL     1       7.564  29.033  57.213  1.00  0.00     0.151 A 
HETATM    6  N   UNL     1       7.313  29.549  58.417  1.00  0.00    -0.335 N 
HETATM    7  H   UNL     1       6.395  29.395  58.837  1.00  0.00     0.168 HD
HETATM    8  C   UNL     1       8.352  30.294  58.945  1.00  0.00     0.051 A 
HETATM    9  C   UNL     1       9.459  30.282  58.121  1.00  0.00     0.083 A 
HETATM   10  S   UNL     1       9.165  29.388  56.676  1.00  0.00    -0.063 SA
BRANCH   8  11
HETATM   11  C   UNL     1       8.257  31.009  60.214  1.00  0.00    -0.006 A 
HETATM   12  C   UNL     1       7.496  32.179  60.310  1.00  0.00     0.033 A 
HETATM   13  C   UNL     1       7.458  32.851  61.522  1.00  0.00     0.117 A 
HETATM   14  N   UNL     1       8.114  32.438  62.622  1.00  0.00    -0.273 NA
HETATM   15  C   UNL     1       8.839  31.308  62.520  1.00  0.00     0.117 A 
HETATM   16  C   UNL     1       8.942  30.568  61.353  1.00  0.00     0.033 A 
ENDBRANCH   8  11
ENDBRANCH   3   5
BRANCH   2  17
HETATM   17  C   UNL     1       5.230  26.438  55.914  1.00  0.00     0.245 C 
HETATM   18  C   UNL     1       5.048  27.253  54.645  1.00  0.00     0.218 C 
HETATM   19  O   UNL     1       6.240  27.225  53.854  1.00  0.00    -0.345 OA
HETATM   20  C   UNL     1       6.732  25.954  53.722  1.00  0.00     0.102 A 
HETATM   21  C   UNL     1       7.671  25.747  52.716  1.00  0.00     0.039 A 
HETATM   22  C   UNL     1       6.356  24.901  54.562  1.00  0.00     0.103 A 
HETATM   23  C   UNL     1       8.215  24.476  52.529  1.00  0.00     0.003 A 
HETATM   24  C   UNL     1       7.817  23.417  53.347  1.00  0.00     0.003 A 
HETATM   25  C   UNL     1       6.885  23.628  54.365  1.00  0.00     0.040 A 
HETATM   26  O   UNL     1       5.497  25.057  55.623  1.00  0.00    -0.331 OA
ENDBRANCH   2  17
TORSDOF 3
ENDMDL
MODEL 3
REMARK VINA RESULT:      -8.2      5.514      8.343
REMARK  3 active torsions:
REMARK  status: ('A' for Active; 'I' for Inactive)
REMARK       I    between atoms: C_2  and  N_3 
REMARK    1  A    between atoms: C_2  and  C_16 
REMARK    2  A    between atoms: N_3  and  C_4 
REMARK    3  A    between atoms: C_7  and  C_10 
ROOT
HETATM    1  O   UNL     1       3.891  27.728  52.651  1.00  0.00    -0.270 OA
HETATM    2  C   UNL     1       4.684  28.368  51.976  1.00  0.00     0.255 C 
HETATM    3  N   UNL     1       6.066  28.063  52.094  1.00  0.00    -0.305 N 
HETATM    4  H   UNL     1       6.769  28.518  51.527  1.00  0.00     0.171 HD
ENDROOT
BRANCH   3   5
HETATM    5  C   UNL     1       6.531  27.252  53.024  1.00  0.00     0.151 A 
HETATM    6  N   UNL     1       6.763  25.946  52.883  1.00  0.00    -0.335 N 
HETATM    7  H   UNL     1       6.597  25.512  51.973  1.00  0.00     0.168 HD
HETATM    8  C   UNL     1       7.171  25.311  54.042  1.00  0.00     0.051 A 
HETATM    9  C   UNL     1       7.311  26.201  55.088  1.00  0.00     0.083 A 
HETATM   10  S   UNL     1       6.878  27.803  54.622  1.00  0.00    -0.063 SA
BRANCH   8  11
HETATM   11  C   UNL     1       7.403  23.873  54.125  1.00  0.00    -0.006 A 
HETATM   12  C   UNL     1       7.371  23.223  55.364  1.00  0.00     0.033 A 
HETATM   13  C   UNL     1       7.633  21.862  55.408  1.00  0.00     0.117 A 
HETATM   14  N   UNL     1       7.914  21.123  54.319  1.00  0.00    -0.273 NA
HETATM   15  C   UNL     1       7.936  21.758  53.132  1.00  0.00     0.117 A 
HETATM   16  C   UNL     1       7.692  23.113  52.984  1.00  0.00     0.033 A 
ENDBRANCH   8  11
ENDBRANCH   3   5
BRANCH   2  17
HETATM   17  C   UNL     1       4.349  29.458  50.965  1.00  0.00     0.245 C 
HETATM   18  C   UNL     1       5.451  29.592  49.926  1.00  0.00     0.218 C 
HETATM   19  O   UNL     1       5.605  28.371  49.196  1.00  0.00    -0.345 OA
HETATM   20  C   UNL     1       4.399  27.876  48.777  1.00  0.00     0.102 A 
HETATM   21  C   UNL     1       4.434  26.900  47.785  1.00  0.00     0.039 A 
HETATM   22  C   UNL     1       3.177  28.284  49.321  1.00  0.00     0.103 A 
HETATM   23  C   UNL     1       3.242  26.350  47.314  1.00  0.00     0.003 A 
HETATM   24  C   UNL     1       2.020  26.779  47.834  1.00  0.00     0.003 A 
HETATM   25  C   UNL     1       1.985  27.749  48.839  1.00  0.00     0.040 A 
HETATM   26  O   UNL     1       3.078  29.181  50.356  1.00  0.00    -0.331 OA
ENDBRANCH   2  17
TORSDOF 3
ENDMDL
MODEL 4
REMARK VINA RESULT:      -8.1      3.736      8.351
REMARK  3 active torsions:
REMARK  status: ('A' for Active; 'I' for Inactive)
REMARK       I    between atoms: C_2  and  N_3 
REMARK    1  A    between atoms: C_2  and  C_16 
REMARK    2  A    between atoms: N_3  and  C_4 
REMARK    3  A    between atoms: C_7  and  C_10 
ROOT
HETATM    1  O   UNL     1       5.012  26.378  56.750  1.00  0.00    -0.270 OA
HETATM    2  C   UNL     1       5.927  27.163  56.553  1.00  0.00     0.255 C 
HETATM    3  N   UNL     1       6.763  26.954  55.424  1.00  0.00    -0.305 N 
HETATM    4  H   UNL     1       7.504  27.595  55.175  1.00  0.00     0.171 HD
ENDROOT
BRANCH   3   5
HETATM    5  C   UNL     1       6.698  25.855  54.696  1.00  0.00     0.151 A 
HETATM    6  N   UNL     1       7.233  24.674  55.008  1.00  0.00    -0.335 N 
HETATM    7  H   UNL     1       7.723  24.575  55.899  1.00  0.00     0.168 HD
HETATM    8  C   UNL     1       7.091  23.708  54.029  1.00  0.00     0.051 A 
HETATM    9  C   UNL     1       6.357  24.173  52.956  1.00  0.00     0.083 A 
HETATM   10  S   UNL     1       5.906  25.824  53.163  1.00  0.00    -0.063 SA
BRANCH   8  11
HETATM   11  C   UNL     1       7.669  22.373  54.136  1.00  0.00    -0.006 A 
HETATM   12  C   UNL     1       8.017  21.659  52.983  1.00  0.00     0.033 A 
HETATM   13  C   UNL     1       8.530  20.379  53.122  1.00  0.00     0.117 A 
HETATM   14  N   UNL     1       8.717  19.777  54.312  1.00  0.00    -0.273 NA
HETATM   15  C   UNL     1       8.383  20.475  55.415  1.00  0.00     0.117 A 
HETATM   16  C   UNL     1       7.861  21.758  55.380  1.00  0.00     0.033 A 
ENDBRANCH   8  11
ENDBRANCH   3   5
BRANCH   2  17
HETATM   17  C   UNL     1       6.260  28.401  57.379  1.00  0.00     0.245 C 
HETATM   18  C   UNL     1       7.160  29.347  56.601  1.00  0.00     0.218 C 
HETATM   19  O   UNL     1       6.507  29.797  55.410  1.00  0.00    -0.345 OA
HETATM   20  C   UNL     1       5.225  30.208  55.659  1.00  0.00     0.102 A 
HETATM   21  C   UNL     1       4.610  30.973  54.673  1.00  0.00     0.039 A 
HETATM   22  C   UNL     1       4.528  29.865  56.822  1.00  0.00     0.103 A 
HETATM   23  C   UNL     1       3.302  31.423  54.861  1.00  0.00     0.003 A 
HETATM   24  C   UNL     1       2.616  31.107  56.035  1.00  0.00     0.003 A 
HETATM   25  C   UNL     1       3.229  30.328  57.019  1.00  0.00     0.040 A 
HETATM   26  O   UNL     1       5.047  29.047  57.795  1.00  0.00    -0.331 OA
ENDBRANCH   2  17
TORSDOF 3
ENDMDL
MODEL 5
REMARK VINA RESULT:      -8.0      2.763      4.425
REMARK  3 active torsions:
REMARK  status: ('A' for Active; 'I' for Inactive)
REMARK       I    between atoms: C_2  and  N_3 
REMARK    1  A    between atoms: C_2  and  C_16 
REMARK    2  A    between atoms: N_3  and  C_4 
REMARK    3  A    between atoms: C_7  and  C_10 
ROOT
HETATM    1  O   UNL     1       6.249  30.506  58.353  1.00  0.00    -0.270 OA
HETATM    2  C   UNL     1       7.386  30.187  58.037  1.00  0.00     0.255 C 
HETATM    3  N   UNL     1       8.388  30.180  59.044  1.00  0.00    -0.305 N 
HETATM    4  H   UNL     1       9.334  29.876  58.860  1.00  0.00     0.171 HD
ENDROOT
BRANCH   3   5
HETATM    5  C   UNL     1       8.177  30.674  60.248  1.00  0.00     0.151 A 
HETATM    6  N   UNL     1       7.035  31.198  60.694  1.00  0.00    -0.335 N 
HETATM    7  H   UNL     1       6.223  31.210  60.073  1.00  0.00     0.168 HD
HETATM    8  C   UNL     1       7.108  31.722  61.972  1.00  0.00     0.051 A 
HETATM    9  C   UNL     1       8.352  31.521  62.534  1.00  0.00     0.083 A 
HETATM   10  S   UNL     1       9.425  30.734  61.438  1.00  0.00    -0.063 SA
BRANCH   8  11
HETATM   11  C   UNL     1       5.995  32.410  62.617  1.00  0.00    -0.006 A 
HETATM   12  C   UNL     1       6.100  32.831  63.947  1.00  0.00     0.033 A 
HETATM   13  C   UNL     1       5.010  33.449  64.539  1.00  0.00     0.117 A 
HETATM   14  N   UNL     1       3.846  33.673  63.901  1.00  0.00    -0.273 NA
HETATM   15  C   UNL     1       3.757  33.269  62.619  1.00  0.00     0.117 A 
HETATM   16  C   UNL     1       4.789  32.641  61.942  1.00  0.00     0.033 A 
ENDBRANCH   8  11
ENDBRANCH   3   5
BRANCH   2  17
HETATM   17  C   UNL     1       7.857  29.743  56.657  1.00  0.00     0.245 C 
HETATM   18  C   UNL     1       9.107  28.885  56.760  1.00  0.00     0.218 C 
HETATM   19  O   UNL     1       8.842  27.700  57.518  1.00  0.00    -0.345 OA
HETATM   20  C   UNL     1       7.688  27.086  57.112  1.00  0.00     0.102 A 
HETATM   21  C   UNL     1       7.500  25.770  57.524  1.00  0.00     0.039 A 
HETATM   22  C   UNL     1       6.709  27.732  56.350  1.00  0.00     0.103 A 
HETATM   23  C   UNL     1       6.343  25.086  57.149  1.00  0.00     0.003 A 
HETATM   24  C   UNL     1       5.380  25.720  56.362  1.00  0.00     0.003 A 
HETATM   25  C   UNL     1       5.562  27.045  55.960  1.00  0.00     0.040 A 
HETATM   26  O   UNL     1       6.795  29.052  55.980  1.00  0.00    -0.331 OA
ENDBRANCH   2  17
TORSDOF 3
ENDMDL
MODEL 6
REMARK VINA RESULT:      -8.0      6.667      9.285
REMARK  3 active torsions:
REMARK  status: ('A' for Active; 'I' for Inactive)
REMARK       I    between atoms: C_2  and  N_3 
REMARK    1  A    between atoms: C_2  and  C_16 
REMARK    2  A    between atoms: N_3  and  C_4 
REMARK    3  A    between atoms: C_7  and  C_10 
ROOT
HETATM    1  O   UNL     1       4.989  28.842  50.630  1.00  0.00    -0.270 OA
HETATM    2  C   UNL     1       5.341  28.147  49.688  1.00  0.00     0.255 C 
HETATM    3  N   UNL     1       5.664  26.787  49.940  1.00  0.00    -0.305 N 
HETATM    4  H   UNL     1       5.912  26.146  49.198  1.00  0.00     0.171 HD
ENDROOT
BRANCH   3   5
HETATM    5  C   UNL     1       5.771  26.304  51.163  1.00  0.00     0.151 A 
HETATM    6  N   UNL     1       6.744  25.510  51.611  1.00  0.00    -0.335 N 
HETATM    7  H   UNL     1       7.504  25.256  50.977  1.00  0.00     0.168 HD
HETATM    8  C   UNL     1       6.572  25.078  52.914  1.00  0.00     0.051 A 
HETATM    9  C   UNL     1       5.444  25.628  53.489  1.00  0.00     0.083 A 
HETATM   10  S   UNL     1       4.589  26.630  52.376  1.00  0.00    -0.063 SA
BRANCH   8  11
HETATM   11  C   UNL     1       7.479  24.143  53.570  1.00  0.00    -0.006 A 
HETATM   12  C   UNL     1       7.925  23.000  52.897  1.00  0.00     0.033 A 
HETATM   13  C   UNL     1       8.757  22.115  53.565  1.00  0.00     0.117 A 
HETATM   14  N   UNL     1       9.167  22.294  54.834  1.00  0.00    -0.273 NA
HETATM   15  C   UNL     1       8.736  23.400  55.471  1.00  0.00     0.117 A 
HETATM   16  C   UNL     1       7.901  24.340  54.891  1.00  0.00     0.033 A 
ENDBRANCH   8  11
ENDBRANCH   3   5
BRANCH   2  17
HETATM   17  C   UNL     1       5.437  28.572  48.227  1.00  0.00     0.245 C 
HETATM   18  C   UNL     1       5.543  27.360  47.316  1.00  0.00     0.218 C 
HETATM   19  O   UNL     1       4.381  26.534  47.440  1.00  0.00    -0.345 OA
HETATM   20  C   UNL     1       3.228  27.269  47.381  1.00  0.00     0.102 A 
HETATM   21  C   UNL     1       2.049  26.567  47.149  1.00  0.00     0.039 A 
HETATM   22  C   UNL     1       3.196  28.654  47.574  1.00  0.00     0.103 A 
HETATM   23  C   UNL     1       0.837  27.254  47.080  1.00  0.00     0.003 A 
HETATM   24  C   UNL     1       0.808  28.640  47.241  1.00  0.00     0.003 A 
HETATM   25  C   UNL     1       1.989  29.344  47.487  1.00  0.00     0.040 A 
HETATM   26  O   UNL     1       4.310  29.394  47.886  1.00  0.00    -0.331 OA
ENDBRANCH   2  17
TORSDOF 3
ENDMDL
MODEL 7
REMARK VINA RESULT:      -7.7      4.651     10.043
REMARK  3 active torsions:
REMARK  status: ('A' for Active; 'I' for Inactive)
REMARK       I    between atoms: C_2  and  N_3 
REMARK    1  A    between atoms: C_2  and  C_16 
REMARK    2  A    between atoms: N_3  and  C_4 
REMARK    3  A    between atoms: C_7  and  C_10 
ROOT
HETATM    1  O   UNL     1       5.286  32.480  61.276  1.00  0.00    -0.270 OA
HETATM    2  C   UNL     1       5.870  32.336  62.340  1.00  0.00     0.255 C 
HETATM    3  N   UNL     1       7.228  31.924  62.313  1.00  0.00    -0.305 N 
HETATM    4  H   UNL     1       7.782  31.836  63.154  1.00  0.00     0.171 HD
ENDROOT
BRANCH   3   5
HETATM    5  C   UNL     1       7.819  31.521  61.204  1.00  0.00     0.151 A 
HETATM    6  N   UNL     1       7.263  30.784  60.242  1.00  0.00    -0.335 N 
HETATM    7  H   UNL     1       6.282  30.512  60.334  1.00  0.00     0.168 HD
HETATM    8  C   UNL     1       8.129  30.429  59.224  1.00  0.00     0.051 A 
HETATM    9  C   UNL     1       9.381  30.982  59.404  1.00  0.00     0.083 A 
HETATM   10  S   UNL     1       9.471  31.888  60.868  1.00  0.00    -0.063 SA
BRANCH   8  11
HETATM   11  C   UNL     1       7.745  29.562  58.115  1.00  0.00    -0.006 A 
HETATM   12  C   UNL     1       8.703  28.770  57.473  1.00  0.00     0.033 A 
HETATM   13  C   UNL     1       8.309  27.986  56.400  1.00  0.00     0.117 A 
HETATM   14  N   UNL     1       7.046  27.940  55.937  1.00  0.00    -0.273 NA
HETATM   15  C   UNL     1       6.131  28.703  56.565  1.00  0.00     0.117 A 
HETATM   16  C   UNL     1       6.427  29.521  57.643  1.00  0.00     0.033 A 
ENDBRANCH   8  11
ENDBRANCH   3   5
BRANCH   2  17
HETATM   17  C   UNL     1       5.303  32.595  63.732  1.00  0.00     0.245 C 
HETATM   18  C   UNL     1       6.326  33.293  64.613  1.00  0.00     0.218 C 
HETATM   19  O   UNL     1       6.684  34.563  64.059  1.00  0.00    -0.345 OA
HETATM   20  C   UNL     1       5.580  35.281  63.683  1.00  0.00     0.102 A 
HETATM   21  C   UNL     1       5.767  36.641  63.453  1.00  0.00     0.039 A 
HETATM   22  C   UNL     1       4.322  34.702  63.497  1.00  0.00     0.103 A 
HETATM   23  C   UNL     1       4.685  37.432  63.064  1.00  0.00     0.003 A 
HETATM   24  C   UNL     1       3.421  36.860  62.908  1.00  0.00     0.003 A 
HETATM   25  C   UNL     1       3.237  35.493  63.126  1.00  0.00     0.040 A 
HETATM   26  O   UNL     1       4.088  33.355  63.628  1.00  0.00    -0.331 OA
ENDBRANCH   2  17
TORSDOF 3
ENDMDL
MODEL 8
REMARK VINA RESULT:      -7.7      5.569      8.109
REMARK  3 active torsions:
REMARK  status: ('A' for Active; 'I' for Inactive)
REMARK       I    between atoms: C_2  and  N_3 
REMARK    1  A    between atoms: C_2  and  C_16 
REMARK    2  A    between atoms: N_3  and  C_4 
REMARK    3  A    between atoms: C_7  and  C_10 
ROOT
HETATM    1  O   UNL     1       4.344  28.502  50.726  1.00  0.00    -0.270 OA
HETATM    2  C   UNL     1       5.090  27.977  49.912  1.00  0.00     0.255 C 
HETATM    3  N   UNL     1       5.768  26.788  50.289  1.00  0.00    -0.305 N 
HETATM    4  H   UNL     1       6.358  26.276  49.647  1.00  0.00     0.171 HD
ENDROOT
BRANCH   3   5
HETATM    5  C   UNL     1       5.763  26.339  51.529  1.00  0.00     0.151 A 
HETATM    6  N   UNL     1       6.446  26.852  52.553  1.00  0.00    -0.335 N 
HETATM    7  H   UNL     1       7.017  27.685  52.397  1.00  0.00     0.168 HD
HETATM    8  C   UNL     1       6.329  26.137  53.732  1.00  0.00     0.051 A 
HETATM    9  C   UNL     1       5.463  25.071  53.598  1.00  0.00     0.083 A 
HETATM   10  S   UNL     1       4.855  24.946  51.989  1.00  0.00    -0.063 SA
BRANCH   8  11
HETATM   11  C   UNL     1       7.055  26.482  54.949  1.00  0.00    -0.006 A 
HETATM   12  C   UNL     1       7.426  25.484  55.858  1.00  0.00     0.033 A 
HETATM   13  C   UNL     1       8.082  25.853  57.021  1.00  0.00     0.117 A 
HETATM   14  N   UNL     1       8.390  27.127  57.330  1.00  0.00    -0.273 NA
HETATM   15  C   UNL     1       8.033  28.079  56.446  1.00  0.00     0.117 A 
HETATM   16  C   UNL     1       7.372  27.811  55.259  1.00  0.00     0.033 A 
ENDBRANCH   8  11
ENDBRANCH   3   5
BRANCH   2  17
HETATM   17  C   UNL     1       5.351  28.442  48.483  1.00  0.00     0.245 C 
HETATM   18  C   UNL     1       5.563  27.255  47.557  1.00  0.00     0.218 C 
HETATM   19  O   UNL     1       4.396  26.427  47.526  1.00  0.00    -0.345 OA
HETATM   20  C   UNL     1       3.255  27.164  47.355  1.00  0.00     0.102 A 
HETATM   21  C   UNL     1       2.113  26.469  46.971  1.00  0.00     0.039 A 
HETATM   22  C   UNL     1       3.199  28.543  47.581  1.00  0.00     0.103 A 
HETATM   23  C   UNL     1       0.914  27.159  46.783  1.00  0.00     0.003 A 
HETATM   24  C   UNL     1       0.864  28.540  46.977  1.00  0.00     0.003 A 
HETATM   25  C   UNL     1       2.008  29.236  47.375  1.00  0.00     0.040 A 
HETATM   26  O   UNL     1       4.268  29.274  48.038  1.00  0.00    -0.331 OA
ENDBRANCH   2  17
TORSDOF 3
ENDMDL
MODEL 9
REMARK VINA RESULT:      -7.5      4.143      8.720
REMARK  3 active torsions:
REMARK  status: ('A' for Active; 'I' for Inactive)
REMARK       I    between atoms: C_2  and  N_3 
REMARK    1  A    between atoms: C_2  and  C_16 
REMARK    2  A    between atoms: N_3  and  C_4 
REMARK    3  A    between atoms: C_7  and  C_10 
ROOT
HETATM    1  O   UNL     1       6.164  26.593  54.131  1.00  0.00    -0.270 OA
HETATM    2  C   UNL     1       5.327  26.912  54.963  1.00  0.00     0.255 C 
HETATM    3  N   UNL     1       4.188  27.641  54.527  1.00  0.00    -0.305 N 
HETATM    4  H   UNL     1       3.435  27.890  55.153  1.00  0.00     0.171 HD
ENDROOT
BRANCH   3   5
HETATM    5  C   UNL     1       4.094  28.135  53.307  1.00  0.00     0.151 A 
HETATM    6  N   UNL     1       4.318  27.472  52.172  1.00  0.00    -0.335 N 
HETATM    7  H   UNL     1       4.563  26.481  52.220  1.00  0.00     0.168 HD
HETATM    8  C   UNL     1       4.232  28.250  51.032  1.00  0.00     0.051 A 
HETATM    9  C   UNL     1       3.862  29.547  51.326  1.00  0.00     0.083 A 
HETATM   10  S   UNL     1       3.684  29.787  53.024  1.00  0.00    -0.063 SA
BRANCH   8  11
HETATM   11  C   UNL     1       4.516  27.740  49.695  1.00  0.00    -0.006 A 
HETATM   12  C   UNL     1       5.232  28.519  48.779  1.00  0.00     0.033 A 
HETATM   13  C   UNL     1       5.451  28.017  47.506  1.00  0.00     0.117 A 
HETATM   14  N   UNL     1       5.015  26.811  47.096  1.00  0.00    -0.273 NA
HETATM   15  C   UNL     1       4.332  26.067  47.988  1.00  0.00     0.117 A 
HETATM   16  C   UNL     1       4.059  26.482  49.280  1.00  0.00     0.033 A 
ENDBRANCH   8  11
ENDBRANCH   3   5
BRANCH   2  17
HETATM   17  C   UNL     1       5.344  26.573  56.449  1.00  0.00     0.245 C 
HETATM   18  C   UNL     1       6.534  25.693  56.791  1.00  0.00     0.218 C 
HETATM   19  O   UNL     1       7.761  26.369  56.498  1.00  0.00    -0.345 OA
HETATM   20  C   UNL     1       7.763  27.649  56.984  1.00  0.00     0.102 A 
HETATM   21  C   UNL     1       8.997  28.286  57.065  1.00  0.00     0.039 A 
HETATM   22  C   UNL     1       6.596  28.324  57.355  1.00  0.00     0.103 A 
HETATM   23  C   UNL     1       9.071  29.593  57.549  1.00  0.00     0.003 A 
HETATM   24  C   UNL     1       7.910  30.257  57.950  1.00  0.00     0.003 A 
HETATM   25  C   UNL     1       6.670  29.622  57.855  1.00  0.00     0.040 A 
HETATM   26  O   UNL     1       5.340  27.783  57.223  1.00  0.00    -0.331 OA
ENDBRANCH   2  17
TORSDOF 3
ENDMDL
MODEL 10
REMARK VINA RESULT:      -7.3      5.262      9.128
REMARK  3 active torsions:
REMARK  status: ('A' for Active; 'I' for Inactive)
REMARK       I    between atoms: C_2  and  N_3 
REMARK    1  A    between atoms: C_2  and  C_16 
REMARK    2  A    between atoms: N_3  and  C_4 
REMARK    3  A    between atoms: C_7  and  C_10 
ROOT
HETATM    1  O   UNL     1       4.212  28.732  54.147  1.00  0.00    -0.270 OA
HETATM    2  C   UNL     1       5.380  28.700  53.790  1.00  0.00     0.255 C 
HETATM    3  N   UNL     1       5.685  29.066  52.452  1.00  0.00    -0.305 N 
HETATM    4  H   UNL     1       6.635  29.111  52.109  1.00  0.00     0.171 HD
ENDROOT
BRANCH   3   5
HETATM    5  C   UNL     1       4.747  29.262  51.545  1.00  0.00     0.151 A 
HETATM    6  N   UNL     1       4.224  28.333  50.745  1.00  0.00    -0.335 N 
HETATM    7  H   UNL     1       4.543  27.366  50.836  1.00  0.00     0.168 HD
HETATM    8  C   UNL     1       3.314  28.821  49.824  1.00  0.00     0.051 A 
HETATM    9  C   UNL     1       3.099  30.174  49.988  1.00  0.00     0.083 A 
HETATM   10  S   UNL     1       4.078  30.824  51.250  1.00  0.00    -0.063 SA
BRANCH   8  11
HETATM   11  C   UNL     1       2.684  27.988  48.806  1.00  0.00    -0.006 A 
HETATM   12  C   UNL     1       3.336  26.848  48.323  1.00  0.00     0.033 A 
HETATM   13  C   UNL     1       2.723  26.101  47.329  1.00  0.00     0.117 A 
HETATM   14  N   UNL     1       1.525  26.408  46.799  1.00  0.00    -0.273 NA
HETATM   15  C   UNL     1       0.904  27.504  47.275  1.00  0.00     0.117 A 
HETATM   16  C   UNL     1       1.435  28.317  48.263  1.00  0.00     0.033 A 
ENDBRANCH   8  11
ENDBRANCH   3   5
BRANCH   2  17
HETATM   17  C   UNL     1       6.586  28.340  54.650  1.00  0.00     0.245 C 
HETATM   18  C   UNL     1       6.176  27.458  55.818  1.00  0.00     0.218 C 
HETATM   19  O   UNL     1       5.612  26.230  55.347  1.00  0.00    -0.345 OA
HETATM   20  C   UNL     1       6.381  25.662  54.367  1.00  0.00     0.102 A 
HETATM   21  C   UNL     1       6.132  24.325  54.072  1.00  0.00     0.039 A 
HETATM   22  C   UNL     1       7.353  26.372  53.654  1.00  0.00     0.103 A 
HETATM   23  C   UNL     1       6.877  23.685  53.081  1.00  0.00     0.003 A 
HETATM   24  C   UNL     1       7.869  24.383  52.391  1.00  0.00     0.003 A 
HETATM   25  C   UNL     1       8.110  25.729  52.677  1.00  0.00     0.040 A 
HETATM   26  O   UNL     1       7.591  27.711  53.839  1.00  0.00    -0.331 OA
ENDBRANCH   2  17
TORSDOF 3
ENDMDL
