MODEL 1
REMARK VINA RESULT:      -9.4      0.000      0.000
REMARK  6 active torsions:
REMARK  status: ('A' for Active; 'I' for Inactive)
REMARK    1  A    between atoms: C_2  and  C_3 
REMARK    2  A    between atoms: C_2  and  C_9 
REMARK    3  A    between atoms: C_9  and  N_10 
REMARK       I    between atoms: N_10  and  C_11 
REMARK       I    between atoms: C_11  and  N_12 
REMARK    4  A    between atoms: N_12  and  C_13 
REMARK    5  A    between atoms: C_16  and  N_17 
REMARK       I    between atoms: N_17  and  C_18 
REMARK    6  A    between atoms: C_18  and  C_19 
ROOT
HETATM    1  N   UNL     1       7.322  30.895  59.362  1.00  0.00    -0.342 N 
HETATM    2  C   UNL     1       7.876  29.957  58.515  1.00  0.00     0.320 C 
HETATM    3  N   UNL     1       6.944  29.013  58.146  1.00  0.00    -0.309 N 
HETATM    4  O   UNL     1       9.042  30.014  58.151  1.00  0.00    -0.247 OA
HETATM    5  H   UNL     1       6.511  30.614  59.895  1.00  0.00     0.164 HD
HETATM    6  H   UNL     1       5.982  29.280  58.282  1.00  0.00     0.170 HD
ENDROOT
BRANCH   3   7
HETATM    7  C   UNL     1       7.181  27.848  57.388  1.00  0.00     0.036 A 
HETATM    8  C   UNL     1       7.057  27.794  56.000  1.00  0.00     0.032 A 
HETATM    9  C   UNL     1       7.310  26.606  55.301  1.00  0.00     0.032 A 
HETATM   10  C   UNL     1       7.689  25.449  55.979  1.00  0.00     0.035 A 
HETATM   11  C   UNL     1       7.827  25.505  57.370  1.00  0.00     0.032 A 
HETATM   12  C   UNL     1       7.585  26.695  58.068  1.00  0.00     0.032 A 
BRANCH  10  13
HETATM   13  N   UNL     1       7.932  24.214  55.353  1.00  0.00    -0.321 N 
HETATM   14  C   UNL     1       7.196  23.599  54.354  1.00  0.00     0.279 C 
HETATM   15  O   UNL     1       6.212  24.073  53.798  1.00  0.00    -0.265 OA
HETATM   16  H   UNL     1       8.740  23.686  55.665  1.00  0.00     0.169 HD
BRANCH  14  17
HETATM   17  C   UNL     1       7.717  22.289  54.001  1.00  0.00     0.142 A 
HETATM   18  O   UNL     1       8.048  21.401  54.993  1.00  0.00    -0.317 OA
HETATM   19  C   UNL     1       8.487  20.269  54.384  1.00  0.00     0.143 A 
HETATM   20  C   UNL     1       8.452  20.409  53.017  1.00  0.00     0.027 A 
HETATM   21  C   UNL     1       7.957  21.711  52.769  1.00  0.00     0.045 A 
ENDBRANCH  14  17
ENDBRANCH  10  13
ENDBRANCH   3   7
BRANCH   1  22
HETATM   22  C   UNL     1       8.116  31.990  59.900  1.00  0.00     0.138 C 
BRANCH  22  23
HETATM   23  C   UNL     1       8.575  31.788  61.378  1.00  0.00    -0.004 C 
HETATM   24  C   UNL     1      10.071  32.180  61.473  1.00  0.00     0.021 C 
HETATM   25  C   UNL     1       8.500  30.287  61.745  1.00  0.00     0.021 C 
BRANCH  23  26
HETATM   26  C   UNL     1       7.758  32.694  62.320  1.00  0.00    -0.046 A 
HETATM   27  C   UNL     1       8.034  32.725  63.698  1.00  0.00     0.027 A 
HETATM   28  C   UNL     1       7.292  33.552  64.529  1.00  0.00     0.116 A 
HETATM   29  N   UNL     1       6.301  34.355  64.097  1.00  0.00    -0.273 NA
HETATM   30  C   UNL     1       6.036  34.317  62.777  1.00  0.00     0.116 A 
HETATM   31  C   UNL     1       6.723  33.522  61.868  1.00  0.00     0.027 A 
ENDBRANCH  23  26
ENDBRANCH  22  23
ENDBRANCH   1  22
TORSDOF 6
ENDMDL
MODEL 2
REMARK VINA RESULT:      -9.1      2.318     11.550
REMARK  6 active torsions:
REMARK  status: ('A' for Active; 'I' for Inactive)
REMARK    1  A    between atoms: C_2  and  C_3 
REMARK    2  A    between atoms: C_2  and  C_9 
REMARK    3  A    between atoms: C_9  and  N_10 
REMARK       I    between atoms: N_10  and  C_11 
REMARK       I    between atoms: C_11  and  N_12 
REMARK    4  A    between atoms: N_12  and  C_13 
REMARK    5  A    between atoms: C_16  and  N_17 
REMARK       I    between atoms: N_17  and  C_18 
REMARK    6  A    between atoms: C_18  and  C_19 
ROOT
HETATM    1  N   UNL     1       7.612  26.386  55.435  1.00  0.00    -0.342 N 
HETATM    2  C   UNL     1       7.446  27.043  56.637  1.00  0.00     0.320 C 
HETATM    3  N   UNL     1       7.300  28.399  56.443  1.00  0.00    -0.309 N 
HETATM    4  O   UNL     1       7.415  26.451  57.707  1.00  0.00    -0.247 OA
HETATM    5  H   UNL     1       7.980  26.923  54.663  1.00  0.00     0.164 HD
HETATM    6  H   UNL     1       7.045  28.676  55.508  1.00  0.00     0.170 HD
ENDROOT
BRANCH   3   7
HETATM    7  C   UNL     1       7.226  29.389  57.444  1.00  0.00     0.036 A 
HETATM    8  C   UNL     1       8.243  29.629  58.368  1.00  0.00     0.032 A 
HETATM    9  C   UNL     1       8.110  30.631  59.339  1.00  0.00     0.032 A 
HETATM   10  C   UNL     1       6.957  31.409  59.404  1.00  0.00     0.035 A 
HETATM   11  C   UNL     1       5.941  31.179  58.470  1.00  0.00     0.032 A 
HETATM   12  C   UNL     1       6.077  30.184  57.493  1.00  0.00     0.032 A 
BRANCH  10  13
HETATM   13  N   UNL     1       6.738  32.412  60.366  1.00  0.00    -0.321 N 
HETATM   14  C   UNL     1       6.662  32.280  61.741  1.00  0.00     0.279 C 
HETATM   15  O   UNL     1       6.832  31.241  62.370  1.00  0.00    -0.265 OA
HETATM   16  H   UNL     1       6.608  33.360  60.026  1.00  0.00     0.169 HD
BRANCH  14  17
HETATM   17  C   UNL     1       6.356  33.534  62.408  1.00  0.00     0.142 A 
HETATM   18  O   UNL     1       5.738  34.541  61.709  1.00  0.00    -0.317 OA
HETATM   19  C   UNL     1       5.563  35.575  62.572  1.00  0.00     0.143 A 
HETATM   20  C   UNL     1       6.060  35.260  63.814  1.00  0.00     0.027 A 
HETATM   21  C   UNL     1       6.572  33.945  63.710  1.00  0.00     0.045 A 
ENDBRANCH  14  17
ENDBRANCH  10  13
ENDBRANCH   3   7
BRANCH   1  22
HETATM   22  C   UNL     1       7.801  24.943  55.383  1.00  0.00     0.138 C 
BRANCH  22  23
HETATM   23  C   UNL     1       7.296  24.274  54.066  1.00  0.00    -0.004 C 
HETATM   24  C   UNL     1       8.013  24.960  52.876  1.00  0.00     0.021 C 
HETATM   25  C   UNL     1       5.787  24.561  53.883  1.00  0.00     0.021 C 
BRANCH  23  26
HETATM   26  C   UNL     1       7.642  22.772  54.063  1.00  0.00    -0.046 A 
HETATM   27  C   UNL     1       7.652  22.039  55.262  1.00  0.00     0.027 A 
HETATM   28  C   UNL     1       7.960  20.686  55.238  1.00  0.00     0.116 A 
HETATM   29  N   UNL     1       8.252  20.004  54.115  1.00  0.00    -0.273 NA
HETATM   30  C   UNL     1       8.248  20.712  52.969  1.00  0.00     0.116 A 
HETATM   31  C   UNL     1       7.954  22.068  52.893  1.00  0.00     0.027 A 
ENDBRANCH  23  26
ENDBRANCH  22  23
ENDBRANCH   1  22
TORSDOF 6
ENDMDL
MODEL 3
REMARK VINA RESULT:      -8.9      2.776     11.474
REMARK  6 active torsions:
REMARK  status: ('A' for Active; 'I' for Inactive)
REMARK    1  A    between atoms: C_2  and  C_3 
REMARK    2  A    between atoms: C_2  and  C_9 
REMARK    3  A    between atoms: C_9  and  N_10 
REMARK       I    between atoms: N_10  and  C_11 
REMARK       I    between atoms: C_11  and  N_12 
REMARK    4  A    between atoms: N_12  and  C_13 
REMARK    5  A    between atoms: C_16  and  N_17 
REMARK       I    between atoms: N_17  and  C_18 
REMARK    6  A    between atoms: C_18  and  C_19 
ROOT
HETATM    1  N   UNL     1       8.135  27.907  56.507  1.00  0.00    -0.342 N 
HETATM    2  C   UNL     1       7.388  28.672  57.379  1.00  0.00     0.320 C 
HETATM    3  N   UNL     1       8.191  29.530  58.097  1.00  0.00    -0.309 N 
HETATM    4  O   UNL     1       6.170  28.579  57.452  1.00  0.00    -0.247 OA
HETATM    5  H   UNL     1       9.108  27.765  56.736  1.00  0.00     0.164 HD
HETATM    6  H   UNL     1       9.105  29.694  57.705  1.00  0.00     0.170 HD
ENDROOT
BRANCH   3   7
HETATM    7  C   UNL     1       7.789  30.374  59.153  1.00  0.00     0.036 A 
HETATM    8  C   UNL     1       8.428  30.412  60.392  1.00  0.00     0.032 A 
HETATM    9  C   UNL     1       7.982  31.275  61.403  1.00  0.00     0.032 A 
HETATM   10  C   UNL     1       6.890  32.113  61.192  1.00  0.00     0.035 A 
HETATM   11  C   UNL     1       6.257  32.085  59.945  1.00  0.00     0.032 A 
HETATM   12  C   UNL     1       6.708  31.230  58.931  1.00  0.00     0.032 A 
BRANCH  10  13
HETATM   13  N   UNL     1       6.367  32.985  62.165  1.00  0.00    -0.321 N 
HETATM   14  C   UNL     1       5.465  32.700  63.176  1.00  0.00     0.279 C 
HETATM   15  O   UNL     1       5.002  31.593  63.429  1.00  0.00    -0.265 OA
HETATM   16  H   UNL     1       6.671  33.952  62.132  1.00  0.00     0.169 HD
BRANCH  14  17
HETATM   17  C   UNL     1       5.104  33.875  63.950  1.00  0.00     0.142 A 
HETATM   18  O   UNL     1       4.048  33.812  64.825  1.00  0.00    -0.317 OA
HETATM   19  C   UNL     1       3.948  35.031  65.416  1.00  0.00     0.143 A 
HETATM   20  C   UNL     1       4.913  35.884  64.936  1.00  0.00     0.027 A 
HETATM   21  C   UNL     1       5.658  35.140  63.991  1.00  0.00     0.045 A 
ENDBRANCH  14  17
ENDBRANCH  10  13
ENDBRANCH   3   7
BRANCH   1  22
HETATM   22  C   UNL     1       7.508  26.913  55.648  1.00  0.00     0.138 C 
BRANCH  22  23
HETATM   23  C   UNL     1       7.522  25.462  56.224  1.00  0.00    -0.004 C 
HETATM   24  C   UNL     1       6.182  25.231  56.968  1.00  0.00     0.021 C 
HETATM   25  C   UNL     1       8.633  25.337  57.292  1.00  0.00     0.021 C 
BRANCH  23  26
HETATM   26  C   UNL     1       7.646  24.434  55.083  1.00  0.00    -0.046 A 
HETATM   27  C   UNL     1       7.803  24.860  53.753  1.00  0.00     0.027 A 
HETATM   28  C   UNL     1       7.919  23.919  52.739  1.00  0.00     0.116 A 
HETATM   29  N   UNL     1       7.900  22.589  52.945  1.00  0.00    -0.273 NA
HETATM   30  C   UNL     1       7.743  22.186  54.221  1.00  0.00     0.116 A 
HETATM   31  C   UNL     1       7.617  23.051  55.301  1.00  0.00     0.027 A 
ENDBRANCH  23  26
ENDBRANCH  22  23
ENDBRANCH   1  22
TORSDOF 6
ENDMDL
MODEL 4
REMARK VINA RESULT:      -8.6      1.643      2.486
REMARK  6 active torsions:
REMARK  status: ('A' for Active; 'I' for Inactive)
REMARK    1  A    between atoms: C_2  and  C_3 
REMARK    2  A    between atoms: C_2  and  C_9 
REMARK    3  A    between atoms: C_9  and  N_10 
REMARK       I    between atoms: N_10  and  C_11 
REMARK       I    between atoms: C_11  and  N_12 
REMARK    4  A    between atoms: N_12  and  C_13 
REMARK    5  A    between atoms: C_16  and  N_17 
REMARK       I    between atoms: N_17  and  C_18 
REMARK    6  A    between atoms: C_18  and  C_19 
ROOT
HETATM    1  N   UNL     1       6.959  32.290  60.382  1.00  0.00    -0.342 N 
HETATM    2  C   UNL     1       7.589  31.240  59.746  1.00  0.00     0.320 C 
HETATM    3  N   UNL     1       6.799  30.724  58.743  1.00  0.00    -0.309 N 
HETATM    4  O   UNL     1       8.714  30.869  60.054  1.00  0.00    -0.247 OA
HETATM    5  H   UNL     1       5.950  32.315  60.343  1.00  0.00     0.164 HD
HETATM    6  H   UNL     1       6.056  31.327  58.426  1.00  0.00     0.170 HD
ENDROOT
BRANCH   3   7
HETATM    7  C   UNL     1       7.068  29.579  57.964  1.00  0.00     0.036 A 
HETATM    8  C   UNL     1       8.355  29.106  57.710  1.00  0.00     0.032 A 
HETATM    9  C   UNL     1       8.558  27.960  56.929  1.00  0.00     0.032 A 
HETATM   10  C   UNL     1       7.477  27.268  56.388  1.00  0.00     0.035 A 
HETATM   11  C   UNL     1       6.184  27.733  56.654  1.00  0.00     0.032 A 
HETATM   12  C   UNL     1       5.981  28.873  57.442  1.00  0.00     0.032 A 
BRANCH  10  13
HETATM   13  N   UNL     1       7.600  26.128  55.573  1.00  0.00    -0.321 N 
HETATM   14  C   UNL     1       7.529  24.797  55.945  1.00  0.00     0.279 C 
HETATM   15  O   UNL     1       7.284  24.382  57.073  1.00  0.00    -0.265 OA
HETATM   16  H   UNL     1       7.773  26.280  54.585  1.00  0.00     0.169 HD
BRANCH  14  17
HETATM   17  C   UNL     1       7.772  23.892  54.834  1.00  0.00     0.142 A 
HETATM   18  O   UNL     1       8.801  22.987  54.910  1.00  0.00    -0.317 OA
HETATM   19  C   UNL     1       8.787  22.270  53.756  1.00  0.00     0.143 A 
HETATM   20  C   UNL     1       7.773  22.697  52.933  1.00  0.00     0.027 A 
HETATM   21  C   UNL     1       7.118  23.742  53.626  1.00  0.00     0.045 A 
ENDBRANCH  14  17
ENDBRANCH  10  13
ENDBRANCH   3   7
BRANCH   1  22
HETATM   22  C   UNL     1       7.592  32.991  61.490  1.00  0.00     0.138 C 
BRANCH  22  23
HETATM   23  C   UNL     1       6.739  33.036  62.797  1.00  0.00    -0.004 C 
HETATM   24  C   UNL     1       7.702  32.880  64.001  1.00  0.00     0.021 C 
HETATM   25  C   UNL     1       5.793  31.813  62.841  1.00  0.00     0.021 C 
BRANCH  23  26
HETATM   26  C   UNL     1       6.006  34.387  62.911  1.00  0.00    -0.046 A 
HETATM   27  C   UNL     1       5.921  35.050  64.147  1.00  0.00     0.027 A 
HETATM   28  C   UNL     1       5.262  36.269  64.228  1.00  0.00     0.116 A 
HETATM   29  N   UNL     1       4.687  36.882  63.177  1.00  0.00    -0.273 NA
HETATM   30  C   UNL     1       4.766  36.239  61.995  1.00  0.00     0.116 A 
HETATM   31  C   UNL     1       5.403  35.017  61.815  1.00  0.00     0.027 A 
ENDBRANCH  23  26
ENDBRANCH  22  23
ENDBRANCH   1  22
TORSDOF 6
ENDMDL
MODEL 5
REMARK VINA RESULT:      -8.6      1.600      2.406
REMARK  6 active torsions:
REMARK  status: ('A' for Active; 'I' for Inactive)
REMARK    1  A    between atoms: C_2  and  C_3 
REMARK    2  A    between atoms: C_2  and  C_9 
REMARK    3  A    between atoms: C_9  and  N_10 
REMARK       I    between atoms: N_10  and  C_11 
REMARK       I    between atoms: C_11  and  N_12 
REMARK    4  A    between atoms: N_12  and  C_13 
REMARK    5  A    between atoms: C_16  and  N_17 
REMARK       I    between atoms: N_17  and  C_18 
REMARK    6  A    between atoms: C_18  and  C_19 
ROOT
HETATM    1  N   UNL     1       5.194  31.226  58.717  1.00  0.00    -0.342 N 
HETATM    2  C   UNL     1       6.017  30.293  58.121  1.00  0.00     0.320 C 
HETATM    3  N   UNL     1       5.319  29.149  57.801  1.00  0.00    -0.309 N 
HETATM    4  O   UNL     1       7.202  30.509  57.906  1.00  0.00    -0.247 OA
HETATM    5  H   UNL     1       4.365  30.881  59.181  1.00  0.00     0.164 HD
HETATM    6  H   UNL     1       4.317  29.252  57.764  1.00  0.00     0.170 HD
ENDROOT
BRANCH   3   7
HETATM    7  C   UNL     1       5.856  27.951  57.289  1.00  0.00     0.036 A 
HETATM    8  C   UNL     1       7.208  27.616  57.370  1.00  0.00     0.032 A 
HETATM    9  C   UNL     1       7.681  26.406  56.844  1.00  0.00     0.032 A 
HETATM   10  C   UNL     1       6.811  25.511  56.225  1.00  0.00     0.035 A 
HETATM   11  C   UNL     1       5.453  25.839  56.155  1.00  0.00     0.032 A 
HETATM   12  C   UNL     1       4.978  27.043  56.690  1.00  0.00     0.032 A 
BRANCH  10  13
HETATM   13  N   UNL     1       7.214  24.293  55.650  1.00  0.00    -0.321 N 
HETATM   14  C   UNL     1       7.097  23.887  54.331  1.00  0.00     0.279 C 
HETATM   15  O   UNL     1       6.658  24.568  53.411  1.00  0.00    -0.265 OA
HETATM   16  H   UNL     1       7.639  23.607  56.265  1.00  0.00     0.169 HD
BRANCH  14  17
HETATM   17  C   UNL     1       7.566  22.528  54.120  1.00  0.00     0.142 A 
HETATM   18  O   UNL     1       7.597  21.650  55.175  1.00  0.00    -0.317 OA
HETATM   19  C   UNL     1       8.056  20.466  54.693  1.00  0.00     0.143 A 
HETATM   20  C   UNL     1       8.330  20.562  53.350  1.00  0.00     0.027 A 
HETATM   21  C   UNL     1       8.014  21.890  52.979  1.00  0.00     0.045 A 
ENDBRANCH  14  17
ENDBRANCH  10  13
ENDBRANCH   3   7
BRANCH   1  22
HETATM   22  C   UNL     1       5.708  32.514  59.159  1.00  0.00     0.138 C 
BRANCH  22  23
HETATM   23  C   UNL     1       5.083  33.035  60.491  1.00  0.00    -0.004 C 
HETATM   24  C   UNL     1       3.869  32.135  60.834  1.00  0.00     0.021 C 
HETATM   25  C   UNL     1       4.516  34.458  60.278  1.00  0.00     0.021 C 
BRANCH  23  26
HETATM   26  C   UNL     1       6.113  32.947  61.635  1.00  0.00    -0.046 A 
HETATM   27  C   UNL     1       7.314  32.240  61.460  1.00  0.00     0.027 A 
HETATM   28  C   UNL     1       8.232  32.177  62.500  1.00  0.00     0.116 A 
HETATM   29  N   UNL     1       8.051  32.768  63.696  1.00  0.00    -0.273 NA
HETATM   30  C   UNL     1       6.895  33.439  63.860  1.00  0.00     0.116 A 
HETATM   31  C   UNL     1       5.917  33.557  62.880  1.00  0.00     0.027 A 
ENDBRANCH  23  26
ENDBRANCH  22  23
ENDBRANCH   1  22
TORSDOF 6
ENDMDL
MODEL 6
REMARK VINA RESULT:      -8.5      1.808      2.754
REMARK  6 active torsions:
REMARK  status: ('A' for Active; 'I' for Inactive)
REMARK    1  A    between atoms: C_2  and  C_3 
REMARK    2  A    between atoms: C_2  and  C_9 
REMARK    3  A    between atoms: C_9  and  N_10 
REMARK       I    between atoms: N_10  and  C_11 
REMARK       I    between atoms: C_11  and  N_12 
REMARK    4  A    between atoms: N_12  and  C_13 
REMARK    5  A    between atoms: C_16  and  N_17 
REMARK       I    between atoms: N_17  and  C_18 
REMARK    6  A    between atoms: C_18  and  C_19 
ROOT
HETATM    1  N   UNL     1       6.172  32.364  59.890  1.00  0.00    -0.342 N 
HETATM    2  C   UNL     1       6.872  31.239  59.505  1.00  0.00     0.320 C 
HETATM    3  N   UNL     1       6.387  30.737  58.318  1.00  0.00    -0.309 N 
HETATM    4  O   UNL     1       7.810  30.797  60.155  1.00  0.00    -0.247 OA
HETATM    5  H   UNL     1       5.231  32.464  59.539  1.00  0.00     0.164 HD
HETATM    6  H   UNL     1       5.833  31.379  57.772  1.00  0.00     0.170 HD
ENDROOT
BRANCH   3   7
HETATM    7  C   UNL     1       6.780  29.538  57.687  1.00  0.00     0.036 A 
HETATM    8  C   UNL     1       8.111  29.190  57.459  1.00  0.00     0.032 A 
HETATM    9  C   UNL     1       8.439  27.981  56.829  1.00  0.00     0.032 A 
HETATM   10  C   UNL     1       7.441  27.102  56.414  1.00  0.00     0.035 A 
HETATM   11  C   UNL     1       6.106  27.444  56.655  1.00  0.00     0.032 A 
HETATM   12  C   UNL     1       5.778  28.647  57.294  1.00  0.00     0.032 A 
BRANCH  10  13
HETATM   13  N   UNL     1       7.689  25.886  55.751  1.00  0.00    -0.321 N 
HETATM   14  C   UNL     1       7.555  25.602  54.403  1.00  0.00     0.279 C 
HETATM   15  O   UNL     1       7.239  26.404  53.532  1.00  0.00    -0.265 OA
HETATM   16  H   UNL     1       7.999  25.104  56.318  1.00  0.00     0.169 HD
BRANCH  14  17
HETATM   17  C   UNL     1       7.839  24.210  54.094  1.00  0.00     0.142 A 
HETATM   18  O   UNL     1       8.451  23.419  55.034  1.00  0.00    -0.317 OA
HETATM   19  C   UNL     1       8.577  22.180  54.489  1.00  0.00     0.143 A 
HETATM   20  C   UNL     1       8.064  22.157  53.214  1.00  0.00     0.027 A 
HETATM   21  C   UNL     1       7.588  23.465  52.958  1.00  0.00     0.045 A 
ENDBRANCH  14  17
ENDBRANCH  10  13
ENDBRANCH   3   7
BRANCH   1  22
HETATM   22  C   UNL     1       6.493  33.067  61.124  1.00  0.00     0.138 C 
BRANCH  22  23
HETATM   23  C   UNL     1       5.252  33.443  61.993  1.00  0.00    -0.004 C 
HETATM   24  C   UNL     1       4.220  32.293  61.876  1.00  0.00     0.021 C 
HETATM   25  C   UNL     1       4.566  34.698  61.404  1.00  0.00     0.021 C 
BRANCH  23  26
HETATM   26  C   UNL     1       5.662  33.602  63.470  1.00  0.00    -0.046 A 
HETATM   27  C   UNL     1       4.690  33.816  64.462  1.00  0.00     0.027 A 
HETATM   28  C   UNL     1       5.078  33.950  65.788  1.00  0.00     0.116 A 
HETATM   29  N   UNL     1       6.356  33.881  66.205  1.00  0.00    -0.273 NA
HETATM   30  C   UNL     1       7.285  33.681  65.250  1.00  0.00     0.116 A 
HETATM   31  C   UNL     1       6.994  33.537  63.899  1.00  0.00     0.027 A 
ENDBRANCH  23  26
ENDBRANCH  22  23
ENDBRANCH   1  22
TORSDOF 6
ENDMDL
MODEL 7
REMARK VINA RESULT:      -8.2      3.491     11.521
REMARK  6 active torsions:
REMARK  status: ('A' for Active; 'I' for Inactive)
REMARK    1  A    between atoms: C_2  and  C_3 
REMARK    2  A    between atoms: C_2  and  C_9 
REMARK    3  A    between atoms: C_9  and  N_10 
REMARK       I    between atoms: N_10  and  C_11 
REMARK       I    between atoms: C_11  and  N_12 
REMARK    4  A    between atoms: N_12  and  C_13 
REMARK    5  A    between atoms: C_16  and  N_17 
REMARK       I    between atoms: N_17  and  C_18 
REMARK    6  A    between atoms: C_18  and  C_19 
ROOT
HETATM    1  N   UNL     1       7.319  25.779  55.703  1.00  0.00    -0.342 N 
HETATM    2  C   UNL     1       7.310  27.148  55.876  1.00  0.00     0.320 C 
HETATM    3  N   UNL     1       6.475  27.511  56.909  1.00  0.00    -0.309 N 
HETATM    4  O   UNL     1       7.992  27.898  55.191  1.00  0.00    -0.247 OA
HETATM    5  H   UNL     1       6.509  25.269  56.024  1.00  0.00     0.164 HD
HETATM    6  H   UNL     1       6.237  26.771  57.551  1.00  0.00     0.170 HD
ENDROOT
BRANCH   3   7
HETATM    7  C   UNL     1       6.132  28.824  57.293  1.00  0.00     0.036 A 
HETATM    8  C   UNL     1       7.022  29.702  57.913  1.00  0.00     0.032 A 
HETATM    9  C   UNL     1       6.621  30.997  58.268  1.00  0.00     0.032 A 
HETATM   10  C   UNL     1       5.324  31.436  58.012  1.00  0.00     0.035 A 
HETATM   11  C   UNL     1       4.435  30.561  57.378  1.00  0.00     0.032 A 
HETATM   12  C   UNL     1       4.838  29.270  57.013  1.00  0.00     0.032 A 
BRANCH  10  13
HETATM   13  N   UNL     1       4.840  32.709  58.364  1.00  0.00    -0.321 N 
HETATM   14  C   UNL     1       3.714  33.024  59.103  1.00  0.00     0.279 C 
HETATM   15  O   UNL     1       2.959  32.217  59.635  1.00  0.00    -0.265 OA
HETATM   16  H   UNL     1       5.366  33.512  58.035  1.00  0.00     0.169 HD
BRANCH  14  17
HETATM   17  C   UNL     1       3.494  34.457  59.206  1.00  0.00     0.142 A 
HETATM   18  O   UNL     1       4.238  35.195  60.093  1.00  0.00    -0.317 OA
HETATM   19  C   UNL     1       3.840  36.487  59.968  1.00  0.00     0.143 A 
HETATM   20  C   UNL     1       2.849  36.600  59.022  1.00  0.00     0.027 A 
HETATM   21  C   UNL     1       2.625  35.292  58.531  1.00  0.00     0.045 A 
ENDBRANCH  14  17
ENDBRANCH  10  13
ENDBRANCH   3   7
BRANCH   1  22
HETATM   22  C   UNL     1       8.118  25.155  54.658  1.00  0.00     0.138 C 
BRANCH  22  23
HETATM   23  C   UNL     1       7.308  24.243  53.685  1.00  0.00    -0.004 C 
HETATM   24  C   UNL     1       7.695  24.629  52.235  1.00  0.00     0.021 C 
HETATM   25  C   UNL     1       5.798  24.547  53.823  1.00  0.00     0.021 C 
BRANCH  23  26
HETATM   26  C   UNL     1       7.662  22.761  53.921  1.00  0.00    -0.046 A 
HETATM   27  C   UNL     1       8.006  21.929  52.842  1.00  0.00     0.027 A 
HETATM   28  C   UNL     1       8.328  20.599  53.076  1.00  0.00     0.116 A 
HETATM   29  N   UNL     1       8.342  20.034  54.298  1.00  0.00    -0.273 NA
HETATM   30  C   UNL     1       8.005  20.835  55.328  1.00  0.00     0.116 A 
HETATM   31  C   UNL     1       7.667  22.176  55.193  1.00  0.00     0.027 A 
ENDBRANCH  23  26
ENDBRANCH  22  23
ENDBRANCH   1  22
TORSDOF 6
ENDMDL
MODEL 8
REMARK VINA RESULT:      -8.2      3.089     11.656
REMARK  6 active torsions:
REMARK  status: ('A' for Active; 'I' for Inactive)
REMARK    1  A    between atoms: C_2  and  C_3 
REMARK    2  A    between atoms: C_2  and  C_9 
REMARK    3  A    between atoms: C_9  and  N_10 
REMARK       I    between atoms: N_10  and  C_11 
REMARK       I    between atoms: C_11  and  N_12 
REMARK    4  A    between atoms: N_12  and  C_13 
REMARK    5  A    between atoms: C_16  and  N_17 
REMARK       I    between atoms: N_17  and  C_18 
REMARK    6  A    between atoms: C_18  and  C_19 
ROOT
HETATM    1  N   UNL     1       5.154  26.382  55.758  1.00  0.00    -0.342 N 
HETATM    2  C   UNL     1       5.511  27.296  56.728  1.00  0.00     0.320 C 
HETATM    3  N   UNL     1       4.760  28.446  56.626  1.00  0.00    -0.309 N 
HETATM    4  O   UNL     1       6.374  27.060  57.563  1.00  0.00    -0.247 OA
HETATM    5  H   UNL     1       4.726  26.745  54.918  1.00  0.00     0.164 HD
HETATM    6  H   UNL     1       3.906  28.357  56.097  1.00  0.00     0.170 HD
ENDROOT
BRANCH   3   7
HETATM    7  C   UNL     1       4.927  29.630  57.372  1.00  0.00     0.036 A 
HETATM    8  C   UNL     1       6.171  30.199  57.643  1.00  0.00     0.032 A 
HETATM    9  C   UNL     1       6.273  31.382  58.390  1.00  0.00     0.032 A 
HETATM   10  C   UNL     1       5.132  32.014  58.879  1.00  0.00     0.035 A 
HETATM   11  C   UNL     1       3.882  31.451  58.596  1.00  0.00     0.032 A 
HETATM   12  C   UNL     1       3.780  30.275  57.842  1.00  0.00     0.032 A 
BRANCH  10  13
HETATM   13  N   UNL     1       5.154  33.185  59.658  1.00  0.00    -0.321 N 
HETATM   14  C   UNL     1       5.142  33.298  61.037  1.00  0.00     0.279 C 
HETATM   15  O   UNL     1       5.166  32.363  61.831  1.00  0.00    -0.265 OA
HETATM   16  H   UNL     1       5.171  34.071  59.163  1.00  0.00     0.169 HD
BRANCH  14  17
HETATM   17  C   UNL     1       5.104  34.680  61.485  1.00  0.00     0.142 A 
HETATM   18  O   UNL     1       4.274  35.574  60.857  1.00  0.00    -0.317 OA
HETATM   19  C   UNL     1       4.429  36.769  61.483  1.00  0.00     0.143 A 
HETATM   20  C   UNL     1       5.347  36.668  62.500  1.00  0.00     0.027 A 
HETATM   21  C   UNL     1       5.784  35.322  62.503  1.00  0.00     0.045 A 
ENDBRANCH  14  17
ENDBRANCH  10  13
ENDBRANCH   3   7
BRANCH   1  22
HETATM   22  C   UNL     1       5.819  25.092  55.654  1.00  0.00     0.138 C 
BRANCH  22  23
HETATM   23  C   UNL     1       6.389  24.773  54.236  1.00  0.00    -0.004 C 
HETATM   24  C   UNL     1       7.418  25.874  53.875  1.00  0.00     0.021 C 
HETATM   25  C   UNL     1       5.259  24.879  53.186  1.00  0.00     0.021 C 
BRANCH  23  26
HETATM   26  C   UNL     1       7.100  23.405  54.241  1.00  0.00    -0.046 A 
HETATM   27  C   UNL     1       7.500  22.805  53.035  1.00  0.00     0.027 A 
HETATM   28  C   UNL     1       8.144  21.575  53.060  1.00  0.00     0.116 A 
HETATM   29  N   UNL     1       8.427  20.900  54.190  1.00  0.00    -0.273 NA
HETATM   30  C   UNL     1       8.035  21.477  55.343  1.00  0.00     0.116 A 
HETATM   31  C   UNL     1       7.384  22.702  55.419  1.00  0.00     0.027 A 
ENDBRANCH  23  26
ENDBRANCH  22  23
ENDBRANCH   1  22
TORSDOF 6
ENDMDL
MODEL 9
REMARK VINA RESULT:      -8.1      2.014      3.086
REMARK  6 active torsions:
REMARK  status: ('A' for Active; 'I' for Inactive)
REMARK    1  A    between atoms: C_2  and  C_3 
REMARK    2  A    between atoms: C_2  and  C_9 
REMARK    3  A    between atoms: C_9  and  N_10 
REMARK       I    between atoms: N_10  and  C_11 
REMARK       I    between atoms: C_11  and  N_12 
REMARK    4  A    between atoms: N_12  and  C_13 
REMARK    5  A    between atoms: C_16  and  N_17 
REMARK       I    between atoms: N_17  and  C_18 
REMARK    6  A    between atoms: C_18  and  C_19 
ROOT
HETATM    1  N   UNL     1       4.791  32.323  59.454  1.00  0.00    -0.342 N 
HETATM    2  C   UNL     1       5.436  31.528  58.528  1.00  0.00     0.320 C 
HETATM    3  N   UNL     1       4.644  30.468  58.150  1.00  0.00    -0.309 N 
HETATM    4  O   UNL     1       6.557  31.788  58.111  1.00  0.00    -0.247 OA
HETATM    5  H   UNL     1       4.066  31.890  60.008  1.00  0.00     0.164 HD
HETATM    6  H   UNL     1       3.660  30.572  58.347  1.00  0.00     0.170 HD
ENDROOT
BRANCH   3   7
HETATM    7  C   UNL     1       5.016  29.395  57.314  1.00  0.00     0.036 A 
HETATM    8  C   UNL     1       4.228  28.928  56.262  1.00  0.00     0.032 A 
HETATM    9  C   UNL     1       4.655  27.858  55.464  1.00  0.00     0.032 A 
HETATM   10  C   UNL     1       5.877  27.235  55.705  1.00  0.00     0.035 A 
HETATM   11  C   UNL     1       6.676  27.711  56.751  1.00  0.00     0.032 A 
HETATM   12  C   UNL     1       6.253  28.787  57.543  1.00  0.00     0.032 A 
BRANCH  10  13
HETATM   13  N   UNL     1       6.361  26.140  54.967  1.00  0.00    -0.321 N 
HETATM   14  C   UNL     1       6.666  24.868  55.421  1.00  0.00     0.279 C 
HETATM   15  O   UNL     1       6.508  24.461  56.567  1.00  0.00    -0.265 OA
HETATM   16  H   UNL     1       6.522  26.283  53.976  1.00  0.00     0.169 HD
BRANCH  14  17
HETATM   17  C   UNL     1       7.208  24.016  54.375  1.00  0.00     0.142 A 
HETATM   18  O   UNL     1       7.227  22.655  54.551  1.00  0.00    -0.317 OA
HETATM   19  C   UNL     1       7.765  22.116  53.427  1.00  0.00     0.143 A 
HETATM   20  C   UNL     1       8.100  23.101  52.529  1.00  0.00     0.027 A 
HETATM   21  C   UNL     1       7.742  24.326  53.139  1.00  0.00     0.045 A 
ENDBRANCH  14  17
ENDBRANCH  10  13
ENDBRANCH   3   7
BRANCH   1  22
HETATM   22  C   UNL     1       5.435  33.502  60.016  1.00  0.00     0.138 C 
BRANCH  22  23
HETATM   23  C   UNL     1       5.902  33.337  61.496  1.00  0.00    -0.004 C 
HETATM   24  C   UNL     1       4.779  32.606  62.274  1.00  0.00     0.021 C 
HETATM   25  C   UNL     1       6.045  34.729  62.154  1.00  0.00     0.021 C 
BRANCH  23  26
HETATM   26  C   UNL     1       7.189  32.491  61.559  1.00  0.00    -0.046 A 
HETATM   27  C   UNL     1       7.288  31.409  62.451  1.00  0.00     0.027 A 
HETATM   28  C   UNL     1       8.453  30.654  62.489  1.00  0.00     0.116 A 
HETATM   29  N   UNL     1       9.523  30.888  61.706  1.00  0.00    -0.273 NA
HETATM   30  C   UNL     1       9.425  31.930  60.857  1.00  0.00     0.116 A 
HETATM   31  C   UNL     1       8.303  32.742  60.749  1.00  0.00     0.027 A 
ENDBRANCH  23  26
ENDBRANCH  22  23
ENDBRANCH   1  22
TORSDOF 6
ENDMDL
MODEL 10
REMARK VINA RESULT:      -8.0      2.634     10.935
REMARK  6 active torsions:
REMARK  status: ('A' for Active; 'I' for Inactive)
REMARK    1  A    between atoms: C_2  and  C_3 
REMARK    2  A    between atoms: C_2  and  C_9 
REMARK    3  A    between atoms: C_9  and  N_10 
REMARK       I    between atoms: N_10  and  C_11 
REMARK       I    between atoms: C_11  and  N_12 
REMARK    4  A    between atoms: N_12  and  C_13 
REMARK    5  A    between atoms: C_16  and  N_17 
REMARK       I    between atoms: N_17  and  C_18 
REMARK    6  A    between atoms: C_18  and  C_19 
ROOT
HETATM    1  N   UNL     1       5.797  28.030  54.128  1.00  0.00    -0.342 N 
HETATM    2  C   UNL     1       5.530  28.407  55.428  1.00  0.00     0.320 C 
HETATM    3  N   UNL     1       6.019  29.668  55.687  1.00  0.00    -0.309 N 
HETATM    4  O   UNL     1       4.913  27.689  56.204  1.00  0.00    -0.247 OA
HETATM    5  H   UNL     1       6.581  28.472  53.671  1.00  0.00     0.164 HD
HETATM    6  H   UNL     1       6.220  30.229  54.874  1.00  0.00     0.170 HD
ENDROOT
BRANCH   3   7
HETATM    7  C   UNL     1       6.031  30.326  56.934  1.00  0.00     0.036 A 
HETATM    8  C   UNL     1       5.024  31.194  57.356  1.00  0.00     0.032 A 
HETATM    9  C   UNL     1       5.092  31.816  58.611  1.00  0.00     0.032 A 
HETATM   10  C   UNL     1       6.169  31.584  59.463  1.00  0.00     0.035 A 
HETATM   11  C   UNL     1       7.173  30.703  59.046  1.00  0.00     0.032 A 
HETATM   12  C   UNL     1       7.101  30.072  57.797  1.00  0.00     0.032 A 
BRANCH  10  13
HETATM   13  N   UNL     1       6.321  32.192  60.722  1.00  0.00    -0.321 N 
HETATM   14  C   UNL     1       7.482  32.664  61.311  1.00  0.00     0.279 C 
HETATM   15  O   UNL     1       8.592  32.678  60.791  1.00  0.00    -0.265 OA
HETATM   16  H   UNL     1       5.488  32.298  61.290  1.00  0.00     0.169 HD
BRANCH  14  17
HETATM   17  C   UNL     1       7.261  33.170  62.655  1.00  0.00     0.142 A 
HETATM   18  O   UNL     1       6.235  34.052  62.888  1.00  0.00    -0.317 OA
HETATM   19  C   UNL     1       6.251  34.341  64.215  1.00  0.00     0.143 A 
HETATM   20  C   UNL     1       7.272  33.669  64.845  1.00  0.00     0.027 A 
HETATM   21  C   UNL     1       7.923  32.914  63.841  1.00  0.00     0.045 A 
ENDBRANCH  14  17
ENDBRANCH  10  13
ENDBRANCH   3   7
BRANCH   1  22
HETATM   22  C   UNL     1       5.389  26.727  53.620  1.00  0.00     0.138 C 
BRANCH  22  23
HETATM   23  C   UNL     1       6.547  25.885  53.000  1.00  0.00    -0.004 C 
HETATM   24  C   UNL     1       7.785  26.806  52.858  1.00  0.00     0.021 C 
HETATM   25  C   UNL     1       6.165  25.454  51.565  1.00  0.00     0.021 C 
BRANCH  23  26
HETATM   26  C   UNL     1       6.903  24.703  53.924  1.00  0.00    -0.046 A 
HETATM   27  C   UNL     1       6.913  24.867  55.319  1.00  0.00     0.027 A 
HETATM   28  C   UNL     1       7.230  23.789  56.135  1.00  0.00     0.116 A 
HETATM   29  N   UNL     1       7.531  22.561  55.672  1.00  0.00    -0.273 NA
HETATM   30  C   UNL     1       7.526  22.412  54.333  1.00  0.00     0.116 A 
HETATM   31  C   UNL     1       7.223  23.430  53.437  1.00  0.00     0.027 A 
ENDBRANCH  23  26
ENDBRANCH  22  23
ENDBRANCH   1  22
TORSDOF 6
ENDMDL
