MODEL 1
REMARK VINA RESULT:      -8.2      0.000      0.000
REMARK  5 active torsions:
REMARK  status: ('A' for Active; 'I' for Inactive)
REMARK    1  A    between atoms: C_3  and  N_4 
REMARK       I    between atoms: N_4  and  C_5 
REMARK       I    between atoms: C_5  and  N_6 
REMARK    2  A    between atoms: N_6  and  C_7 
REMARK    3  A    between atoms: C_7  and  C_8 
REMARK    4  A    between atoms: C_8  and  O_9 
REMARK    5  A    between atoms: O_9  and  C_10 
ROOT
HETATM    1  N   UNL     1       7.568  29.983  57.386  1.00  0.00    -0.307 N 
HETATM    2  C   UNL     1       7.631  28.609  57.368  1.00  0.00     0.320 C 
HETATM    3  N   UNL     1       7.290  28.121  56.122  1.00  0.00    -0.340 N 
HETATM    4  O   UNL     1       7.927  27.885  58.305  1.00  0.00    -0.247 OA
HETATM    5  H   UNL     1       6.821  30.351  56.814  1.00  0.00     0.170 HD
HETATM    6  H   UNL     1       7.482  28.773  55.376  1.00  0.00     0.164 HD
ENDROOT
BRANCH   3   7
HETATM    7  C   UNL     1       7.547  26.722  55.789  1.00  0.00     0.156 C 
BRANCH   7   8
HETATM    8  C   UNL     1       6.296  25.821  55.695  1.00  0.00     0.142 C 
HETATM    9  C   UNL     1       5.199  26.268  56.664  1.00  0.00     0.042 C 
BRANCH   8  10
HETATM   10  O   UNL     1       6.652  24.497  56.135  1.00  0.00    -0.345 OA
BRANCH  10  11
HETATM   11  C   UNL     1       7.066  23.578  55.218  1.00  0.00     0.069 A 
HETATM   12  C   UNL     1       7.109  23.756  53.836  1.00  0.00     0.038 A 
HETATM   13  C   UNL     1       7.568  22.721  53.012  1.00  0.00     0.026 A 
HETATM   14  C   UNL     1       7.992  21.516  53.572  1.00  0.00     0.034 A 
HETATM   15 CL   UNL     1       8.553  20.248  52.556  1.00  0.00    -0.084 Cl
HETATM   16  C   UNL     1       7.969  21.338  54.951  1.00  0.00     0.026 A 
HETATM   17  C   UNL     1       7.510  22.372  55.770  1.00  0.00     0.038 A 
ENDBRANCH  10  11
ENDBRANCH   8  10
ENDBRANCH   7   8
ENDBRANCH   3   7
BRANCH   1  18
HETATM   18  C   UNL     1       8.049  30.834  58.411  1.00  0.00     0.059 A 
HETATM   19  C   UNL     1       9.386  31.210  58.618  1.00  0.00    -0.032 A 
HETATM   20  C   UNL     1      10.540  30.812  57.741  1.00  0.00     0.050 C 
HETATM   21  C   UNL     1       9.681  32.045  59.711  1.00  0.00     0.028 A 
HETATM   22  C   UNL     1       8.654  32.522  60.508  1.00  0.00     0.117 A 
HETATM   23  N   UNL     1       7.358  32.235  60.298  1.00  0.00    -0.271 NA
HETATM   24  C   UNL     1       7.094  31.405  59.261  1.00  0.00     0.146 A 
ENDBRANCH   1  18
TORSDOF 5
ENDMDL
MODEL 2
REMARK VINA RESULT:      -8.1      3.348      7.632
REMARK  5 active torsions:
REMARK  status: ('A' for Active; 'I' for Inactive)
REMARK    1  A    between atoms: C_3  and  N_4 
REMARK       I    between atoms: N_4  and  C_5 
REMARK       I    between atoms: C_5  and  N_6 
REMARK    2  A    between atoms: N_6  and  C_7 
REMARK    3  A    between atoms: C_7  and  C_8 
REMARK    4  A    between atoms: C_8  and  O_9 
REMARK    5  A    between atoms: O_9  and  C_10 
ROOT
HETATM    1  N   UNL     1       9.012  23.385  55.762  1.00  0.00    -0.307 N 
HETATM    2  C   UNL     1       8.073  24.062  56.505  1.00  0.00     0.320 C 
HETATM    3  N   UNL     1       8.639  25.157  57.128  1.00  0.00    -0.340 N 
HETATM    4  O   UNL     1       6.897  23.760  56.634  1.00  0.00    -0.247 OA
HETATM    5  H   UNL     1       9.929  23.389  56.187  1.00  0.00     0.170 HD
HETATM    6  H   UNL     1       9.438  25.524  56.633  1.00  0.00     0.164 HD
ENDROOT
BRANCH   3   7
HETATM    7  C   UNL     1       7.786  26.169  57.743  1.00  0.00     0.156 C 
BRANCH   7   8
HETATM    8  C   UNL     1       7.664  27.498  56.966  1.00  0.00     0.142 C 
HETATM    9  C   UNL     1       7.786  28.711  57.890  1.00  0.00     0.042 C 
BRANCH   8  10
HETATM   10  O   UNL     1       6.332  27.589  56.422  1.00  0.00    -0.345 OA
BRANCH  10  11
HETATM   11  C   UNL     1       6.134  27.336  55.098  1.00  0.00     0.069 A 
HETATM   12  C   UNL     1       6.645  28.075  54.032  1.00  0.00     0.038 A 
HETATM   13  C   UNL     1       6.364  27.690  52.716  1.00  0.00     0.026 A 
HETATM   14  C   UNL     1       5.582  26.562  52.469  1.00  0.00     0.034 A 
HETATM   15 CL   UNL     1       5.238  26.095  50.850  1.00  0.00    -0.084 Cl
HETATM   16  C   UNL     1       5.084  25.809  53.527  1.00  0.00     0.026 A 
HETATM   17  C   UNL     1       5.366  26.196  54.839  1.00  0.00     0.038 A 
ENDBRANCH  10  11
ENDBRANCH   8  10
ENDBRANCH   7   8
ENDBRANCH   3   7
BRANCH   1  18
HETATM   18  C   UNL     1       8.761  22.351  54.827  1.00  0.00     0.059 A 
HETATM   19  C   UNL     1       8.305  22.518  53.509  1.00  0.00    -0.032 A 
HETATM   20  C   UNL     1       8.056  23.842  52.843  1.00  0.00     0.050 C 
HETATM   21  C   UNL     1       8.083  21.367  52.731  1.00  0.00     0.028 A 
HETATM   22  C   UNL     1       8.377  20.118  53.253  1.00  0.00     0.117 A 
HETATM   23  N   UNL     1       8.877  19.929  54.486  1.00  0.00    -0.271 NA
HETATM   24  C   UNL     1       9.055  21.044  55.233  1.00  0.00     0.146 A 
ENDBRANCH   1  18
TORSDOF 5
ENDMDL
MODEL 3
REMARK VINA RESULT:      -8.0      3.933      6.275
REMARK  5 active torsions:
REMARK  status: ('A' for Active; 'I' for Inactive)
REMARK    1  A    between atoms: C_3  and  N_4 
REMARK       I    between atoms: N_4  and  C_5 
REMARK       I    between atoms: C_5  and  N_6 
REMARK    2  A    between atoms: N_6  and  C_7 
REMARK    3  A    between atoms: C_7  and  C_8 
REMARK    4  A    between atoms: C_8  and  O_9 
REMARK    5  A    between atoms: O_9  and  C_10 
ROOT
HETATM    1  N   UNL     1       4.037  27.339  53.354  1.00  0.00    -0.307 N 
HETATM    2  C   UNL     1       4.845  27.699  54.406  1.00  0.00     0.320 C 
HETATM    3  N   UNL     1       4.659  26.850  55.479  1.00  0.00    -0.340 N 
HETATM    4  O   UNL     1       5.621  28.642  54.433  1.00  0.00    -0.247 OA
HETATM    5  H   UNL     1       3.138  26.983  53.650  1.00  0.00     0.170 HD
HETATM    6  H   UNL     1       4.351  25.929  55.205  1.00  0.00     0.164 HD
ENDROOT
BRANCH   3   7
HETATM    7  C   UNL     1       5.596  26.871  56.599  1.00  0.00     0.156 C 
BRANCH   7   8
HETATM    8  C   UNL     1       6.553  25.662  56.688  1.00  0.00     0.142 C 
HETATM    9  C   UNL     1       7.646  25.878  57.737  1.00  0.00     0.042 C 
BRANCH   8  10
HETATM   10  O   UNL     1       7.265  25.549  55.441  1.00  0.00    -0.345 OA
BRANCH  10  11
HETATM   11  C   UNL     1       7.490  24.314  54.911  1.00  0.00     0.069 A 
HETATM   12  C   UNL     1       7.448  23.102  55.600  1.00  0.00     0.038 A 
HETATM   13  C   UNL     1       7.693  21.903  54.920  1.00  0.00     0.026 A 
HETATM   14  C   UNL     1       7.969  21.918  53.553  1.00  0.00     0.034 A 
HETATM   15 CL   UNL     1       8.272  20.442  52.723  1.00  0.00    -0.084 Cl
HETATM   16  C   UNL     1       7.995  23.121  52.856  1.00  0.00     0.026 A 
HETATM   17  C   UNL     1       7.750  24.315  53.537  1.00  0.00     0.038 A 
ENDBRANCH  10  11
ENDBRANCH   8  10
ENDBRANCH   7   8
ENDBRANCH   3   7
BRANCH   1  18
HETATM   18  C   UNL     1       4.106  27.837  52.029  1.00  0.00     0.059 A 
HETATM   19  C   UNL     1       4.807  27.256  50.960  1.00  0.00    -0.032 A 
HETATM   20  C   UNL     1       5.566  25.961  51.028  1.00  0.00     0.050 C 
HETATM   21  C   UNL     1       4.785  27.912  49.716  1.00  0.00     0.028 A 
HETATM   22  C   UNL     1       4.030  29.062  49.559  1.00  0.00     0.117 A 
HETATM   23  N   UNL     1       3.295  29.607  50.544  1.00  0.00    -0.271 NA
HETATM   24  C   UNL     1       3.353  28.982  51.744  1.00  0.00     0.146 A 
ENDBRANCH   1  18
TORSDOF 5
ENDMDL
MODEL 4
REMARK VINA RESULT:      -8.0      4.547      7.100
REMARK  5 active torsions:
REMARK  status: ('A' for Active; 'I' for Inactive)
REMARK    1  A    between atoms: C_3  and  N_4 
REMARK       I    between atoms: N_4  and  C_5 
REMARK       I    between atoms: C_5  and  N_6 
REMARK    2  A    between atoms: N_6  and  C_7 
REMARK    3  A    between atoms: C_7  and  C_8 
REMARK    4  A    between atoms: C_8  and  O_9 
REMARK    5  A    between atoms: O_9  and  C_10 
ROOT
HETATM    1  N   UNL     1       4.087  27.575  51.734  1.00  0.00    -0.307 N 
HETATM    2  C   UNL     1       5.013  27.712  52.742  1.00  0.00     0.320 C 
HETATM    3  N   UNL     1       4.499  27.263  53.942  1.00  0.00    -0.340 N 
HETATM    4  O   UNL     1       6.137  28.177  52.634  1.00  0.00    -0.247 OA
HETATM    5  H   UNL     1       3.139  27.737  52.045  1.00  0.00     0.170 HD
HETATM    6  H   UNL     1       3.789  26.555  53.828  1.00  0.00     0.164 HD
ENDROOT
BRANCH   3   7
HETATM    7  C   UNL     1       5.384  27.058  55.086  1.00  0.00     0.156 C 
BRANCH   7   8
HETATM    8  C   UNL     1       5.515  25.599  55.572  1.00  0.00     0.142 C 
HETATM    9  C   UNL     1       5.146  25.457  57.051  1.00  0.00     0.042 C 
BRANCH   8  10
HETATM   10  O   UNL     1       6.903  25.217  55.508  1.00  0.00    -0.345 OA
BRANCH  10  11
HETATM   11  C   UNL     1       7.263  24.138  54.757  1.00  0.00     0.069 A 
HETATM   12  C   UNL     1       7.512  24.135  53.385  1.00  0.00     0.038 A 
HETATM   13  C   UNL     1       7.884  22.947  52.745  1.00  0.00     0.026 A 
HETATM   14  C   UNL     1       8.015  21.768  53.479  1.00  0.00     0.034 A 
HETATM   15 CL   UNL     1       8.470  20.311  52.687  1.00  0.00    -0.084 Cl
HETATM   16  C   UNL     1       7.786  21.767  54.851  1.00  0.00     0.026 A 
HETATM   17  C   UNL     1       7.414  22.954  55.486  1.00  0.00     0.038 A 
ENDBRANCH  10  11
ENDBRANCH   8  10
ENDBRANCH   7   8
ENDBRANCH   3   7
BRANCH   1  18
HETATM   18  C   UNL     1       4.324  27.728  50.346  1.00  0.00     0.059 A 
HETATM   19  C   UNL     1       4.395  28.943  49.646  1.00  0.00    -0.032 A 
HETATM   20  C   UNL     1       4.285  30.306  50.269  1.00  0.00     0.050 C 
HETATM   21  C   UNL     1       4.611  28.899  48.256  1.00  0.00     0.028 A 
HETATM   22  C   UNL     1       4.810  27.679  47.631  1.00  0.00     0.117 A 
HETATM   23  N   UNL     1       4.815  26.504  48.283  1.00  0.00    -0.271 NA
HETATM   24  C   UNL     1       4.574  26.561  49.614  1.00  0.00     0.146 A 
ENDBRANCH   1  18
TORSDOF 5
ENDMDL
MODEL 5
REMARK VINA RESULT:      -7.9      2.402      3.721
REMARK  5 active torsions:
REMARK  status: ('A' for Active; 'I' for Inactive)
REMARK    1  A    between atoms: C_3  and  N_4 
REMARK       I    between atoms: N_4  and  C_5 
REMARK       I    between atoms: C_5  and  N_6 
REMARK    2  A    between atoms: N_6  and  C_7 
REMARK    3  A    between atoms: C_7  and  C_8 
REMARK    4  A    between atoms: C_8  and  O_9 
REMARK    5  A    between atoms: O_9  and  C_10 
ROOT
HETATM    1  N   UNL     1       7.068  31.232  60.850  1.00  0.00    -0.307 N 
HETATM    2  C   UNL     1       7.822  31.112  59.705  1.00  0.00     0.320 C 
HETATM    3  N   UNL     1       7.971  29.784  59.356  1.00  0.00    -0.340 N 
HETATM    4  O   UNL     1       8.320  32.025  59.067  1.00  0.00    -0.247 OA
HETATM    5  H   UNL     1       7.230  30.483  61.509  1.00  0.00     0.170 HD
HETATM    6  H   UNL     1       7.210  29.203  59.677  1.00  0.00     0.164 HD
ENDROOT
BRANCH   3   7
HETATM    7  C   UNL     1       8.495  29.429  58.040  1.00  0.00     0.156 C 
BRANCH   7   8
HETATM    8  C   UNL     1       7.640  28.428  57.232  1.00  0.00     0.142 C 
HETATM    9  C   UNL     1       6.143  28.651  57.455  1.00  0.00     0.042 C 
BRANCH   8  10
HETATM   10  O   UNL     1       7.889  27.102  57.736  1.00  0.00    -0.345 OA
BRANCH  10  11
HETATM   11  C   UNL     1       7.970  26.061  56.860  1.00  0.00     0.069 A 
HETATM   12  C   UNL     1       7.492  26.046  55.551  1.00  0.00     0.038 A 
HETATM   13  C   UNL     1       7.654  24.902  54.760  1.00  0.00     0.026 A 
HETATM   14  C   UNL     1       8.302  23.781  55.277  1.00  0.00     0.034 A 
HETATM   15 CL   UNL     1       8.496  22.377  54.302  1.00  0.00    -0.084 Cl
HETATM   16  C   UNL     1       8.798  23.794  56.576  1.00  0.00     0.026 A 
HETATM   17  C   UNL     1       8.634  24.936  57.362  1.00  0.00     0.038 A 
ENDBRANCH  10  11
ENDBRANCH   8  10
ENDBRANCH   7   8
ENDBRANCH   3   7
BRANCH   1  18
HETATM   18  C   UNL     1       6.533  32.430  61.383  1.00  0.00     0.059 A 
HETATM   19  C   UNL     1       6.948  33.072  62.561  1.00  0.00    -0.032 A 
HETATM   20  C   UNL     1       8.083  32.619  63.436  1.00  0.00     0.050 C 
HETATM   21  C   UNL     1       6.277  34.244  62.952  1.00  0.00     0.028 A 
HETATM   22  C   UNL     1       5.280  34.767  62.145  1.00  0.00     0.117 A 
HETATM   23  N   UNL     1       4.905  34.214  60.979  1.00  0.00    -0.271 NA
HETATM   24  C   UNL     1       5.539  33.069  60.633  1.00  0.00     0.146 A 
ENDBRANCH   1  18
TORSDOF 5
ENDMDL
MODEL 6
REMARK VINA RESULT:      -7.9      1.713      2.197
REMARK  5 active torsions:
REMARK  status: ('A' for Active; 'I' for Inactive)
REMARK    1  A    between atoms: C_3  and  N_4 
REMARK       I    between atoms: N_4  and  C_5 
REMARK       I    between atoms: C_5  and  N_6 
REMARK    2  A    between atoms: N_6  and  C_7 
REMARK    3  A    between atoms: C_7  and  C_8 
REMARK    4  A    between atoms: C_8  and  O_9 
REMARK    5  A    between atoms: O_9  and  C_10 
ROOT
HETATM    1  N   UNL     1       7.943  28.305  57.115  1.00  0.00    -0.307 N 
HETATM    2  C   UNL     1       7.666  28.146  55.777  1.00  0.00     0.320 C 
HETATM    3  N   UNL     1       6.948  26.987  55.561  1.00  0.00    -0.340 N 
HETATM    4  O   UNL     1       8.004  28.895  54.874  1.00  0.00    -0.247 OA
HETATM    5  H   UNL     1       8.118  27.429  57.588  1.00  0.00     0.170 HD
HETATM    6  H   UNL     1       6.395  26.709  56.359  1.00  0.00     0.164 HD
ENDROOT
BRANCH   3   7
HETATM    7  C   UNL     1       6.312  26.751  54.268  1.00  0.00     0.156 C 
BRANCH   7   8
HETATM    8  C   UNL     1       6.974  25.666  53.390  1.00  0.00     0.142 C 
HETATM    9  C   UNL     1       6.681  25.882  51.903  1.00  0.00     0.042 C 
BRANCH   8  10
HETATM   10  O   UNL     1       6.367  24.396  53.698  1.00  0.00    -0.345 OA
BRANCH  10  11
HETATM   11  C   UNL     1       7.155  23.365  54.114  1.00  0.00     0.069 A 
HETATM   12  C   UNL     1       7.867  22.489  53.296  1.00  0.00     0.038 A 
HETATM   13  C   UNL     1       8.646  21.476  53.867  1.00  0.00     0.026 A 
HETATM   14  C   UNL     1       8.720  21.348  55.253  1.00  0.00     0.034 A 
HETATM   15 CL   UNL     1       9.677  20.100  55.950  1.00  0.00    -0.084 Cl
HETATM   16  C   UNL     1       8.028  22.229  56.077  1.00  0.00     0.026 A 
HETATM   17  C   UNL     1       7.251  23.238  55.504  1.00  0.00     0.038 A 
ENDBRANCH  10  11
ENDBRANCH   8  10
ENDBRANCH   7   8
ENDBRANCH   3   7
BRANCH   1  18
HETATM   18  C   UNL     1       8.468  29.466  57.734  1.00  0.00     0.059 A 
HETATM   19  C   UNL     1       9.783  29.944  57.620  1.00  0.00    -0.032 A 
HETATM   20  C   UNL     1      10.855  29.328  56.765  1.00  0.00     0.050 C 
HETATM   21  C   UNL     1      10.134  31.105  58.334  1.00  0.00     0.028 A 
HETATM   22  C   UNL     1       9.171  31.775  59.070  1.00  0.00     0.117 A 
HETATM   23  N   UNL     1       7.889  31.381  59.147  1.00  0.00    -0.271 NA
HETATM   24  C   UNL     1       7.575  30.245  58.479  1.00  0.00     0.146 A 
ENDBRANCH   1  18
TORSDOF 5
ENDMDL
MODEL 7
REMARK VINA RESULT:      -7.8      6.592     11.272
REMARK  5 active torsions:
REMARK  status: ('A' for Active; 'I' for Inactive)
REMARK    1  A    between atoms: C_3  and  N_4 
REMARK       I    between atoms: N_4  and  C_5 
REMARK       I    between atoms: C_5  and  N_6 
REMARK    2  A    between atoms: N_6  and  C_7 
REMARK    3  A    between atoms: C_7  and  C_8 
REMARK    4  A    between atoms: C_8  and  O_9 
REMARK    5  A    between atoms: O_9  and  C_10 
ROOT
HETATM    1  N   UNL     1       8.105  30.095  59.681  1.00  0.00    -0.307 N 
HETATM    2  C   UNL     1       7.624  31.280  60.186  1.00  0.00     0.320 C 
HETATM    3  N   UNL     1       7.362  31.165  61.537  1.00  0.00    -0.340 N 
HETATM    4  O   UNL     1       7.427  32.308  59.559  1.00  0.00    -0.247 OA
HETATM    5  H   UNL     1       7.687  29.283  60.113  1.00  0.00     0.170 HD
HETATM    6  H   UNL     1       7.933  30.468  61.993  1.00  0.00     0.164 HD
ENDROOT
BRANCH   3   7
HETATM    7  C   UNL     1       7.105  32.359  62.337  1.00  0.00     0.156 C 
BRANCH   7   8
HETATM    8  C   UNL     1       5.831  32.314  63.209  1.00  0.00     0.142 C 
HETATM    9  C   UNL     1       4.596  31.930  62.391  1.00  0.00     0.042 C 
BRANCH   8  10
HETATM   10  O   UNL     1       5.553  33.647  63.681  1.00  0.00    -0.345 OA
BRANCH  10  11
HETATM   11  C   UNL     1       5.480  33.877  65.022  1.00  0.00     0.069 A 
HETATM   12  C   UNL     1       4.313  34.042  65.767  1.00  0.00     0.038 A 
HETATM   13  C   UNL     1       4.391  34.265  67.147  1.00  0.00     0.026 A 
HETATM   14  C   UNL     1       5.632  34.311  67.779  1.00  0.00     0.034 A 
HETATM   15 CL   UNL     1       5.722  34.587  69.475  1.00  0.00    -0.084 Cl
HETATM   16  C   UNL     1       6.800  34.128  67.046  1.00  0.00     0.026 A 
HETATM   17  C   UNL     1       6.719  33.907  65.670  1.00  0.00     0.038 A 
ENDBRANCH  10  11
ENDBRANCH   8  10
ENDBRANCH   7   8
ENDBRANCH   3   7
BRANCH   1  18
HETATM   18  C   UNL     1       8.677  29.897  58.400  1.00  0.00     0.059 A 
HETATM   19  C   UNL     1       8.047  29.306  57.293  1.00  0.00    -0.032 A 
HETATM   20  C   UNL     1       6.622  28.829  57.264  1.00  0.00     0.050 C 
HETATM   21  C   UNL     1       8.786  29.166  56.104  1.00  0.00     0.028 A 
HETATM   22  C   UNL     1      10.075  29.664  56.033  1.00  0.00     0.117 A 
HETATM   23  N   UNL     1      10.683  30.294  57.053  1.00  0.00    -0.271 NA
HETATM   24  C   UNL     1       9.971  30.392  58.201  1.00  0.00     0.146 A 
ENDBRANCH   1  18
TORSDOF 5
ENDMDL
MODEL 8
REMARK VINA RESULT:      -7.7      4.740      8.099
REMARK  5 active torsions:
REMARK  status: ('A' for Active; 'I' for Inactive)
REMARK    1  A    between atoms: C_3  and  N_4 
REMARK       I    between atoms: N_4  and  C_5 
REMARK       I    between atoms: C_5  and  N_6 
REMARK    2  A    between atoms: N_6  and  C_7 
REMARK    3  A    between atoms: C_7  and  C_8 
REMARK    4  A    between atoms: C_8  and  O_9 
REMARK    5  A    between atoms: O_9  and  C_10 
ROOT
HETATM    1  N   UNL     1       7.866  23.718  53.504  1.00  0.00    -0.307 N 
HETATM    2  C   UNL     1       6.714  24.407  53.205  1.00  0.00     0.320 C 
HETATM    3  N   UNL     1       6.858  25.112  52.026  1.00  0.00    -0.340 N 
HETATM    4  O   UNL     1       5.690  24.430  53.870  1.00  0.00    -0.247 OA
HETATM    5  H   UNL     1       8.704  24.216  53.236  1.00  0.00     0.170 HD
HETATM    6  H   UNL     1       7.529  24.697  51.396  1.00  0.00     0.164 HD
ENDROOT
BRANCH   3   7
HETATM    7  C   UNL     1       5.688  25.693  51.374  1.00  0.00     0.156 C 
BRANCH   7   8
HETATM    8  C   UNL     1       5.262  27.085  51.889  1.00  0.00     0.142 C 
HETATM    9  C   UNL     1       4.722  27.968  50.761  1.00  0.00     0.042 C 
BRANCH   8  10
HETATM   10  O   UNL     1       6.434  27.777  52.361  1.00  0.00    -0.345 OA
BRANCH  10  11
HETATM   11  C   UNL     1       6.499  28.165  53.666  1.00  0.00     0.069 A 
HETATM   12  C   UNL     1       5.424  28.554  54.464  1.00  0.00     0.038 A 
HETATM   13  C   UNL     1       5.641  28.921  55.797  1.00  0.00     0.026 A 
HETATM   14  C   UNL     1       6.928  28.888  56.332  1.00  0.00     0.034 A 
HETATM   15 CL   UNL     1       7.189  29.342  57.970  1.00  0.00    -0.084 Cl
HETATM   16  C   UNL     1       8.003  28.483  55.547  1.00  0.00     0.026 A 
HETATM   17  C   UNL     1       7.783  28.118  54.217  1.00  0.00     0.038 A 
ENDBRANCH  10  11
ENDBRANCH   8  10
ENDBRANCH   7   8
ENDBRANCH   3   7
BRANCH   1  18
HETATM   18  C   UNL     1       8.019  22.729  54.507  1.00  0.00     0.059 A 
HETATM   19  C   UNL     1       8.006  21.339  54.309  1.00  0.00    -0.032 A 
HETATM   20  C   UNL     1       7.881  20.658  52.975  1.00  0.00     0.050 C 
HETATM   21  C   UNL     1       8.146  20.506  55.434  1.00  0.00     0.028 A 
HETATM   22  C   UNL     1       8.355  21.067  56.682  1.00  0.00     0.117 A 
HETATM   23  N   UNL     1       8.439  22.391  56.895  1.00  0.00    -0.271 NA
HETATM   24  C   UNL     1       8.271  23.180  55.808  1.00  0.00     0.146 A 
ENDBRANCH   1  18
TORSDOF 5
ENDMDL
MODEL 9
REMARK VINA RESULT:      -7.7      2.990      4.867
REMARK  5 active torsions:
REMARK  status: ('A' for Active; 'I' for Inactive)
REMARK    1  A    between atoms: C_3  and  N_4 
REMARK       I    between atoms: N_4  and  C_5 
REMARK       I    between atoms: C_5  and  N_6 
REMARK    2  A    between atoms: N_6  and  C_7 
REMARK    3  A    between atoms: C_7  and  C_8 
REMARK    4  A    between atoms: C_8  and  O_9 
REMARK    5  A    between atoms: O_9  and  C_10 
ROOT
HETATM    1  N   UNL     1       7.213  31.084  61.739  1.00  0.00    -0.307 N 
HETATM    2  C   UNL     1       7.834  31.401  60.554  1.00  0.00     0.320 C 
HETATM    3  N   UNL     1       7.879  30.303  59.717  1.00  0.00    -0.340 N 
HETATM    4  O   UNL     1       8.307  32.484  60.252  1.00  0.00    -0.247 OA
HETATM    5  H   UNL     1       7.406  30.141  62.047  1.00  0.00     0.170 HD
HETATM    6  H   UNL     1       7.129  29.648  59.883  1.00  0.00     0.164 HD
ENDROOT
BRANCH   3   7
HETATM    7  C   UNL     1       8.244  30.468  58.313  1.00  0.00     0.156 C 
BRANCH   7   8
HETATM    8  C   UNL     1       8.820  29.212  57.624  1.00  0.00     0.142 C 
HETATM    9  C   UNL     1      10.178  29.493  56.974  1.00  0.00     0.042 C 
BRANCH   8  10
HETATM   10  O   UNL     1       7.959  28.858  56.524  1.00  0.00    -0.345 OA
BRANCH  10  11
HETATM   11  C   UNL     1       7.783  27.543  56.212  1.00  0.00     0.069 A 
HETATM   12  C   UNL     1       7.455  27.031  54.958  1.00  0.00     0.038 A 
HETATM   13  C   UNL     1       7.314  25.649  54.783  1.00  0.00     0.026 A 
HETATM   14  C   UNL     1       7.512  24.784  55.858  1.00  0.00     0.034 A 
HETATM   15 CL   UNL     1       7.336  23.087  55.637  1.00  0.00    -0.084 Cl
HETATM   16  C   UNL     1       7.858  25.286  57.108  1.00  0.00     0.026 A 
HETATM   17  C   UNL     1       7.997  26.664  57.279  1.00  0.00     0.038 A 
ENDBRANCH  10  11
ENDBRANCH   8  10
ENDBRANCH   7   8
ENDBRANCH   3   7
BRANCH   1  18
HETATM   18  C   UNL     1       6.796  31.995  62.741  1.00  0.00     0.059 A 
HETATM   19  C   UNL     1       5.483  32.438  62.965  1.00  0.00    -0.032 A 
HETATM   20  C   UNL     1       4.273  31.972  62.204  1.00  0.00     0.050 C 
HETATM   21  C   UNL     1       5.262  33.371  63.994  1.00  0.00     0.028 A 
HETATM   22  C   UNL     1       6.318  33.776  64.793  1.00  0.00     0.117 A 
HETATM   23  N   UNL     1       7.574  33.320  64.648  1.00  0.00    -0.271 NA
HETATM   24  C   UNL     1       7.776  32.447  63.633  1.00  0.00     0.146 A 
ENDBRANCH   1  18
TORSDOF 5
ENDMDL
MODEL 10
REMARK VINA RESULT:      -7.6      3.799      8.578
REMARK  5 active torsions:
REMARK  status: ('A' for Active; 'I' for Inactive)
REMARK    1  A    between atoms: C_3  and  N_4 
REMARK       I    between atoms: N_4  and  C_5 
REMARK       I    between atoms: C_5  and  N_6 
REMARK    2  A    between atoms: N_6  and  C_7 
REMARK    3  A    between atoms: C_7  and  C_8 
REMARK    4  A    between atoms: C_8  and  O_9 
REMARK    5  A    between atoms: O_9  and  C_10 
ROOT
HETATM    1  N   UNL     1       6.106  25.139  54.855  1.00  0.00    -0.307 N 
HETATM    2  C   UNL     1       6.458  26.197  55.660  1.00  0.00     0.320 C 
HETATM    3  N   UNL     1       5.345  26.934  56.014  1.00  0.00    -0.340 N 
HETATM    4  O   UNL     1       7.587  26.488  56.021  1.00  0.00    -0.247 OA
HETATM    5  H   UNL     1       5.344  25.357  54.228  1.00  0.00     0.170 HD
HETATM    6  H   UNL     1       4.496  26.388  56.021  1.00  0.00     0.164 HD
ENDROOT
BRANCH   3   7
HETATM    7  C   UNL     1       5.436  27.933  57.074  1.00  0.00     0.156 C 
BRANCH   7   8
HETATM    8  C   UNL     1       5.525  29.400  56.600  1.00  0.00     0.142 C 
HETATM    9  C   UNL     1       5.048  29.560  55.155  1.00  0.00     0.042 C 
BRANCH   8  10
HETATM   10  O   UNL     1       6.913  29.787  56.568  1.00  0.00    -0.345 OA
BRANCH  10  11
HETATM   11  C   UNL     1       7.472  30.353  57.674  1.00  0.00     0.069 A 
HETATM   12  C   UNL     1       6.831  31.192  58.584  1.00  0.00     0.038 A 
HETATM   13  C   UNL     1       7.533  31.696  59.685  1.00  0.00     0.026 A 
HETATM   14  C   UNL     1       8.870  31.351  59.879  1.00  0.00     0.034 A 
HETATM   15 CL   UNL     1       9.729  31.975  61.233  1.00  0.00    -0.084 Cl
HETATM   16  C   UNL     1       9.512  30.500  58.986  1.00  0.00     0.026 A 
HETATM   17  C   UNL     1       8.809  30.000  57.889  1.00  0.00     0.038 A 
ENDBRANCH  10  11
ENDBRANCH   8  10
ENDBRANCH   7   8
ENDBRANCH   3   7
BRANCH   1  18
HETATM   18  C   UNL     1       6.938  24.056  54.476  1.00  0.00     0.059 A 
HETATM   19  C   UNL     1       7.587  23.903  53.240  1.00  0.00    -0.032 A 
HETATM   20  C   UNL     1       7.554  24.901  52.118  1.00  0.00     0.050 C 
HETATM   21  C   UNL     1       8.353  22.741  53.031  1.00  0.00     0.028 A 
HETATM   22  C   UNL     1       8.500  21.822  54.056  1.00  0.00     0.117 A 
HETATM   23  N   UNL     1       7.946  21.972  55.271  1.00  0.00    -0.271 NA
HETATM   24  C   UNL     1       7.186  23.079  55.446  1.00  0.00     0.146 A 
ENDBRANCH   1  18
TORSDOF 5
ENDMDL
