MODEL 1
REMARK VINA RESULT:      -9.1      0.000      0.000
REMARK  5 active torsions:
REMARK  status: ('A' for Active; 'I' for Inactive)
REMARK    1  A    between atoms: C_2  and  N_3 
REMARK    2  A    between atoms: C_2  and  C_19 
REMARK       I    between atoms: N_3  and  C_4 
REMARK    3  A    between atoms: C_4  and  C_5 
REMARK    4  A    between atoms: C_6  and  O_7 
REMARK    5  A    between atoms: O_7  and  C_8 
ROOT
HETATM    1  C   UNL     1       8.100  22.494  55.567  1.00  0.00     0.065 A 
HETATM    2  C   UNL     1       8.216  22.705  54.187  1.00  0.00     0.091 A 
HETATM    3  C   UNL     1       8.360  21.606  53.329  1.00  0.00     0.038 A 
HETATM    4  C   UNL     1       8.341  20.306  53.839  1.00  0.00     0.003 A 
HETATM    5  C   UNL     1       8.197  20.095  55.209  1.00  0.00     0.001 A 
HETATM    6  C   UNL     1       8.078  21.184  56.073  1.00  0.00     0.020 A 
ENDROOT
BRANCH   1   7
HETATM    7  C   UNL     1       7.954  23.634  56.505  1.00  0.00     0.255 C 
HETATM    8  N   UNL     1       6.798  24.372  56.358  1.00  0.00    -0.348 N 
HETATM    9  H   UNL     1       6.059  24.021  55.762  1.00  0.00     0.163 HD
HETATM   10  O   UNL     1       8.825  23.893  57.326  1.00  0.00    -0.268 OA
BRANCH   8  11
HETATM   11  C   UNL     1       6.480  25.487  57.243  1.00  0.00     0.115 C 
HETATM   12  C   UNL     1       4.959  25.575  57.401  1.00  0.00     0.037 C 
BRANCH  11  13
HETATM   13  C   UNL     1       7.163  26.746  56.746  1.00  0.00    -0.018 A 
HETATM   14  C   UNL     1       8.033  27.514  57.515  1.00  0.00     0.125 A 
HETATM   15  N   UNL     1       8.670  28.627  57.078  1.00  0.00    -0.273 NA
HETATM   16  C   UNL     1       8.444  28.997  55.801  1.00  0.00     0.116 A 
HETATM   17  C   UNL     1       7.611  28.307  54.941  1.00  0.00     0.020 A 
HETATM   18  C   UNL     1       6.971  27.168  55.420  1.00  0.00     0.012 A 
ENDBRANCH  11  13
ENDBRANCH   8  11
ENDBRANCH   1   7
BRANCH   2  19
HETATM   19  O   UNL     1       8.300  23.993  53.705  1.00  0.00    -0.310 OA
BRANCH  19  20
HETATM   20  C   UNL     1       7.206  24.483  53.026  1.00  0.00     0.076 A 
HETATM   21  C   UNL     1       5.893  24.222  53.425  1.00  0.00     0.037 A 
HETATM   22  C   UNL     1       4.829  24.763  52.701  1.00  0.00     0.003 A 
HETATM   23  C   UNL     1       5.078  25.580  51.597  1.00  0.00     0.000 A 
HETATM   24  C   UNL     1       6.392  25.866  51.221  1.00  0.00     0.003 A 
HETATM   25  C   UNL     1       7.456  25.324  51.941  1.00  0.00     0.037 A 
ENDBRANCH  19  20
ENDBRANCH   2  19
TORSDOF 5
ENDMDL
MODEL 2
REMARK VINA RESULT:      -8.5      2.479      6.806
REMARK  5 active torsions:
REMARK  status: ('A' for Active; 'I' for Inactive)
REMARK    1  A    between atoms: C_2  and  N_3 
REMARK    2  A    between atoms: C_2  and  C_19 
REMARK       I    between atoms: N_3  and  C_4 
REMARK    3  A    between atoms: C_4  and  C_5 
REMARK    4  A    between atoms: C_6  and  O_7 
REMARK    5  A    between atoms: O_7  and  C_8 
ROOT
HETATM    1  C   UNL     1       5.565  27.466  56.151  1.00  0.00     0.065 A 
HETATM    2  C   UNL     1       6.074  28.562  56.859  1.00  0.00     0.091 A 
HETATM    3  C   UNL     1       5.752  29.862  56.446  1.00  0.00     0.038 A 
HETATM    4  C   UNL     1       4.891  30.066  55.365  1.00  0.00     0.003 A 
HETATM    5  C   UNL     1       4.363  28.976  54.678  1.00  0.00     0.001 A 
HETATM    6  C   UNL     1       4.697  27.678  55.067  1.00  0.00     0.020 A 
ENDROOT
BRANCH   1   7
HETATM    7  C   UNL     1       5.892  26.076  56.555  1.00  0.00     0.255 C 
HETATM    8  N   UNL     1       7.146  25.636  56.185  1.00  0.00    -0.348 N 
HETATM    9  H   UNL     1       7.818  26.301  55.824  1.00  0.00     0.163 HD
HETATM   10  O   UNL     1       5.078  25.384  57.152  1.00  0.00    -0.268 OA
BRANCH   8  11
HETATM   11  C   UNL     1       7.638  24.315  56.561  1.00  0.00     0.115 C 
HETATM   12  C   UNL     1       8.925  24.479  57.373  1.00  0.00     0.037 C 
BRANCH  11  13
HETATM   13  C   UNL     1       7.746  23.440  55.326  1.00  0.00    -0.018 A 
HETATM   14  C   UNL     1       7.743  22.048  55.359  1.00  0.00     0.125 A 
HETATM   15  N   UNL     1       7.815  21.253  54.264  1.00  0.00    -0.273 NA
HETATM   16  C   UNL     1       7.880  21.868  53.066  1.00  0.00     0.116 A 
HETATM   17  C   UNL     1       7.878  23.241  52.910  1.00  0.00     0.020 A 
HETATM   18  C   UNL     1       7.804  24.031  54.054  1.00  0.00     0.012 A 
ENDBRANCH  11  13
ENDBRANCH   8  11
ENDBRANCH   1   7
BRANCH   2  19
HETATM   19  O   UNL     1       6.974  28.348  57.881  1.00  0.00    -0.310 OA
BRANCH  19  20
HETATM   20  C   UNL     1       8.165  29.038  57.826  1.00  0.00     0.076 A 
HETATM   21  C   UNL     1       8.501  30.036  58.743  1.00  0.00     0.037 A 
HETATM   22  C   UNL     1       9.732  30.685  58.640  1.00  0.00     0.003 A 
HETATM   23  C   UNL     1      10.632  30.322  57.636  1.00  0.00     0.000 A 
HETATM   24  C   UNL     1      10.306  29.302  56.741  1.00  0.00     0.003 A 
HETATM   25  C   UNL     1       9.075  28.654  56.841  1.00  0.00     0.037 A 
ENDBRANCH  19  20
ENDBRANCH   2  19
TORSDOF 5
ENDMDL
MODEL 3
REMARK VINA RESULT:      -8.3      1.765      4.315
REMARK  5 active torsions:
REMARK  status: ('A' for Active; 'I' for Inactive)
REMARK    1  A    between atoms: C_2  and  N_3 
REMARK    2  A    between atoms: C_2  and  C_19 
REMARK       I    between atoms: N_3  and  C_4 
REMARK    3  A    between atoms: C_4  and  C_5 
REMARK    4  A    between atoms: C_6  and  O_7 
REMARK    5  A    between atoms: O_7  and  C_8 
ROOT
HETATM    1  C   UNL     1       6.165  26.272  54.038  1.00  0.00     0.065 A 
HETATM    2  C   UNL     1       7.080  25.426  53.399  1.00  0.00     0.091 A 
HETATM    3  C   UNL     1       6.915  25.131  52.038  1.00  0.00     0.038 A 
HETATM    4  C   UNL     1       5.874  25.713  51.312  1.00  0.00     0.003 A 
HETATM    5  C   UNL     1       4.981  26.578  51.941  1.00  0.00     0.001 A 
HETATM    6  C   UNL     1       5.123  26.858  53.301  1.00  0.00     0.020 A 
ENDROOT
BRANCH   1   7
HETATM    7  C   UNL     1       6.304  26.600  55.479  1.00  0.00     0.255 C 
HETATM    8  N   UNL     1       6.845  27.838  55.751  1.00  0.00    -0.348 N 
HETATM    9  H   UNL     1       6.960  28.505  54.997  1.00  0.00     0.163 HD
HETATM   10  O   UNL     1       5.975  25.798  56.344  1.00  0.00    -0.268 OA
BRANCH   8  11
HETATM   11  C   UNL     1       6.991  28.331  57.115  1.00  0.00     0.115 C 
HETATM   12  C   UNL     1       5.713  29.077  57.511  1.00  0.00     0.037 C 
BRANCH  11  13
HETATM   13  C   UNL     1       8.279  29.122  57.239  1.00  0.00    -0.018 A 
HETATM   14  C   UNL     1       8.650  29.827  58.380  1.00  0.00     0.125 A 
HETATM   15  N   UNL     1       9.808  30.518  58.515  1.00  0.00    -0.273 NA
HETATM   16  C   UNL     1      10.655  30.501  57.466  1.00  0.00     0.116 A 
HETATM   17  C   UNL     1      10.399  29.827  56.287  1.00  0.00     0.020 A 
HETATM   18  C   UNL     1       9.201  29.127  56.180  1.00  0.00     0.012 A 
ENDBRANCH  11  13
ENDBRANCH   8  11
ENDBRANCH   1   7
BRANCH   2  19
HETATM   19  O   UNL     1       8.061  24.806  54.142  1.00  0.00    -0.310 OA
BRANCH  19  20
HETATM   20  C   UNL     1       8.005  23.433  54.238  1.00  0.00     0.076 A 
HETATM   21  C   UNL     1       8.270  22.592  53.155  1.00  0.00     0.037 A 
HETATM   22  C   UNL     1       8.212  21.207  53.324  1.00  0.00     0.003 A 
HETATM   23  C   UNL     1       7.913  20.668  54.575  1.00  0.00     0.000 A 
HETATM   24  C   UNL     1       7.681  21.511  55.663  1.00  0.00     0.003 A 
HETATM   25  C   UNL     1       7.735  22.894  55.496  1.00  0.00     0.037 A 
ENDBRANCH  19  20
ENDBRANCH   2  19
TORSDOF 5
ENDMDL
MODEL 4
REMARK VINA RESULT:      -8.2      1.896      2.576
REMARK  5 active torsions:
REMARK  status: ('A' for Active; 'I' for Inactive)
REMARK    1  A    between atoms: C_2  and  N_3 
REMARK    2  A    between atoms: C_2  and  C_19 
REMARK       I    between atoms: N_3  and  C_4 
REMARK    3  A    between atoms: C_4  and  C_5 
REMARK    4  A    between atoms: C_6  and  O_7 
REMARK    5  A    between atoms: O_7  and  C_8 
ROOT
HETATM    1  C   UNL     1       7.375  24.456  55.520  1.00  0.00     0.065 A 
HETATM    2  C   UNL     1       6.630  24.228  54.357  1.00  0.00     0.091 A 
HETATM    3  C   UNL     1       7.113  23.335  53.390  1.00  0.00     0.038 A 
HETATM    4  C   UNL     1       8.306  22.641  53.605  1.00  0.00     0.003 A 
HETATM    5  C   UNL     1       9.033  22.846  54.776  1.00  0.00     0.001 A 
HETATM    6  C   UNL     1       8.572  23.752  55.733  1.00  0.00     0.020 A 
ENDROOT
BRANCH   1   7
HETATM    7  C   UNL     1       6.898  25.400  56.561  1.00  0.00     0.255 C 
HETATM    8  N   UNL     1       7.342  26.698  56.426  1.00  0.00    -0.348 N 
HETATM    9  H   UNL     1       7.811  26.975  55.572  1.00  0.00     0.163 HD
HETATM   10  O   UNL     1       6.180  25.020  57.478  1.00  0.00    -0.268 OA
BRANCH   8  11
HETATM   11  C   UNL     1       6.913  27.756  57.333  1.00  0.00     0.115 C 
HETATM   12  C   UNL     1       5.616  28.371  56.799  1.00  0.00     0.037 C 
BRANCH  11  13
HETATM   13  C   UNL     1       8.055  28.728  57.563  1.00  0.00    -0.018 A 
HETATM   14  C   UNL     1       8.043  29.724  58.534  1.00  0.00     0.125 A 
HETATM   15  N   UNL     1       9.064  30.584  58.768  1.00  0.00    -0.273 NA
HETATM   16  C   UNL     1      10.168  30.442  58.005  1.00  0.00     0.116 A 
HETATM   17  C   UNL     1      10.298  29.483  57.019  1.00  0.00     0.020 A 
HETATM   18  C   UNL     1       9.231  28.615  56.803  1.00  0.00     0.012 A 
ENDBRANCH  11  13
ENDBRANCH   8  11
ENDBRANCH   1   7
BRANCH   2  19
HETATM   19  O   UNL     1       5.490  24.968  54.127  1.00  0.00    -0.310 OA
BRANCH  19  20
HETATM   20  C   UNL     1       5.481  25.780  53.015  1.00  0.00     0.076 A 
HETATM   21  C   UNL     1       5.081  25.327  51.755  1.00  0.00     0.037 A 
HETATM   22  C   UNL     1       5.080  26.207  50.672  1.00  0.00     0.003 A 
HETATM   23  C   UNL     1       5.455  27.539  50.853  1.00  0.00     0.000 A 
HETATM   24  C   UNL     1       5.822  27.996  52.119  1.00  0.00     0.003 A 
HETATM   25  C   UNL     1       5.827  27.118  53.202  1.00  0.00     0.037 A 
ENDBRANCH  19  20
ENDBRANCH   2  19
TORSDOF 5
ENDMDL
MODEL 5
REMARK VINA RESULT:      -7.9      1.850      5.428
REMARK  5 active torsions:
REMARK  status: ('A' for Active; 'I' for Inactive)
REMARK    1  A    between atoms: C_2  and  N_3 
REMARK    2  A    between atoms: C_2  and  C_19 
REMARK       I    between atoms: N_3  and  C_4 
REMARK    3  A    between atoms: C_4  and  C_5 
REMARK    4  A    between atoms: C_6  and  O_7 
REMARK    5  A    between atoms: O_7  and  C_8 
ROOT
HETATM    1  C   UNL     1       7.307  26.655  56.529  1.00  0.00     0.065 A 
HETATM    2  C   UNL     1       6.530  27.471  55.698  1.00  0.00     0.091 A 
HETATM    3  C   UNL     1       6.913  28.802  55.482  1.00  0.00     0.038 A 
HETATM    4  C   UNL     1       8.087  29.300  56.054  1.00  0.00     0.003 A 
HETATM    5  C   UNL     1       8.875  28.479  56.857  1.00  0.00     0.001 A 
HETATM    6  C   UNL     1       8.488  27.160  57.097  1.00  0.00     0.020 A 
ENDROOT
BRANCH   1   7
HETATM    7  C   UNL     1       6.928  25.243  56.786  1.00  0.00     0.255 C 
HETATM    8  N   UNL     1       7.787  24.299  56.263  1.00  0.00    -0.348 N 
HETATM    9  H   UNL     1       8.682  24.595  55.894  1.00  0.00     0.163 HD
HETATM   10  O   UNL     1       5.906  24.965  57.400  1.00  0.00    -0.268 OA
BRANCH   8  11
HETATM   11  C   UNL     1       7.584  22.871  56.481  1.00  0.00     0.115 C 
HETATM   12  C   UNL     1       8.418  22.431  57.688  1.00  0.00     0.037 C 
BRANCH  11  13
HETATM   13  C   UNL     1       7.843  22.115  55.192  1.00  0.00    -0.018 A 
HETATM   14  C   UNL     1       8.162  20.762  55.136  1.00  0.00     0.125 A 
HETATM   15  N   UNL     1       8.372  20.067  53.992  1.00  0.00    -0.273 NA
HETATM   16  C   UNL     1       8.248  20.746  52.834  1.00  0.00     0.116 A 
HETATM   17  C   UNL     1       7.924  22.088  52.765  1.00  0.00     0.020 A 
HETATM   18  C   UNL     1       7.714  22.774  53.958  1.00  0.00     0.012 A 
ENDBRANCH  11  13
ENDBRANCH   8  11
ENDBRANCH   1   7
BRANCH   2  19
HETATM   19  O   UNL     1       5.341  26.988  55.195  1.00  0.00    -0.310 OA
BRANCH  19  20
HETATM   20  C   UNL     1       5.327  26.604  53.872  1.00  0.00     0.076 A 
HETATM   21  C   UNL     1       5.629  27.484  52.830  1.00  0.00     0.037 A 
HETATM   22  C   UNL     1       5.613  27.026  51.511  1.00  0.00     0.003 A 
HETATM   23  C   UNL     1       5.317  25.689  51.239  1.00  0.00     0.000 A 
HETATM   24  C   UNL     1       5.048  24.806  52.286  1.00  0.00     0.003 A 
HETATM   25  C   UNL     1       5.061  25.261  53.603  1.00  0.00     0.037 A 
ENDBRANCH  19  20
ENDBRANCH   2  19
TORSDOF 5
ENDMDL
MODEL 6
REMARK VINA RESULT:      -7.9      2.437      7.002
REMARK  5 active torsions:
REMARK  status: ('A' for Active; 'I' for Inactive)
REMARK    1  A    between atoms: C_2  and  N_3 
REMARK    2  A    between atoms: C_2  and  C_19 
REMARK       I    between atoms: N_3  and  C_4 
REMARK    3  A    between atoms: C_4  and  C_5 
REMARK    4  A    between atoms: C_6  and  O_7 
REMARK    5  A    between atoms: O_7  and  C_8 
ROOT
HETATM    1  C   UNL     1       6.104  28.169  55.298  1.00  0.00     0.065 A 
HETATM    2  C   UNL     1       6.337  28.461  56.648  1.00  0.00     0.091 A 
HETATM    3  C   UNL     1       5.448  29.298  57.337  1.00  0.00     0.038 A 
HETATM    4  C   UNL     1       4.312  29.800  56.698  1.00  0.00     0.003 A 
HETATM    5  C   UNL     1       4.066  29.486  55.363  1.00  0.00     0.001 A 
HETATM    6  C   UNL     1       4.958  28.673  54.662  1.00  0.00     0.020 A 
ENDROOT
BRANCH   1   7
HETATM    7  C   UNL     1       7.028  27.293  54.535  1.00  0.00     0.255 C 
HETATM    8  N   UNL     1       6.872  25.941  54.755  1.00  0.00    -0.348 N 
HETATM    9  H   UNL     1       6.064  25.613  55.270  1.00  0.00     0.163 HD
HETATM   10  O   UNL     1       7.875  27.766  53.789  1.00  0.00    -0.268 OA
BRANCH   8  11
HETATM   11  C   UNL     1       7.663  24.949  54.036  1.00  0.00     0.115 C 
HETATM   12  C   UNL     1       6.978  24.643  52.700  1.00  0.00     0.037 C 
BRANCH  11  13
HETATM   13  C   UNL     1       7.920  23.752  54.931  1.00  0.00    -0.018 A 
HETATM   14  C   UNL     1       8.229  23.848  56.285  1.00  0.00     0.125 A 
HETATM   15  N   UNL     1       8.437  22.788  57.104  1.00  0.00    -0.273 NA
HETATM   16  C   UNL     1       8.320  21.562  56.556  1.00  0.00     0.116 A 
HETATM   17  C   UNL     1       8.006  21.344  55.228  1.00  0.00     0.020 A 
HETATM   18  C   UNL     1       7.799  22.452  54.413  1.00  0.00     0.012 A 
ENDBRANCH  11  13
ENDBRANCH   8  11
ENDBRANCH   1   7
BRANCH   2  19
HETATM   19  O   UNL     1       7.495  28.014  57.247  1.00  0.00    -0.310 OA
BRANCH  19  20
HETATM   20  C   UNL     1       8.502  28.935  57.433  1.00  0.00     0.076 A 
HETATM   21  C   UNL     1       9.511  29.149  56.490  1.00  0.00     0.037 A 
HETATM   22  C   UNL     1      10.493  30.110  56.734  1.00  0.00     0.003 A 
HETATM   23  C   UNL     1      10.455  30.868  57.905  1.00  0.00     0.000 A 
HETATM   24  C   UNL     1       9.427  30.674  58.830  1.00  0.00     0.003 A 
HETATM   25  C   UNL     1       8.446  29.713  58.590  1.00  0.00     0.037 A 
ENDBRANCH  19  20
ENDBRANCH   2  19
TORSDOF 5
ENDMDL
MODEL 7
REMARK VINA RESULT:      -7.7      6.094      9.180
REMARK  5 active torsions:
REMARK  status: ('A' for Active; 'I' for Inactive)
REMARK    1  A    between atoms: C_2  and  N_3 
REMARK    2  A    between atoms: C_2  and  C_19 
REMARK       I    between atoms: N_3  and  C_4 
REMARK    3  A    between atoms: C_4  and  C_5 
REMARK    4  A    between atoms: C_6  and  O_7 
REMARK    5  A    between atoms: O_7  and  C_8 
ROOT
HETATM    1  C   UNL     1       5.899  31.386  58.661  1.00  0.00     0.065 A 
HETATM    2  C   UNL     1       6.070  30.149  58.026  1.00  0.00     0.091 A 
HETATM    3  C   UNL     1       5.092  29.690  57.132  1.00  0.00     0.038 A 
HETATM    4  C   UNL     1       3.977  30.479  56.841  1.00  0.00     0.003 A 
HETATM    5  C   UNL     1       3.822  31.722  57.451  1.00  0.00     0.001 A 
HETATM    6  C   UNL     1       4.778  32.176  58.360  1.00  0.00     0.020 A 
ENDROOT
BRANCH   1   7
HETATM    7  C   UNL     1       6.910  31.899  59.618  1.00  0.00     0.255 C 
HETATM    8  N   UNL     1       6.800  31.417  60.905  1.00  0.00    -0.348 N 
HETATM    9  H   UNL     1       6.173  30.645  61.093  1.00  0.00     0.163 HD
HETATM   10  O   UNL     1       7.757  32.712  59.268  1.00  0.00    -0.268 OA
BRANCH   8  11
HETATM   11  C   UNL     1       7.754  31.781  61.947  1.00  0.00     0.115 C 
HETATM   12  C   UNL     1       8.608  30.555  62.285  1.00  0.00     0.037 C 
BRANCH  11  13
HETATM   13  C   UNL     1       7.021  32.414  63.114  1.00  0.00    -0.018 A 
HETATM   14  C   UNL     1       5.648  32.308  63.319  1.00  0.00     0.125 A 
HETATM   15  N   UNL     1       4.983  32.847  64.368  1.00  0.00    -0.273 NA
HETATM   16  C   UNL     1       5.718  33.520  65.277  1.00  0.00     0.116 A 
HETATM   17  C   UNL     1       7.088  33.681  65.184  1.00  0.00     0.020 A 
HETATM   18  C   UNL     1       7.742  33.116  64.094  1.00  0.00     0.012 A 
ENDBRANCH  11  13
ENDBRANCH   8  11
ENDBRANCH   1   7
BRANCH   2  19
HETATM   19  O   UNL     1       7.139  29.352  58.373  1.00  0.00    -0.310 OA
BRANCH  19  20
HETATM   20  C   UNL     1       8.277  29.456  57.603  1.00  0.00     0.076 A 
HETATM   21  C   UNL     1       8.287  29.186  56.233  1.00  0.00     0.037 A 
HETATM   22  C   UNL     1       9.472  29.327  55.508  1.00  0.00     0.003 A 
HETATM   23  C   UNL     1      10.635  29.758  56.147  1.00  0.00     0.000 A 
HETATM   24  C   UNL     1      10.614  30.058  57.510  1.00  0.00     0.003 A 
HETATM   25  C   UNL     1       9.432  29.915  58.237  1.00  0.00     0.037 A 
ENDBRANCH  19  20
ENDBRANCH   2  19
TORSDOF 5
ENDMDL
MODEL 8
REMARK VINA RESULT:      -7.7      2.211      4.547
REMARK  5 active torsions:
REMARK  status: ('A' for Active; 'I' for Inactive)
REMARK    1  A    between atoms: C_2  and  N_3 
REMARK    2  A    between atoms: C_2  and  C_19 
REMARK       I    between atoms: N_3  and  C_4 
REMARK    3  A    between atoms: C_4  and  C_5 
REMARK    4  A    between atoms: C_6  and  O_7 
REMARK    5  A    between atoms: O_7  and  C_8 
ROOT
HETATM    1  C   UNL     1       6.645  27.055  53.232  1.00  0.00     0.065 A 
HETATM    2  C   UNL     1       7.094  25.893  52.591  1.00  0.00     0.091 A 
HETATM    3  C   UNL     1       6.354  25.362  51.525  1.00  0.00     0.038 A 
HETATM    4  C   UNL     1       5.202  26.010  51.074  1.00  0.00     0.003 A 
HETATM    5  C   UNL     1       4.771  27.181  51.694  1.00  0.00     0.001 A 
HETATM    6  C   UNL     1       5.488  27.704  52.771  1.00  0.00     0.020 A 
ENDROOT
BRANCH   1   7
HETATM    7  C   UNL     1       7.399  27.641  54.368  1.00  0.00     0.255 C 
HETATM    8  N   UNL     1       6.994  27.227  55.619  1.00  0.00    -0.348 N 
HETATM    9  H   UNL     1       6.347  26.452  55.699  1.00  0.00     0.163 HD
HETATM   10  O   UNL     1       8.298  28.451  54.179  1.00  0.00    -0.268 OA
BRANCH   8  11
HETATM   11  C   UNL     1       7.674  27.666  56.832  1.00  0.00     0.115 C 
HETATM   12  C   UNL     1       7.751  26.490  57.810  1.00  0.00     0.037 C 
BRANCH  11  13
HETATM   13  C   UNL     1       7.010  28.922  57.365  1.00  0.00    -0.018 A 
HETATM   14  C   UNL     1       7.694  29.946  58.013  1.00  0.00     0.125 A 
HETATM   15  N   UNL     1       7.121  31.084  58.473  1.00  0.00    -0.273 NA
HETATM   16  C   UNL     1       5.795  31.225  58.268  1.00  0.00     0.116 A 
HETATM   17  C   UNL     1       5.015  30.281  57.627  1.00  0.00     0.020 A 
HETATM   18  C   UNL     1       5.634  29.122  57.167  1.00  0.00     0.012 A 
ENDBRANCH  11  13
ENDBRANCH   8  11
ENDBRANCH   1   7
BRANCH   2  19
HETATM   19  O   UNL     1       8.194  25.228  53.088  1.00  0.00    -0.310 OA
BRANCH  19  20
HETATM   20  C   UNL     1       7.989  23.963  53.593  1.00  0.00     0.076 A 
HETATM   21  C   UNL     1       8.136  22.810  52.818  1.00  0.00     0.037 A 
HETATM   22  C   UNL     1       7.929  21.557  53.397  1.00  0.00     0.003 A 
HETATM   23  C   UNL     1       7.598  21.457  54.749  1.00  0.00     0.000 A 
HETATM   24  C   UNL     1       7.484  22.610  55.528  1.00  0.00     0.003 A 
HETATM   25  C   UNL     1       7.688  23.863  54.951  1.00  0.00     0.037 A 
ENDBRANCH  19  20
ENDBRANCH   2  19
TORSDOF 5
ENDMDL
MODEL 9
REMARK VINA RESULT:      -7.7      2.635      6.129
REMARK  5 active torsions:
REMARK  status: ('A' for Active; 'I' for Inactive)
REMARK    1  A    between atoms: C_2  and  N_3 
REMARK    2  A    between atoms: C_2  and  C_19 
REMARK       I    between atoms: N_3  and  C_4 
REMARK    3  A    between atoms: C_4  and  C_5 
REMARK    4  A    between atoms: C_6  and  O_7 
REMARK    5  A    between atoms: O_7  and  C_8 
ROOT
HETATM    1  C   UNL     1       7.277  27.581  55.721  1.00  0.00     0.065 A 
HETATM    2  C   UNL     1       6.044  28.033  56.207  1.00  0.00     0.091 A 
HETATM    3  C   UNL     1       6.003  28.792  57.386  1.00  0.00     0.038 A 
HETATM    4  C   UNL     1       7.185  29.134  58.046  1.00  0.00     0.003 A 
HETATM    5  C   UNL     1       8.413  28.708  57.546  1.00  0.00     0.001 A 
HETATM    6  C   UNL     1       8.462  27.932  56.387  1.00  0.00     0.020 A 
ENDROOT
BRANCH   1   7
HETATM    7  C   UNL     1       7.358  26.770  54.480  1.00  0.00     0.255 C 
HETATM    8  N   UNL     1       7.015  25.442  54.623  1.00  0.00    -0.348 N 
HETATM    9  H   UNL     1       6.582  25.131  55.484  1.00  0.00     0.163 HD
HETATM   10  O   UNL     1       7.729  27.266  53.424  1.00  0.00    -0.268 OA
BRANCH   8  11
HETATM   11  C   UNL     1       6.987  24.529  53.486  1.00  0.00     0.115 C 
HETATM   12  C   UNL     1       5.616  24.625  52.809  1.00  0.00     0.037 C 
BRANCH  11  13
HETATM   13  C   UNL     1       7.403  23.141  53.933  1.00  0.00    -0.018 A 
HETATM   14  C   UNL     1       7.388  22.715  55.259  1.00  0.00     0.125 A 
HETATM   15  N   UNL     1       7.733  21.472  55.672  1.00  0.00    -0.273 NA
HETATM   16  C   UNL     1       8.103  20.593  54.718  1.00  0.00     0.116 A 
HETATM   17  C   UNL     1       8.145  20.898  53.371  1.00  0.00     0.020 A 
HETATM   18  C   UNL     1       7.785  22.184  52.979  1.00  0.00     0.012 A 
ENDBRANCH  11  13
ENDBRANCH   8  11
ENDBRANCH   1   7
BRANCH   2  19
HETATM   19  O   UNL     1       4.882  27.633  55.584  1.00  0.00    -0.310 OA
BRANCH  19  20
HETATM   20  C   UNL     1       4.352  28.480  54.637  1.00  0.00     0.076 A 
HETATM   21  C   UNL     1       4.262  29.861  54.828  1.00  0.00     0.037 A 
HETATM   22  C   UNL     1       3.728  30.666  53.820  1.00  0.00     0.003 A 
HETATM   23  C   UNL     1       3.307  30.094  52.619  1.00  0.00     0.000 A 
HETATM   24  C   UNL     1       3.429  28.718  52.418  1.00  0.00     0.003 A 
HETATM   25  C   UNL     1       3.959  27.912  53.425  1.00  0.00     0.037 A 
ENDBRANCH  19  20
ENDBRANCH   2  19
TORSDOF 5
ENDMDL
MODEL 10
REMARK VINA RESULT:      -7.7      2.719      5.241
REMARK  5 active torsions:
REMARK  status: ('A' for Active; 'I' for Inactive)
REMARK    1  A    between atoms: C_2  and  N_3 
REMARK    2  A    between atoms: C_2  and  C_19 
REMARK       I    between atoms: N_3  and  C_4 
REMARK    3  A    between atoms: C_4  and  C_5 
REMARK    4  A    between atoms: C_6  and  O_7 
REMARK    5  A    between atoms: O_7  and  C_8 
ROOT
HETATM    1  C   UNL     1       5.102  28.278  54.013  1.00  0.00     0.065 A 
HETATM    2  C   UNL     1       6.042  27.819  53.081  1.00  0.00     0.091 A 
HETATM    3  C   UNL     1       5.687  27.731  51.727  1.00  0.00     0.038 A 
HETATM    4  C   UNL     1       4.422  28.143  51.302  1.00  0.00     0.003 A 
HETATM    5  C   UNL     1       3.498  28.626  52.225  1.00  0.00     0.001 A 
HETATM    6  C   UNL     1       3.833  28.694  53.578  1.00  0.00     0.020 A 
ENDROOT
BRANCH   1   7
HETATM    7  C   UNL     1       5.441  28.376  55.455  1.00  0.00     0.255 C 
HETATM    8  N   UNL     1       6.362  29.350  55.777  1.00  0.00    -0.348 N 
HETATM    9  H   UNL     1       6.627  30.032  55.078  1.00  0.00     0.163 HD
HETATM   10  O   UNL     1       4.939  27.617  56.274  1.00  0.00    -0.268 OA
BRANCH   8  11
HETATM   11  C   UNL     1       6.753  29.611  57.158  1.00  0.00     0.115 C 
HETATM   12  C   UNL     1       5.859  30.717  57.725  1.00  0.00     0.037 C 
BRANCH  11  13
HETATM   13  C   UNL     1       8.246  29.872  57.226  1.00  0.00    -0.018 A 
HETATM   14  C   UNL     1       8.865  30.569  58.260  1.00  0.00     0.125 A 
HETATM   15  N   UNL     1      10.199  30.790  58.348  1.00  0.00    -0.273 NA
HETATM   16  C   UNL     1      10.968  30.282  57.363  1.00  0.00     0.116 A 
HETATM   17  C   UNL     1      10.467  29.564  56.294  1.00  0.00     0.020 A 
HETATM   18  C   UNL     1       9.092  29.355  56.232  1.00  0.00     0.012 A 
ENDBRANCH  11  13
ENDBRANCH   8  11
ENDBRANCH   1   7
BRANCH   2  19
HETATM   19  O   UNL     1       7.262  27.354  53.523  1.00  0.00    -0.310 OA
BRANCH  19  20
HETATM   20  C   UNL     1       7.441  25.988  53.554  1.00  0.00     0.076 A 
HETATM   21  C   UNL     1       7.745  25.243  52.413  1.00  0.00     0.037 A 
HETATM   22  C   UNL     1       7.930  23.863  52.517  1.00  0.00     0.003 A 
HETATM   23  C   UNL     1       7.833  23.236  53.760  1.00  0.00     0.000 A 
HETATM   24  C   UNL     1       7.561  23.989  54.903  1.00  0.00     0.003 A 
HETATM   25  C   UNL     1       7.373  25.367  54.801  1.00  0.00     0.037 A 
ENDBRANCH  19  20
ENDBRANCH   2  19
TORSDOF 5
ENDMDL
