MODEL 1
REMARK VINA RESULT:      -9.2      0.000      0.000
REMARK  12 active torsions:
REMARK  status: ('A' for Active; 'I' for Inactive)
REMARK    1  A    between atoms: C_2  and  C_3 
REMARK    2  A    between atoms: C_3  and  N_4 
REMARK    3  A    between atoms: C_3  and  C_25 
REMARK    4  A    between atoms: N_4  and  C_6 
REMARK    5  A    between atoms: N_4  and  C_21 
REMARK    6  A    between atoms: C_6  and  C_7 
REMARK    7  A    between atoms: C_8  and  O_9 
REMARK    8  A    between atoms: C_21  and  C_22 
REMARK    9  A    between atoms: C_22  and  C_23 
REMARK   10  A    between atoms: C_23  and  O_24 
REMARK   11  A    between atoms: N_26  and  C_27 
REMARK   12  A    between atoms: C_27  and  C_28 
ROOT
HETATM    1  N   UNL     1       7.258  28.125  55.405  1.00  0.00    -0.055 N 
HETATM    2  H   UNL     1       6.454  28.759  55.405  1.00  0.00     0.281 HD
ENDROOT
BRANCH   1   3
HETATM    3  C   UNL     1       6.714  26.797  55.974  1.00  0.00     0.263 C 
BRANCH   3   4
HETATM    4  C   UNL     1       5.410  26.950  56.821  1.00  0.00     0.016 C 
HETATM    5  C   UNL     1       4.763  25.605  57.176  1.00  0.00     0.012 C 
HETATM    6  C   UNL     1       4.337  27.907  56.293  1.00  0.00     0.012 C 
ENDBRANCH   3   4
BRANCH   3   7
HETATM    7  C   UNL     1       7.699  25.871  56.610  1.00  0.00     0.168 A 
HETATM    8  N   UNL     1       8.270  24.765  56.023  1.00  0.00    -0.257 N 
HETATM    9  N   UNL     1       9.057  24.139  56.912  1.00  0.00    -0.003 NA
HETATM   10  N   UNL     1       8.974  24.850  58.021  1.00  0.00     0.018 NA
HETATM   11  N   UNL     1       8.134  25.912  57.853  1.00  0.00    -0.145 NA
BRANCH   8  12
HETATM   12  C   UNL     1       8.146  24.230  54.679  1.00  0.00     0.186 C 
BRANCH  12  13
HETATM   13  C   UNL     1       8.262  22.723  54.638  1.00  0.00    -0.039 A 
HETATM   14  C   UNL     1       7.735  21.908  55.655  1.00  0.00     0.009 A 
HETATM   15  C   UNL     1       7.782  20.517  55.552  1.00  0.00     0.001 A 
HETATM   16  C   UNL     1       8.336  19.918  54.424  1.00  0.00     0.000 A 
HETATM   17  C   UNL     1       8.843  20.710  53.396  1.00  0.00     0.001 A 
HETATM   18  C   UNL     1       8.801  22.103  53.498  1.00  0.00     0.009 A 
ENDBRANCH  12  13
ENDBRANCH   8  12
ENDBRANCH   3   7
ENDBRANCH   1   3
BRANCH   1  19
HETATM   19  C   UNL     1       8.270  28.934  56.230  1.00  0.00     0.278 C 
BRANCH  19  20
HETATM   20  C   UNL     1       7.821  29.831  57.340  1.00  0.00     0.021 A 
HETATM   21  C   UNL     1       6.745  30.688  57.161  1.00  0.00     0.170 A 
HETATM   22  N   UNL     1       6.245  31.544  58.064  1.00  0.00    -0.224 NA
HETATM   23  C   UNL     1       6.831  31.583  59.270  1.00  0.00     0.072 A 
HETATM   24  C   UNL     1       7.974  30.791  59.572  1.00  0.00    -0.004 A 
HETATM   25  C   UNL     1       6.317  32.423  60.249  1.00  0.00     0.072 A 
HETATM   26  C   UNL     1       8.466  29.933  58.575  1.00  0.00     0.027 A 
HETATM   27  C   UNL     1       8.585  30.863  60.835  1.00  0.00     0.053 A 
HETATM   28  C   UNL     1       8.032  31.707  61.771  1.00  0.00     0.106 A 
HETATM   29  C   UNL     1       6.926  32.466  61.485  1.00  0.00     0.107 A 
HETATM   30  O   UNL     1       8.480  31.891  63.039  1.00  0.00    -0.323 OA
HETATM   31  O   UNL     1       6.535  33.226  62.542  1.00  0.00    -0.323 OA
HETATM   32  C   UNL     1       7.515  32.848  63.531  1.00  0.00     0.352 A 
BRANCH  21  33
HETATM   33  O   UNL     1       6.079  30.735  55.981  1.00  0.00    -0.344 OA
HETATM   34  H   UNL     1       5.174  30.534  56.299  1.00  0.00     0.219 HD
ENDBRANCH  21  33
ENDBRANCH  19  20
ENDBRANCH   1  19
BRANCH   1  35
HETATM   35  C   UNL     1       7.646  28.045  53.933  1.00  0.00     0.238 C 
BRANCH  35  36
HETATM   36  C   UNL     1       6.594  27.283  53.125  1.00  0.00     0.054 C 
BRANCH  36  37
HETATM   37  C   UNL     1       5.527  28.233  52.598  1.00  0.00     0.165 C 
BRANCH  37  38
HETATM   38  O   UNL     1       5.580  29.427  53.364  1.00  0.00    -0.401 OA
HETATM   39  H   UNL     1       5.796  29.174  54.283  1.00  0.00     0.209 HD
ENDBRANCH  37  38
ENDBRANCH  36  37
ENDBRANCH  35  36
ENDBRANCH   1  35
TORSDOF 12
ENDMDL
MODEL 2
REMARK VINA RESULT:      -9.0      2.836      9.396
REMARK  12 active torsions:
REMARK  status: ('A' for Active; 'I' for Inactive)
REMARK    1  A    between atoms: C_2  and  C_3 
REMARK    2  A    between atoms: C_3  and  N_4 
REMARK    3  A    between atoms: C_3  and  C_25 
REMARK    4  A    between atoms: N_4  and  C_6 
REMARK    5  A    between atoms: N_4  and  C_21 
REMARK    6  A    between atoms: C_6  and  C_7 
REMARK    7  A    between atoms: C_8  and  O_9 
REMARK    8  A    between atoms: C_21  and  C_22 
REMARK    9  A    between atoms: C_22  and  C_23 
REMARK   10  A    between atoms: C_23  and  O_24 
REMARK   11  A    between atoms: N_26  and  C_27 
REMARK   12  A    between atoms: C_27  and  C_28 
ROOT
HETATM    1  N   UNL     1       6.532  29.877  57.848  1.00  0.00    -0.055 N 
HETATM    2  H   UNL     1       6.583  30.344  56.938  1.00  0.00     0.281 HD
ENDROOT
BRANCH   1   3
HETATM    3  C   UNL     1       6.585  31.022  58.882  1.00  0.00     0.263 C 
BRANCH   3   4
HETATM    4  C   UNL     1       5.608  32.204  58.581  1.00  0.00     0.016 C 
HETATM    5  C   UNL     1       4.266  32.075  59.314  1.00  0.00     0.012 C 
HETATM    6  C   UNL     1       5.353  32.547  57.110  1.00  0.00     0.012 C 
ENDBRANCH   3   4
BRANCH   3   7
HETATM    7  C   UNL     1       7.937  31.499  59.306  1.00  0.00     0.168 A 
HETATM    8  N   UNL     1       8.384  31.624  60.601  1.00  0.00    -0.257 N 
HETATM    9  N   UNL     1       9.623  32.140  60.603  1.00  0.00    -0.003 NA
HETATM   10  N   UNL     1       9.932  32.322  59.331  1.00  0.00     0.018 NA
HETATM   11  N   UNL     1       8.900  31.942  58.524  1.00  0.00    -0.145 NA
BRANCH   8  12
HETATM   12  C   UNL     1       7.746  31.299  61.864  1.00  0.00     0.186 C 
BRANCH  12  13
HETATM   13  C   UNL     1       7.319  32.526  62.637  1.00  0.00    -0.039 A 
HETATM   14  C   UNL     1       6.395  33.449  62.115  1.00  0.00     0.009 A 
HETATM   15  C   UNL     1       5.954  34.529  62.882  1.00  0.00     0.001 A 
HETATM   16  C   UNL     1       6.413  34.694  64.185  1.00  0.00     0.000 A 
HETATM   17  C   UNL     1       7.312  33.777  64.726  1.00  0.00     0.001 A 
HETATM   18  C   UNL     1       7.758  32.697  63.960  1.00  0.00     0.009 A 
ENDBRANCH  12  13
ENDBRANCH   8  12
ENDBRANCH   3   7
ENDBRANCH   1   3
BRANCH   1  19
HETATM   19  C   UNL     1       7.718  28.906  57.745  1.00  0.00     0.278 C 
BRANCH  19  20
HETATM   20  C   UNL     1       7.685  27.744  56.803  1.00  0.00     0.021 A 
HETATM   21  C   UNL     1       7.600  27.949  55.434  1.00  0.00     0.170 A 
HETATM   22  N   UNL     1       7.555  27.004  54.484  1.00  0.00    -0.224 NA
HETATM   23  C   UNL     1       7.601  25.725  54.882  1.00  0.00     0.072 A 
HETATM   24  C   UNL     1       7.640  25.371  56.260  1.00  0.00    -0.004 A 
HETATM   25  C   UNL     1       7.602  24.714  53.928  1.00  0.00     0.072 A 
HETATM   26  C   UNL     1       7.659  26.407  57.208  1.00  0.00     0.027 A 
HETATM   27  C   UNL     1       7.666  24.023  56.656  1.00  0.00     0.053 A 
HETATM   28  C   UNL     1       7.671  23.063  55.671  1.00  0.00     0.106 A 
HETATM   29  C   UNL     1       7.642  23.400  54.342  1.00  0.00     0.107 A 
HETATM   30  O   UNL     1       7.710  21.720  55.869  1.00  0.00    -0.323 OA
HETATM   31  O   UNL     1       7.658  22.309  53.532  1.00  0.00    -0.323 OA
HETATM   32  C   UNL     1       7.716  21.244  54.504  1.00  0.00     0.352 A 
BRANCH  21  33
HETATM   33  O   UNL     1       7.545  29.202  54.919  1.00  0.00    -0.344 OA
HETATM   34  H   UNL     1       7.293  28.986  53.997  1.00  0.00     0.219 HD
ENDBRANCH  21  33
ENDBRANCH  19  20
ENDBRANCH   1  19
BRANCH   1  35
HETATM   35  C   UNL     1       5.191  29.156  57.804  1.00  0.00     0.238 C 
BRANCH  35  36
HETATM   36  C   UNL     1       4.421  29.499  56.527  1.00  0.00     0.054 C 
BRANCH  36  37
HETATM   37  C   UNL     1       4.144  28.243  55.711  1.00  0.00     0.165 C 
BRANCH  37  38
HETATM   38  O   UNL     1       4.246  27.122  56.575  1.00  0.00    -0.401 OA
HETATM   39  H   UNL     1       3.743  27.334  57.386  1.00  0.00     0.209 HD
ENDBRANCH  37  38
ENDBRANCH  36  37
ENDBRANCH  35  36
ENDBRANCH   1  35
TORSDOF 12
ENDMDL
MODEL 3
REMARK VINA RESULT:      -9.0      2.805      9.556
REMARK  12 active torsions:
REMARK  status: ('A' for Active; 'I' for Inactive)
REMARK    1  A    between atoms: C_2  and  C_3 
REMARK    2  A    between atoms: C_3  and  N_4 
REMARK    3  A    between atoms: C_3  and  C_25 
REMARK    4  A    between atoms: N_4  and  C_6 
REMARK    5  A    between atoms: N_4  and  C_21 
REMARK    6  A    between atoms: C_6  and  C_7 
REMARK    7  A    between atoms: C_8  and  O_9 
REMARK    8  A    between atoms: C_21  and  C_22 
REMARK    9  A    between atoms: C_22  and  C_23 
REMARK   10  A    between atoms: C_23  and  O_24 
REMARK   11  A    between atoms: N_26  and  C_27 
REMARK   12  A    between atoms: C_27  and  C_28 
ROOT
HETATM    1  N   UNL     1       7.377  29.149  57.563  1.00  0.00    -0.055 N 
HETATM    2  H   UNL     1       8.300  28.833  57.873  1.00  0.00     0.281 HD
ENDROOT
BRANCH   1   3
HETATM    3  C   UNL     1       7.062  30.375  58.447  1.00  0.00     0.263 C 
BRANCH   3   4
HETATM    4  C   UNL     1       5.941  31.304  57.879  1.00  0.00     0.016 C 
HETATM    5  C   UNL     1       5.801  32.620  58.655  1.00  0.00     0.012 C 
HETATM    6  C   UNL     1       4.554  30.685  57.672  1.00  0.00     0.012 C 
ENDBRANCH   3   4
BRANCH   3   7
HETATM    7  C   UNL     1       8.223  31.150  58.982  1.00  0.00     0.168 A 
HETATM    8  N   UNL     1       8.443  31.475  60.301  1.00  0.00    -0.257 N 
HETATM    9  N   UNL     1       9.549  32.228  60.400  1.00  0.00    -0.003 NA
HETATM   10  N   UNL     1      10.002  32.357  59.166  1.00  0.00     0.018 NA
HETATM   11  N   UNL     1       9.190  31.708  58.283  1.00  0.00    -0.145 NA
BRANCH   8  12
HETATM   12  C   UNL     1       7.700  31.139  61.501  1.00  0.00     0.186 C 
BRANCH  12  13
HETATM   13  C   UNL     1       7.369  32.351  62.343  1.00  0.00    -0.039 A 
HETATM   14  C   UNL     1       6.430  33.312  61.927  1.00  0.00     0.009 A 
HETATM   15  C   UNL     1       6.083  34.377  62.759  1.00  0.00     0.001 A 
HETATM   16  C   UNL     1       6.651  34.489  64.025  1.00  0.00     0.000 A 
HETATM   17  C   UNL     1       7.567  33.535  64.462  1.00  0.00     0.001 A 
HETATM   18  C   UNL     1       7.919  32.469  63.630  1.00  0.00     0.009 A 
ENDBRANCH  12  13
ENDBRANCH   8  12
ENDBRANCH   3   7
ENDBRANCH   1   3
BRANCH   1  19
HETATM   19  C   UNL     1       6.553  27.865  57.742  1.00  0.00     0.278 C 
BRANCH  19  20
HETATM   20  C   UNL     1       6.635  26.750  56.748  1.00  0.00     0.021 A 
HETATM   21  C   UNL     1       5.677  26.621  55.754  1.00  0.00     0.170 A 
HETATM   22  N   UNL     1       5.626  25.671  54.809  1.00  0.00    -0.224 NA
HETATM   23  C   UNL     1       6.597  24.747  54.809  1.00  0.00     0.072 A 
HETATM   24  C   UNL     1       7.616  24.733  55.802  1.00  0.00    -0.004 A 
HETATM   25  C   UNL     1       6.608  23.771  53.821  1.00  0.00     0.072 A 
HETATM   26  C   UNL     1       7.600  25.740  56.781  1.00  0.00     0.027 A 
HETATM   27  C   UNL     1       8.613  23.742  55.796  1.00  0.00     0.053 A 
HETATM   28  C   UNL     1       8.580  22.802  54.792  1.00  0.00     0.106 A 
HETATM   29  C   UNL     1       7.604  22.818  53.829  1.00  0.00     0.107 A 
HETATM   30  O   UNL     1       9.466  21.788  54.623  1.00  0.00    -0.323 OA
HETATM   31  O   UNL     1       7.752  21.811  52.927  1.00  0.00    -0.323 OA
HETATM   32  C   UNL     1       8.944  21.167  53.426  1.00  0.00     0.352 A 
BRANCH  21  33
HETATM   33  O   UNL     1       4.647  27.498  55.660  1.00  0.00    -0.344 OA
HETATM   34  H   UNL     1       4.309  27.448  56.578  1.00  0.00     0.219 HD
ENDBRANCH  21  33
ENDBRANCH  19  20
ENDBRANCH   1  19
BRANCH   1  35
HETATM   35  C   UNL     1       7.594  29.495  56.095  1.00  0.00     0.238 C 
BRANCH  35  36
HETATM   36  C   UNL     1       8.863  28.834  55.555  1.00  0.00     0.054 C 
BRANCH  36  37
HETATM   37  C   UNL     1      10.089  29.680  55.872  1.00  0.00     0.165 C 
BRANCH  37  38
HETATM   38  O   UNL     1      10.560  29.311  57.159  1.00  0.00    -0.401 OA
HETATM   39  H   UNL     1      10.065  29.841  57.813  1.00  0.00     0.209 HD
ENDBRANCH  37  38
ENDBRANCH  36  37
ENDBRANCH  35  36
ENDBRANCH   1  35
TORSDOF 12
ENDMDL
MODEL 4
REMARK VINA RESULT:      -8.7      1.915      3.019
REMARK  12 active torsions:
REMARK  status: ('A' for Active; 'I' for Inactive)
REMARK    1  A    between atoms: C_2  and  C_3 
REMARK    2  A    between atoms: C_3  and  N_4 
REMARK    3  A    between atoms: C_3  and  C_25 
REMARK    4  A    between atoms: N_4  and  C_6 
REMARK    5  A    between atoms: N_4  and  C_21 
REMARK    6  A    between atoms: C_6  and  C_7 
REMARK    7  A    between atoms: C_8  and  O_9 
REMARK    8  A    between atoms: C_21  and  C_22 
REMARK    9  A    between atoms: C_22  and  C_23 
REMARK   10  A    between atoms: C_23  and  O_24 
REMARK   11  A    between atoms: N_26  and  C_27 
REMARK   12  A    between atoms: C_27  and  C_28 
ROOT
HETATM    1  N   UNL     1       7.963  28.713  56.014  1.00  0.00    -0.055 N 
HETATM    2  H   UNL     1       7.263  29.387  55.689  1.00  0.00     0.281 HD
ENDROOT
BRANCH   1   3
HETATM    3  C   UNL     1       7.632  27.407  55.261  1.00  0.00     0.263 C 
BRANCH   3   4
HETATM    4  C   UNL     1       7.272  27.609  53.754  1.00  0.00     0.016 C 
HETATM    5  C   UNL     1       6.049  28.510  53.544  1.00  0.00     0.012 C 
HETATM    6  C   UNL     1       7.131  26.350  52.891  1.00  0.00     0.012 C 
ENDBRANCH   3   4
BRANCH   3   7
HETATM    7  C   UNL     1       6.715  26.440  55.939  1.00  0.00     0.168 A 
HETATM    8  N   UNL     1       7.034  25.162  56.336  1.00  0.00    -0.257 N 
HETATM    9  N   UNL     1       5.948  24.566  56.852  1.00  0.00    -0.003 NA
HETATM   10  N   UNL     1       4.982  25.465  56.777  1.00  0.00     0.018 NA
HETATM   11  N   UNL     1       5.438  26.617  56.208  1.00  0.00    -0.145 NA
BRANCH   8  12
HETATM   12  C   UNL     1       8.287  24.431  56.278  1.00  0.00     0.186 C 
BRANCH  12  13
HETATM   13  C   UNL     1       8.206  23.200  55.403  1.00  0.00    -0.039 A 
HETATM   14  C   UNL     1       8.115  21.906  55.945  1.00  0.00     0.009 A 
HETATM   15  C   UNL     1       7.957  20.794  55.116  1.00  0.00     0.001 A 
HETATM   16  C   UNL     1       7.868  20.957  53.738  1.00  0.00     0.000 A 
HETATM   17  C   UNL     1       7.935  22.234  53.184  1.00  0.00     0.001 A 
HETATM   18  C   UNL     1       8.096  23.349  54.010  1.00  0.00     0.009 A 
ENDBRANCH  12  13
ENDBRANCH   8  12
ENDBRANCH   3   7
ENDBRANCH   1   3
BRANCH   1  19
HETATM   19  C   UNL     1       7.746  28.777  57.533  1.00  0.00     0.278 C 
BRANCH  19  20
HETATM   20  C   UNL     1       7.011  29.919  58.161  1.00  0.00     0.021 A 
HETATM   21  C   UNL     1       5.795  30.343  57.645  1.00  0.00     0.170 A 
HETATM   22  N   UNL     1       5.040  31.351  58.103  1.00  0.00    -0.224 NA
HETATM   23  C   UNL     1       5.488  32.025  59.172  1.00  0.00     0.072 A 
HETATM   24  C   UNL     1       6.744  31.726  59.771  1.00  0.00    -0.004 A 
HETATM   25  C   UNL     1       4.715  33.048  59.706  1.00  0.00     0.072 A 
HETATM   26  C   UNL     1       7.502  30.675  59.229  1.00  0.00     0.027 A 
HETATM   27  C   UNL     1       7.206  32.459  60.878  1.00  0.00     0.053 A 
HETATM   28  C   UNL     1       6.398  33.457  61.371  1.00  0.00     0.106 A 
HETATM   29  C   UNL     1       5.184  33.743  60.801  1.00  0.00     0.107 A 
HETATM   30  O   UNL     1       6.675  34.251  62.436  1.00  0.00    -0.323 OA
HETATM   31  O   UNL     1       4.540  34.757  61.437  1.00  0.00    -0.323 OA
HETATM   32  C   UNL     1       5.483  35.068  62.484  1.00  0.00     0.352 A 
BRANCH  21  33
HETATM   33  O   UNL     1       5.247  29.736  56.564  1.00  0.00    -0.344 OA
HETATM   34  H   UNL     1       4.959  28.897  56.980  1.00  0.00     0.219 HD
ENDBRANCH  21  33
ENDBRANCH  19  20
ENDBRANCH   1  19
BRANCH   1  35
HETATM   35  C   UNL     1       9.285  29.343  55.593  1.00  0.00     0.238 C 
BRANCH  35  36
HETATM   36  C   UNL     1      10.415  28.939  56.541  1.00  0.00     0.054 C 
BRANCH  36  37
HETATM   37  C   UNL     1      11.029  30.165  57.203  1.00  0.00     0.165 C 
BRANCH  37  38
HETATM   38  O   UNL     1      12.437  29.987  57.245  1.00  0.00    -0.401 OA
HETATM   39  H   UNL     1      12.760  30.009  56.323  1.00  0.00     0.209 HD
ENDBRANCH  37  38
ENDBRANCH  36  37
ENDBRANCH  35  36
ENDBRANCH   1  35
TORSDOF 12
ENDMDL
MODEL 5
REMARK VINA RESULT:      -8.7      4.371      9.506
REMARK  12 active torsions:
REMARK  status: ('A' for Active; 'I' for Inactive)
REMARK    1  A    between atoms: C_2  and  C_3 
REMARK    2  A    between atoms: C_3  and  N_4 
REMARK    3  A    between atoms: C_3  and  C_25 
REMARK    4  A    between atoms: N_4  and  C_6 
REMARK    5  A    between atoms: N_4  and  C_21 
REMARK    6  A    between atoms: C_6  and  C_7 
REMARK    7  A    between atoms: C_8  and  O_9 
REMARK    8  A    between atoms: C_21  and  C_22 
REMARK    9  A    between atoms: C_22  and  C_23 
REMARK   10  A    between atoms: C_23  and  O_24 
REMARK   11  A    between atoms: N_26  and  C_27 
REMARK   12  A    between atoms: C_27  and  C_28 
ROOT
HETATM    1  N   UNL     1       4.781  27.841  52.699  1.00  0.00    -0.055 N 
HETATM    2  H   UNL     1       4.509  26.857  52.771  1.00  0.00     0.281 HD
ENDROOT
BRANCH   1   3
HETATM    3  C   UNL     1       4.580  28.197  51.210  1.00  0.00     0.263 C 
BRANCH   3   4
HETATM    4  C   UNL     1       5.168  27.146  50.214  1.00  0.00     0.016 C 
HETATM    5  C   UNL     1       5.028  27.566  48.746  1.00  0.00     0.012 C 
HETATM    6  C   UNL     1       4.707  25.694  50.374  1.00  0.00     0.012 C 
ENDBRANCH   3   4
BRANCH   3   7
HETATM    7  C   UNL     1       4.883  29.601  50.796  1.00  0.00     0.168 A 
HETATM    8  N   UNL     1       3.965  30.543  50.391  1.00  0.00    -0.257 N 
HETATM    9  N   UNL     1       4.603  31.670  50.036  1.00  0.00    -0.003 NA
HETATM   10  N   UNL     1       5.887  31.425  50.226  1.00  0.00     0.018 NA
HETATM   11  N   UNL     1       6.073  30.153  50.683  1.00  0.00    -0.145 NA
BRANCH   8  12
HETATM   12  C   UNL     1       2.517  30.487  50.304  1.00  0.00     0.186 C 
BRANCH  12  13
HETATM   13  C   UNL     1       2.034  29.697  49.108  1.00  0.00    -0.039 A 
HETATM   14  C   UNL     1       2.153  30.187  47.795  1.00  0.00     0.009 A 
HETATM   15  C   UNL     1       1.775  29.403  46.704  1.00  0.00     0.001 A 
HETATM   16  C   UNL     1       1.292  28.114  46.904  1.00  0.00     0.000 A 
HETATM   17  C   UNL     1       1.188  27.604  48.196  1.00  0.00     0.001 A 
HETATM   18  C   UNL     1       1.562  28.387  49.291  1.00  0.00     0.009 A 
ENDBRANCH  12  13
ENDBRANCH   8  12
ENDBRANCH   3   7
ENDBRANCH   1   3
BRANCH   1  19
HETATM   19  C   UNL     1       6.205  27.794  53.272  1.00  0.00     0.278 C 
BRANCH  19  20
HETATM   20  C   UNL     1       6.774  26.525  53.825  1.00  0.00     0.021 A 
HETATM   21  C   UNL     1       7.181  26.454  55.149  1.00  0.00     0.170 A 
HETATM   22  N   UNL     1       7.711  25.389  55.767  1.00  0.00    -0.224 NA
HETATM   23  C   UNL     1       7.863  24.268  55.047  1.00  0.00     0.072 A 
HETATM   24  C   UNL     1       7.531  24.217  53.665  1.00  0.00    -0.004 A 
HETATM   25  C   UNL     1       8.367  23.128  55.661  1.00  0.00     0.072 A 
HETATM   26  C   UNL     1       7.004  25.374  53.068  1.00  0.00     0.027 A 
HETATM   27  C   UNL     1       7.719  23.038  52.923  1.00  0.00     0.053 A 
HETATM   28  C   UNL     1       8.215  21.936  53.581  1.00  0.00     0.106 A 
HETATM   29  C   UNL     1       8.529  21.980  54.915  1.00  0.00     0.107 A 
HETATM   30  O   UNL     1       8.445  20.717  53.030  1.00  0.00    -0.323 OA
HETATM   31  O   UNL     1       8.998  20.790  55.375  1.00  0.00    -0.323 OA
HETATM   32  C   UNL     1       8.930  19.986  54.179  1.00  0.00     0.352 A 
BRANCH  21  33
HETATM   33  O   UNL     1       7.076  27.528  55.969  1.00  0.00    -0.344 OA
HETATM   34  H   UNL     1       6.363  27.210  56.561  1.00  0.00     0.219 HD
ENDBRANCH  21  33
ENDBRANCH  19  20
ENDBRANCH   1  19
BRANCH   1  35
HETATM   35  C   UNL     1       3.807  28.549  53.633  1.00  0.00     0.238 C 
BRANCH  35  36
HETATM   36  C   UNL     1       4.548  29.457  54.617  1.00  0.00     0.054 C 
BRANCH  36  37
HETATM   37  C   UNL     1       4.067  29.214  56.041  1.00  0.00     0.165 C 
BRANCH  37  38
HETATM   38  O   UNL     1       4.043  27.813  56.267  1.00  0.00    -0.401 OA
HETATM   39  H   UNL     1       3.832  27.385  55.414  1.00  0.00     0.209 HD
ENDBRANCH  37  38
ENDBRANCH  36  37
ENDBRANCH  35  36
ENDBRANCH   1  35
TORSDOF 12
ENDMDL
MODEL 6
REMARK VINA RESULT:      -8.5      2.559      3.938
REMARK  12 active torsions:
REMARK  status: ('A' for Active; 'I' for Inactive)
REMARK    1  A    between atoms: C_2  and  C_3 
REMARK    2  A    between atoms: C_3  and  N_4 
REMARK    3  A    between atoms: C_3  and  C_25 
REMARK    4  A    between atoms: N_4  and  C_6 
REMARK    5  A    between atoms: N_4  and  C_21 
REMARK    6  A    between atoms: C_6  and  C_7 
REMARK    7  A    between atoms: C_8  and  O_9 
REMARK    8  A    between atoms: C_21  and  C_22 
REMARK    9  A    between atoms: C_22  and  C_23 
REMARK   10  A    between atoms: C_23  and  O_24 
REMARK   11  A    between atoms: N_26  and  C_27 
REMARK   12  A    between atoms: C_27  and  C_28 
ROOT
HETATM    1  N   UNL     1       7.693  28.933  56.105  1.00  0.00    -0.055 N 
HETATM    2  H   UNL     1       7.160  29.743  55.777  1.00  0.00     0.281 HD
ENDROOT
BRANCH   1   3
HETATM    3  C   UNL     1       7.117  27.737  55.316  1.00  0.00     0.263 C 
BRANCH   3   4
HETATM    4  C   UNL     1       6.386  28.133  53.993  1.00  0.00     0.016 C 
HETATM    5  C   UNL     1       5.211  29.093  54.221  1.00  0.00     0.012 C 
HETATM    6  C   UNL     1       5.943  26.995  53.068  1.00  0.00     0.012 C 
ENDBRANCH   3   4
BRANCH   3   7
HETATM    7  C   UNL     1       6.365  26.704  56.092  1.00  0.00     0.168 A 
HETATM    8  N   UNL     1       6.804  25.433  56.388  1.00  0.00    -0.257 N 
HETATM    9  N   UNL     1       5.841  24.766  57.044  1.00  0.00    -0.003 NA
HETATM   10  N   UNL     1       4.834  25.614  57.153  1.00  0.00     0.018 NA
HETATM   11  N   UNL     1       5.139  26.805  56.562  1.00  0.00    -0.145 NA
BRANCH   8  12
HETATM   12  C   UNL     1       8.066  24.772  56.111  1.00  0.00     0.186 C 
BRANCH  12  13
HETATM   13  C   UNL     1       7.936  23.678  55.075  1.00  0.00    -0.039 A 
HETATM   14  C   UNL     1       7.927  23.954  53.697  1.00  0.00     0.009 A 
HETATM   15  C   UNL     1       7.890  22.919  52.762  1.00  0.00     0.001 A 
HETATM   16  C   UNL     1       7.882  21.594  53.185  1.00  0.00     0.000 A 
HETATM   17  C   UNL     1       7.913  21.301  54.547  1.00  0.00     0.001 A 
HETATM   18  C   UNL     1       7.947  22.334  55.486  1.00  0.00     0.009 A 
ENDBRANCH  12  13
ENDBRANCH   8  12
ENDBRANCH   3   7
ENDBRANCH   1   3
BRANCH   1  19
HETATM   19  C   UNL     1       7.450  29.017  57.619  1.00  0.00     0.278 C 
BRANCH  19  20
HETATM   20  C   UNL     1       6.816  30.225  58.234  1.00  0.00     0.021 A 
HETATM   21  C   UNL     1       7.405  30.853  59.322  1.00  0.00     0.170 A 
HETATM   22  N   UNL     1       6.943  31.932  59.969  1.00  0.00    -0.224 NA
HETATM   23  C   UNL     1       5.798  32.474  59.529  1.00  0.00     0.072 A 
HETATM   24  C   UNL     1       5.065  31.902  58.452  1.00  0.00    -0.004 A 
HETATM   25  C   UNL     1       5.307  33.619  60.144  1.00  0.00     0.072 A 
HETATM   26  C   UNL     1       5.588  30.756  57.831  1.00  0.00     0.027 A 
HETATM   27  C   UNL     1       3.856  32.474  58.021  1.00  0.00     0.053 A 
HETATM   28  C   UNL     1       3.418  33.611  58.660  1.00  0.00     0.106 A 
HETATM   29  C   UNL     1       4.126  34.169  59.693  1.00  0.00     0.107 A 
HETATM   30  O   UNL     1       2.287  34.302  58.367  1.00  0.00    -0.323 OA
HETATM   31  O   UNL     1       3.529  35.288  60.184  1.00  0.00    -0.323 OA
HETATM   32  C   UNL     1       2.368  35.377  59.330  1.00  0.00     0.352 A 
BRANCH  21  33
HETATM   33  O   UNL     1       8.563  30.389  59.852  1.00  0.00    -0.344 OA
HETATM   34  H   UNL     1       9.002  31.242  60.051  1.00  0.00     0.219 HD
ENDBRANCH  21  33
ENDBRANCH  19  20
ENDBRANCH   1  19
BRANCH   1  35
HETATM   35  C   UNL     1       9.130  29.276  55.731  1.00  0.00     0.238 C 
BRANCH  35  36
HETATM   36  C   UNL     1      10.084  28.994  56.893  1.00  0.00     0.054 C 
BRANCH  36  37
HETATM   37  C   UNL     1      10.931  30.221  57.205  1.00  0.00     0.165 C 
BRANCH  37  38
HETATM   38  O   UNL     1      12.297  29.842  57.147  1.00  0.00    -0.401 OA
HETATM   39  H   UNL     1      12.644  29.863  58.060  1.00  0.00     0.209 HD
ENDBRANCH  37  38
ENDBRANCH  36  37
ENDBRANCH  35  36
ENDBRANCH   1  35
TORSDOF 12
ENDMDL
MODEL 7
REMARK VINA RESULT:      -8.5      3.465      7.723
REMARK  12 active torsions:
REMARK  status: ('A' for Active; 'I' for Inactive)
REMARK    1  A    between atoms: C_2  and  C_3 
REMARK    2  A    between atoms: C_3  and  N_4 
REMARK    3  A    between atoms: C_3  and  C_25 
REMARK    4  A    between atoms: N_4  and  C_6 
REMARK    5  A    between atoms: N_4  and  C_21 
REMARK    6  A    between atoms: C_6  and  C_7 
REMARK    7  A    between atoms: C_8  and  O_9 
REMARK    8  A    between atoms: C_21  and  C_22 
REMARK    9  A    between atoms: C_22  and  C_23 
REMARK   10  A    between atoms: C_23  and  O_24 
REMARK   11  A    between atoms: N_26  and  C_27 
REMARK   12  A    between atoms: C_27  and  C_28 
ROOT
HETATM    1  N   UNL     1       7.327  27.903  53.890  1.00  0.00    -0.055 N 
HETATM    2  H   UNL     1       7.508  28.043  52.892  1.00  0.00     0.281 HD
ENDROOT
BRANCH   1   3
HETATM    3  C   UNL     1       7.284  26.371  54.073  1.00  0.00     0.263 C 
BRANCH   3   4
HETATM    4  C   UNL     1       6.608  25.603  52.891  1.00  0.00     0.016 C 
HETATM    5  C   UNL     1       5.586  24.559  53.359  1.00  0.00     0.012 C 
HETATM    6  C   UNL     1       7.532  24.977  51.842  1.00  0.00     0.012 C 
ENDBRANCH   3   4
BRANCH   3   7
HETATM    7  C   UNL     1       6.851  25.853  55.406  1.00  0.00     0.168 A 
HETATM    8  N   UNL     1       7.500  24.899  56.156  1.00  0.00    -0.257 N 
HETATM    9  N   UNL     1       6.791  24.638  57.265  1.00  0.00    -0.003 NA
HETATM   10  N   UNL     1       5.730  25.422  57.199  1.00  0.00     0.018 NA
HETATM   11  N   UNL     1       5.749  26.166  56.056  1.00  0.00    -0.145 NA
BRANCH   8  12
HETATM   12  C   UNL     1       8.748  24.195  55.927  1.00  0.00     0.186 C 
BRANCH  12  13
HETATM   13  C   UNL     1       8.544  22.824  55.321  1.00  0.00    -0.039 A 
HETATM   14  C   UNL     1       8.134  21.723  56.093  1.00  0.00     0.009 A 
HETATM   15  C   UNL     1       7.872  20.490  55.494  1.00  0.00     0.001 A 
HETATM   16  C   UNL     1       7.996  20.341  54.117  1.00  0.00     0.000 A 
HETATM   17  C   UNL     1       8.380  21.427  53.333  1.00  0.00     0.001 A 
HETATM   18  C   UNL     1       8.646  22.663  53.929  1.00  0.00     0.009 A 
ENDBRANCH  12  13
ENDBRANCH   8  12
ENDBRANCH   3   7
ENDBRANCH   1   3
BRANCH   1  19
HETATM   19  C   UNL     1       6.036  28.716  54.069  1.00  0.00     0.278 C 
BRANCH  19  20
HETATM   20  C   UNL     1       5.001  28.771  52.990  1.00  0.00     0.021 A 
HETATM   21  C   UNL     1       3.818  29.469  53.183  1.00  0.00     0.170 A 
HETATM   22  N   UNL     1       2.810  29.593  52.308  1.00  0.00    -0.224 NA
HETATM   23  C   UNL     1       2.947  28.990  51.118  1.00  0.00     0.072 A 
HETATM   24  C   UNL     1       4.089  28.201  50.806  1.00  0.00    -0.004 A 
HETATM   25  C   UNL     1       1.945  29.130  50.165  1.00  0.00     0.072 A 
HETATM   26  C   UNL     1       5.100  28.089  51.774  1.00  0.00     0.027 A 
HETATM   27  C   UNL     1       4.202  27.561  49.560  1.00  0.00     0.053 A 
HETATM   28  C   UNL     1       3.185  27.737  48.651  1.00  0.00     0.106 A 
HETATM   29  C   UNL     1       2.087  28.503  48.945  1.00  0.00     0.107 A 
HETATM   30  O   UNL     1       3.135  27.209  47.401  1.00  0.00    -0.323 OA
HETATM   31  O   UNL     1       1.201  28.555  47.915  1.00  0.00    -0.323 OA
HETATM   32  C   UNL     1       1.877  27.744  46.930  1.00  0.00     0.352 A 
BRANCH  21  33
HETATM   33  O   UNL     1       3.572  30.114  54.349  1.00  0.00    -0.344 OA
HETATM   34  H   UNL     1       2.987  30.827  54.018  1.00  0.00     0.219 HD
ENDBRANCH  21  33
ENDBRANCH  19  20
ENDBRANCH   1  19
BRANCH   1  35
HETATM   35  C   UNL     1       8.523  28.565  54.564  1.00  0.00     0.238 C 
BRANCH  35  36
HETATM   36  C   UNL     1       8.146  29.112  55.942  1.00  0.00     0.054 C 
BRANCH  36  37
HETATM   37  C   UNL     1       8.874  28.350  57.042  1.00  0.00     0.165 C 
BRANCH  37  38
HETATM   38  O   UNL     1       7.901  27.740  57.875  1.00  0.00    -0.401 OA
HETATM   39  H   UNL     1       7.387  27.123  57.319  1.00  0.00     0.209 HD
ENDBRANCH  37  38
ENDBRANCH  36  37
ENDBRANCH  35  36
ENDBRANCH   1  35
TORSDOF 12
ENDMDL
MODEL 8
REMARK VINA RESULT:      -8.2      3.650      8.894
REMARK  12 active torsions:
REMARK  status: ('A' for Active; 'I' for Inactive)
REMARK    1  A    between atoms: C_2  and  C_3 
REMARK    2  A    between atoms: C_3  and  N_4 
REMARK    3  A    between atoms: C_3  and  C_25 
REMARK    4  A    between atoms: N_4  and  C_6 
REMARK    5  A    between atoms: N_4  and  C_21 
REMARK    6  A    between atoms: C_6  and  C_7 
REMARK    7  A    between atoms: C_8  and  O_9 
REMARK    8  A    between atoms: C_21  and  C_22 
REMARK    9  A    between atoms: C_22  and  C_23 
REMARK   10  A    between atoms: C_23  and  O_24 
REMARK   11  A    between atoms: N_26  and  C_27 
REMARK   12  A    between atoms: C_27  and  C_28 
ROOT
HETATM    1  N   UNL     1       5.647  29.316  54.926  1.00  0.00    -0.055 N 
HETATM    2  H   UNL     1       6.459  29.037  54.368  1.00  0.00     0.281 HD
ENDROOT
BRANCH   1   3
HETATM    3  C   UNL     1       6.242  29.992  56.180  1.00  0.00     0.263 C 
BRANCH   3   4
HETATM    4  C   UNL     1       7.476  29.249  56.784  1.00  0.00     0.016 C 
HETATM    5  C   UNL     1       8.442  28.720  55.716  1.00  0.00     0.012 C 
HETATM    6  C   UNL     1       7.198  28.145  57.810  1.00  0.00     0.012 C 
ENDBRANCH   3   4
BRANCH   3   7
HETATM    7  C   UNL     1       5.282  30.446  57.232  1.00  0.00     0.168 A 
HETATM    8  N   UNL     1       5.548  31.347  58.238  1.00  0.00    -0.257 N 
HETATM    9  N   UNL     1       4.472  31.465  59.032  1.00  0.00    -0.003 NA
HETATM   10  N   UNL     1       3.562  30.657  58.519  1.00  0.00     0.018 NA
HETATM   11  N   UNL     1       4.051  30.016  57.418  1.00  0.00    -0.145 NA
BRANCH   8  12
HETATM   12  C   UNL     1       6.739  32.123  58.531  1.00  0.00     0.186 C 
BRANCH  12  13
HETATM   13  C   UNL     1       7.308  31.827  59.900  1.00  0.00    -0.039 A 
HETATM   14  C   UNL     1       8.224  30.783  60.115  1.00  0.00     0.009 A 
HETATM   15  C   UNL     1       8.797  30.583  61.372  1.00  0.00     0.001 A 
HETATM   16  C   UNL     1       8.480  31.433  62.428  1.00  0.00     0.000 A 
HETATM   17  C   UNL     1       7.589  32.486  62.228  1.00  0.00     0.001 A 
HETATM   18  C   UNL     1       7.012  32.686  60.971  1.00  0.00     0.009 A 
ENDBRANCH  12  13
ENDBRANCH   8  12
ENDBRANCH   3   7
ENDBRANCH   1   3
BRANCH   1  19
HETATM   19  C   UNL     1       4.919  27.971  55.074  1.00  0.00     0.278 C 
BRANCH  19  20
HETATM   20  C   UNL     1       5.555  26.695  54.622  1.00  0.00     0.021 A 
HETATM   21  C   UNL     1       5.618  26.379  53.272  1.00  0.00     0.170 A 
HETATM   22  N   UNL     1       6.149  25.272  52.734  1.00  0.00    -0.224 NA
HETATM   23  C   UNL     1       6.684  24.372  53.571  1.00  0.00     0.072 A 
HETATM   24  C   UNL     1       6.645  24.548  54.982  1.00  0.00    -0.004 A 
HETATM   25  C   UNL     1       7.286  23.232  53.051  1.00  0.00     0.072 A 
HETATM   26  C   UNL     1       6.051  25.716  55.487  1.00  0.00     0.027 A 
HETATM   27  C   UNL     1       7.193  23.582  55.843  1.00  0.00     0.053 A 
HETATM   28  C   UNL     1       7.782  22.475  55.277  1.00  0.00     0.106 A 
HETATM   29  C   UNL     1       7.828  22.306  53.917  1.00  0.00     0.107 A 
HETATM   30  O   UNL     1       8.371  21.454  55.951  1.00  0.00    -0.323 OA
HETATM   31  O   UNL     1       8.455  21.154  53.560  1.00  0.00    -0.323 OA
HETATM   32  C   UNL     1       8.811  20.622  54.854  1.00  0.00     0.352 A 
BRANCH  21  33
HETATM   33  O   UNL     1       5.105  27.214  52.336  1.00  0.00    -0.344 OA
HETATM   34  H   UNL     1       5.538  26.846  51.538  1.00  0.00     0.219 HD
ENDBRANCH  21  33
ENDBRANCH  19  20
ENDBRANCH   1  19
BRANCH   1  35
HETATM   35  C   UNL     1       4.900  30.277  54.009  1.00  0.00     0.238 C 
BRANCH  35  36
HETATM   36  C   UNL     1       3.438  29.858  53.844  1.00  0.00     0.054 C 
BRANCH  36  37
HETATM   37  C   UNL     1       3.045  29.844  52.372  1.00  0.00     0.165 C 
BRANCH  37  38
HETATM   38  O   UNL     1       2.402  28.609  52.098  1.00  0.00    -0.401 OA
HETATM   39  H   UNL     1       2.653  27.987  52.808  1.00  0.00     0.209 HD
ENDBRANCH  37  38
ENDBRANCH  36  37
ENDBRANCH  35  36
ENDBRANCH   1  35
TORSDOF 12
ENDMDL
MODEL 9
REMARK VINA RESULT:      -8.2      2.128      3.407
REMARK  12 active torsions:
REMARK  status: ('A' for Active; 'I' for Inactive)
REMARK    1  A    between atoms: C_2  and  C_3 
REMARK    2  A    between atoms: C_3  and  N_4 
REMARK    3  A    between atoms: C_3  and  C_25 
REMARK    4  A    between atoms: N_4  and  C_6 
REMARK    5  A    between atoms: N_4  and  C_21 
REMARK    6  A    between atoms: C_6  and  C_7 
REMARK    7  A    between atoms: C_8  and  O_9 
REMARK    8  A    between atoms: C_21  and  C_22 
REMARK    9  A    between atoms: C_22  and  C_23 
REMARK   10  A    between atoms: C_23  and  O_24 
REMARK   11  A    between atoms: N_26  and  C_27 
REMARK   12  A    between atoms: C_27  and  C_28 
ROOT
HETATM    1  N   UNL     1       7.498  27.639  54.967  1.00  0.00    -0.055 N 
HETATM    2  H   UNL     1       8.211  26.904  54.982  1.00  0.00     0.281 HD
ENDROOT
BRANCH   1   3
HETATM    3  C   UNL     1       6.802  27.486  53.598  1.00  0.00     0.263 C 
BRANCH   3   4
HETATM    4  C   UNL     1       6.068  28.774  53.104  1.00  0.00     0.016 C 
HETATM    5  C   UNL     1       4.881  29.168  53.991  1.00  0.00     0.012 C 
HETATM    6  C   UNL     1       5.642  28.818  51.633  1.00  0.00     0.012 C 
ENDBRANCH   3   4
BRANCH   3   7
HETATM    7  C   UNL     1       5.988  26.251  53.379  1.00  0.00     0.168 A 
HETATM    8  N   UNL     1       6.474  24.969  53.259  1.00  0.00    -0.257 N 
HETATM    9  N   UNL     1       5.462  24.125  53.008  1.00  0.00    -0.003 NA
HETATM   10  N   UNL     1       4.374  24.874  52.981  1.00  0.00     0.018 NA
HETATM   11  N   UNL     1       4.685  26.185  53.198  1.00  0.00    -0.145 NA
BRANCH   8  12
HETATM   12  C   UNL     1       7.826  24.451  53.359  1.00  0.00     0.186 C 
BRANCH  12  13
HETATM   13  C   UNL     1       7.865  22.998  53.778  1.00  0.00    -0.039 A 
HETATM   14  C   UNL     1       8.110  21.964  52.858  1.00  0.00     0.009 A 
HETATM   15  C   UNL     1       8.223  20.640  53.285  1.00  0.00     0.001 A 
HETATM   16  C   UNL     1       8.113  20.330  54.637  1.00  0.00     0.000 A 
HETATM   17  C   UNL     1       7.892  21.345  55.566  1.00  0.00     0.001 A 
HETATM   18  C   UNL     1       7.775  22.671  55.141  1.00  0.00     0.009 A 
ENDBRANCH  12  13
ENDBRANCH   8  12
ENDBRANCH   3   7
ENDBRANCH   1   3
BRANCH   1  19
HETATM   19  C   UNL     1       8.357  28.885  55.235  1.00  0.00     0.278 C 
BRANCH  19  20
HETATM   20  C   UNL     1       8.248  29.634  56.525  1.00  0.00     0.021 A 
HETATM   21  C   UNL     1       9.319  29.678  57.406  1.00  0.00     0.170 A 
HETATM   22  N   UNL     1       9.355  30.303  58.592  1.00  0.00    -0.224 NA
HETATM   23  C   UNL     1       8.253  30.963  58.976  1.00  0.00     0.072 A 
HETATM   24  C   UNL     1       7.067  30.960  58.190  1.00  0.00    -0.004 A 
HETATM   25  C   UNL     1       8.262  31.661  60.177  1.00  0.00     0.072 A 
HETATM   26  C   UNL     1       7.084  30.265  56.970  1.00  0.00     0.027 A 
HETATM   27  C   UNL     1       5.915  31.640  58.622  1.00  0.00     0.053 A 
HETATM   28  C   UNL     1       5.980  32.321  59.816  1.00  0.00     0.106 A 
HETATM   29  C   UNL     1       7.124  32.332  60.572  1.00  0.00     0.107 A 
HETATM   30  O   UNL     1       4.975  33.041  60.377  1.00  0.00    -0.323 OA
HETATM   31  O   UNL     1       6.984  33.064  61.710  1.00  0.00    -0.323 OA
HETATM   32  C   UNL     1       5.623  33.524  61.576  1.00  0.00     0.352 A 
BRANCH  21  33
HETATM   33  O   UNL     1      10.483  29.044  57.121  1.00  0.00    -0.344 OA
HETATM   34  H   UNL     1      11.075  29.506  57.750  1.00  0.00     0.219 HD
ENDBRANCH  21  33
ENDBRANCH  19  20
ENDBRANCH   1  19
BRANCH   1  35
HETATM   35  C   UNL     1       6.603  27.291  56.150  1.00  0.00     0.238 C 
BRANCH  35  36
HETATM   36  C   UNL     1       7.014  25.957  56.779  1.00  0.00     0.054 C 
BRANCH  36  37
HETATM   37  C   UNL     1       5.787  25.125  57.126  1.00  0.00     0.165 C 
BRANCH  37  38
HETATM   38  O   UNL     1       4.801  25.353  56.131  1.00  0.00    -0.401 OA
HETATM   39  H   UNL     1       5.233  25.237  55.262  1.00  0.00     0.209 HD
ENDBRANCH  37  38
ENDBRANCH  36  37
ENDBRANCH  35  36
ENDBRANCH   1  35
TORSDOF 12
ENDMDL
MODEL 10
REMARK VINA RESULT:      -8.2      3.762      8.148
REMARK  12 active torsions:
REMARK  status: ('A' for Active; 'I' for Inactive)
REMARK    1  A    between atoms: C_2  and  C_3 
REMARK    2  A    between atoms: C_3  and  N_4 
REMARK    3  A    between atoms: C_3  and  C_25 
REMARK    4  A    between atoms: N_4  and  C_6 
REMARK    5  A    between atoms: N_4  and  C_21 
REMARK    6  A    between atoms: C_6  and  C_7 
REMARK    7  A    between atoms: C_8  and  O_9 
REMARK    8  A    between atoms: C_21  and  C_22 
REMARK    9  A    between atoms: C_22  and  C_23 
REMARK   10  A    between atoms: C_23  and  O_24 
REMARK   11  A    between atoms: N_26  and  C_27 
REMARK   12  A    between atoms: C_27  and  C_28 
ROOT
HETATM    1  N   UNL     1       5.780  28.565  54.812  1.00  0.00    -0.055 N 
HETATM    2  H   UNL     1       5.250  27.857  55.326  1.00  0.00     0.281 HD
ENDROOT
BRANCH   1   3
HETATM    3  C   UNL     1       5.289  28.445  53.353  1.00  0.00     0.263 C 
BRANCH   3   4
HETATM    4  C   UNL     1       4.109  29.406  52.993  1.00  0.00     0.016 C 
HETATM    5  C   UNL     1       2.811  28.662  52.656  1.00  0.00     0.012 C 
HETATM    6  C   UNL     1       4.375  30.475  51.928  1.00  0.00     0.012 C 
ENDBRANCH   3   4
BRANCH   3   7
HETATM    7  C   UNL     1       5.083  27.067  52.812  1.00  0.00     0.168 A 
HETATM    8  N   UNL     1       5.130  26.701  51.486  1.00  0.00    -0.257 N 
HETATM    9  N   UNL     1       4.837  25.397  51.368  1.00  0.00    -0.003 NA
HETATM   10  N   UNL     1       4.619  24.970  52.599  1.00  0.00     0.018 NA
HETATM   11  N   UNL     1       4.757  25.990  53.495  1.00  0.00    -0.145 NA
BRANCH   8  12
HETATM   12  C   UNL     1       5.432  27.474  50.295  1.00  0.00     0.186 C 
BRANCH  12  13
HETATM   13  C   UNL     1       4.379  27.325  49.220  1.00  0.00    -0.039 A 
HETATM   14  C   UNL     1       4.497  26.377  48.188  1.00  0.00     0.009 A 
HETATM   15  C   UNL     1       3.472  26.204  47.257  1.00  0.00     0.001 A 
HETATM   16  C   UNL     1       2.307  26.959  47.351  1.00  0.00     0.000 A 
HETATM   17  C   UNL     1       2.164  27.889  48.379  1.00  0.00     0.001 A 
HETATM   18  C   UNL     1       3.190  28.067  49.311  1.00  0.00     0.009 A 
ENDBRANCH  12  13
ENDBRANCH   8  12
ENDBRANCH   3   7
ENDBRANCH   1   3
BRANCH   1  19
HETATM   19  C   UNL     1       7.221  28.157  55.152  1.00  0.00     0.278 C 
BRANCH  19  20
HETATM   20  C   UNL     1       7.544  26.768  55.603  1.00  0.00     0.021 A 
HETATM   21  C   UNL     1       7.893  26.519  56.923  1.00  0.00     0.170 A 
HETATM   22  N   UNL     1       8.211  25.331  57.456  1.00  0.00    -0.224 NA
HETATM   23  C   UNL     1       8.189  24.263  56.646  1.00  0.00     0.072 A 
HETATM   24  C   UNL     1       7.895  24.383  55.259  1.00  0.00    -0.004 A 
HETATM   25  C   UNL     1       8.469  23.006  57.168  1.00  0.00     0.072 A 
HETATM   26  C   UNL     1       7.595  25.659  54.754  1.00  0.00     0.027 A 
HETATM   27  C   UNL     1       7.898  23.254  54.422  1.00  0.00     0.053 A 
HETATM   28  C   UNL     1       8.176  22.032  54.991  1.00  0.00     0.106 A 
HETATM   29  C   UNL     1       8.452  21.912  56.329  1.00  0.00     0.107 A 
HETATM   30  O   UNL     1       8.208  20.841  54.341  1.00  0.00    -0.323 OA
HETATM   31  O   UNL     1       8.693  20.625  56.693  1.00  0.00    -0.323 OA
HETATM   32  C   UNL     1       8.524  19.945  55.431  1.00  0.00     0.352 A 
BRANCH  21  33
HETATM   33  O   UNL     1       7.950  27.525  57.830  1.00  0.00    -0.344 OA
HETATM   34  H   UNL     1       7.320  27.177  58.495  1.00  0.00     0.219 HD
ENDBRANCH  21  33
ENDBRANCH  19  20
ENDBRANCH   1  19
BRANCH   1  35
HETATM   35  C   UNL     1       5.376  29.871  55.487  1.00  0.00     0.238 C 
BRANCH  35  36
HETATM   36  C   UNL     1       5.409  29.737  57.011  1.00  0.00     0.054 C 
BRANCH  36  37
HETATM   37  C   UNL     1       6.389  30.732  57.618  1.00  0.00     0.165 C 
BRANCH  37  38
HETATM   38  O   UNL     1       6.975  30.132  58.764  1.00  0.00    -0.401 OA
HETATM   39  H   UNL     1       7.783  30.638  58.976  1.00  0.00     0.209 HD
ENDBRANCH  37  38
ENDBRANCH  36  37
ENDBRANCH  35  36
ENDBRANCH   1  35
TORSDOF 12
ENDMDL
