MODEL 1
REMARK VINA RESULT:     -10.0      0.000      0.000
REMARK  6 active torsions:
REMARK  status: ('A' for Active; 'I' for Inactive)
REMARK    1  A    between atoms: C_2  and  O_3 
REMARK    2  A    between atoms: O_3  and  C_4 
REMARK    3  A    between atoms: C_5  and  O_6 
REMARK    4  A    between atoms: O_6  and  C_7 
REMARK    5  A    between atoms: C_7  and  C_8 
REMARK    6  A    between atoms: C_18  and  C_19 
ROOT
HETATM    1  C   UNL     1       6.272  26.370  55.632  1.00  0.00     0.103 A 
HETATM    2  C   UNL     1       6.986  25.562  56.521  1.00  0.00     0.112 A 
HETATM    3  C   UNL     1       8.011  26.078  57.313  1.00  0.00     0.041 A 
HETATM    4  C   UNL     1       8.302  27.438  57.253  1.00  0.00     0.014 A 
HETATM    5  C   UNL     1       7.593  28.292  56.385  1.00  0.00    -0.013 A 
HETATM    6  C   UNL     1       6.589  27.731  55.566  1.00  0.00     0.050 A 
ENDROOT
BRANCH   5   7
HETATM    7  C   UNL     1       7.958  29.771  56.369  1.00  0.00     0.219 C 
HETATM    8  N   UNL     1       6.787  30.601  56.231  1.00  0.00    -0.332 N 
HETATM    9  C   UNL     1       6.085  31.117  57.283  1.00  0.00     0.256 C 
HETATM   10  H   UNL     1       6.257  30.530  55.376  1.00  0.00     0.165 HD
HETATM   11  O   UNL     1       4.949  31.559  57.151  1.00  0.00    -0.267 OA
HETATM   12  C   UNL     1       6.797  31.149  58.548  1.00  0.00     0.073 A 
HETATM   13  C   UNL     1       8.096  30.702  58.593  1.00  0.00     0.088 A 
HETATM   14  C   UNL     1       6.350  31.620  59.822  1.00  0.00    -0.023 A 
HETATM   15  S   UNL     1       8.787  30.856  60.139  1.00  0.00    -0.074 SA
HETATM   16  N   UNL     1       8.736  30.196  57.519  1.00  0.00    -0.358 N 
HETATM   17  C   UNL     1       7.352  31.519  60.770  1.00  0.00     0.018 A 
HETATM   18  C   UNL     1       7.221  31.922  62.198  1.00  0.00     0.281 C 
HETATM   19  N   UNL     1       6.002  32.814  62.414  1.00  0.00    -0.070 N 
HETATM   20  C   UNL     1       4.779  32.279  61.671  1.00  0.00     0.239 C 
HETATM   21  H   UNL     1       5.784  32.758  63.416  1.00  0.00     0.279 HD
HETATM   22  C   UNL     1       6.287  34.260  62.127  1.00  0.00     0.270 C 
HETATM   23  C   UNL     1       5.005  32.199  60.151  1.00  0.00     0.068 C 
HETATM   24  H   UNL     1       9.633  29.730  57.624  1.00  0.00     0.162 HD
ENDBRANCH   5   7
BRANCH   1  25
HETATM   25  O   UNL     1       5.323  25.748  54.865  1.00  0.00    -0.349 OA
BRANCH  25  26
HETATM   26  C   UNL     1       5.272  26.121  53.490  1.00  0.00     0.171 C 
HETATM   27  C   UNL     1       4.807  24.915  52.693  1.00  0.00     0.034 C 
ENDBRANCH  25  26
ENDBRANCH   1  25
BRANCH   2  28
HETATM   28  O   UNL     1       6.701  24.199  56.619  1.00  0.00    -0.272 OA
BRANCH  28  29
HETATM   29  C   UNL     1       7.854  23.445  56.561  1.00  0.00     0.300 C 
HETATM   30  O   UNL     1       8.692  23.279  57.437  1.00  0.00    -0.259 OA
BRANCH  29  31
HETATM   31  C   UNL     1       7.921  22.746  55.262  1.00  0.00     0.061 A 
HETATM   32  C   UNL     1       7.857  21.353  55.128  1.00  0.00     0.050 A 
HETATM   33 CL   UNL     1       7.659  20.279  56.467  1.00  0.00    -0.083 Cl
HETATM   34  C   UNL     1       7.889  20.780  53.851  1.00  0.00     0.025 A 
HETATM   35  C   UNL     1       7.968  21.588  52.714  1.00  0.00     0.002 A 
HETATM   36  C   UNL     1       8.008  22.975  52.846  1.00  0.00     0.001 A 
HETATM   37  C   UNL     1       7.981  23.554  54.115  1.00  0.00     0.019 A 
ENDBRANCH  29  31
ENDBRANCH  28  29
ENDBRANCH   2  28
TORSDOF 6
ENDMDL
MODEL 2
REMARK VINA RESULT:      -9.7      3.769      9.474
REMARK  6 active torsions:
REMARK  status: ('A' for Active; 'I' for Inactive)
REMARK    1  A    between atoms: C_2  and  O_3 
REMARK    2  A    between atoms: O_3  and  C_4 
REMARK    3  A    between atoms: C_5  and  O_6 
REMARK    4  A    between atoms: O_6  and  C_7 
REMARK    5  A    between atoms: C_7  and  C_8 
REMARK    6  A    between atoms: C_18  and  C_19 
ROOT
HETATM    1  C   UNL     1       7.900  28.978  57.842  1.00  0.00     0.103 A 
HETATM    2  C   UNL     1       7.122  30.127  57.672  1.00  0.00     0.112 A 
HETATM    3  C   UNL     1       5.772  30.050  57.335  1.00  0.00     0.041 A 
HETATM    4  C   UNL     1       5.169  28.801  57.209  1.00  0.00     0.014 A 
HETATM    5  C   UNL     1       5.912  27.617  57.391  1.00  0.00    -0.013 A 
HETATM    6  C   UNL     1       7.287  27.729  57.691  1.00  0.00     0.050 A 
ENDROOT
BRANCH   5   7
HETATM    7  C   UNL     1       5.193  26.283  57.241  1.00  0.00     0.219 C 
HETATM    8  N   UNL     1       4.680  26.109  55.906  1.00  0.00    -0.332 N 
HETATM    9  C   UNL     1       5.361  25.487  54.898  1.00  0.00     0.256 C 
HETATM   10  H   UNL     1       3.963  26.744  55.589  1.00  0.00     0.165 HD
HETATM   11  O   UNL     1       5.036  25.612  53.722  1.00  0.00    -0.267 OA
HETATM   12  C   UNL     1       6.455  24.633  55.323  1.00  0.00     0.073 A 
HETATM   13  C   UNL     1       6.703  24.489  56.667  1.00  0.00     0.088 A 
HETATM   14  C   UNL     1       7.351  23.853  54.527  1.00  0.00    -0.023 A 
HETATM   15  S   UNL     1       7.988  23.419  56.982  1.00  0.00    -0.074 SA
HETATM   16  N   UNL     1       5.999  25.135  57.618  1.00  0.00    -0.358 N 
HETATM   17  C   UNL     1       8.230  23.139  55.321  1.00  0.00     0.018 A 
HETATM   18  C   UNL     1       9.294  22.229  54.814  1.00  0.00     0.281 C 
HETATM   19  N   UNL     1       9.062  21.865  53.350  1.00  0.00    -0.070 N 
HETATM   20  C   UNL     1       8.667  23.089  52.525  1.00  0.00     0.239 C 
HETATM   21  H   UNL     1       9.970  21.550  52.989  1.00  0.00     0.279 HD
HETATM   22  C   UNL     1       8.119  20.707  53.185  1.00  0.00     0.270 C 
HETATM   23  C   UNL     1       7.369  23.742  53.031  1.00  0.00     0.068 C 
HETATM   24  H   UNL     1       6.311  25.131  58.585  1.00  0.00     0.162 HD
ENDBRANCH   5   7
BRANCH   1  25
HETATM   25  O   UNL     1       9.227  29.172  58.119  1.00  0.00    -0.349 OA
BRANCH  25  26
HETATM   26  C   UNL     1      10.108  29.240  57.000  1.00  0.00     0.171 C 
HETATM   27  C   UNL     1      11.311  30.075  57.399  1.00  0.00     0.034 C 
ENDBRANCH  25  26
ENDBRANCH   1  25
BRANCH   2  28
HETATM   28  O   UNL     1       7.694  31.393  57.815  1.00  0.00    -0.272 OA
BRANCH  28  29
HETATM   29  C   UNL     1       6.939  32.187  58.652  1.00  0.00     0.300 C 
HETATM   30  O   UNL     1       5.914  32.799  58.389  1.00  0.00    -0.259 OA
BRANCH  29  31
HETATM   31  C   UNL     1       7.504  32.140  60.016  1.00  0.00     0.061 A 
HETATM   32  C   UNL     1       6.724  32.161  61.178  1.00  0.00     0.050 A 
HETATM   33 CL   UNL     1       4.997  32.212  61.161  1.00  0.00    -0.083 Cl
HETATM   34  C   UNL     1       7.345  32.075  62.429  1.00  0.00     0.025 A 
HETATM   35  C   UNL     1       8.734  31.951  62.523  1.00  0.00     0.002 A 
HETATM   36  C   UNL     1       9.509  31.906  61.366  1.00  0.00     0.001 A 
HETATM   37  C   UNL     1       8.898  31.997  60.115  1.00  0.00     0.019 A 
ENDBRANCH  29  31
ENDBRANCH  28  29
ENDBRANCH   2  28
TORSDOF 6
ENDMDL
MODEL 3
REMARK VINA RESULT:      -9.7      4.379     11.065
REMARK  6 active torsions:
REMARK  status: ('A' for Active; 'I' for Inactive)
REMARK    1  A    between atoms: C_2  and  O_3 
REMARK    2  A    between atoms: O_3  and  C_4 
REMARK    3  A    between atoms: C_5  and  O_6 
REMARK    4  A    between atoms: O_6  and  C_7 
REMARK    5  A    between atoms: C_7  and  C_8 
REMARK    6  A    between atoms: C_18  and  C_19 
ROOT
HETATM    1  C   UNL     1       5.457  32.416  62.094  1.00  0.00     0.103 A 
HETATM    2  C   UNL     1       4.078  32.581  61.940  1.00  0.00     0.112 A 
HETATM    3  C   UNL     1       3.488  32.655  60.680  1.00  0.00     0.041 A 
HETATM    4  C   UNL     1       4.282  32.517  59.545  1.00  0.00     0.014 A 
HETATM    5  C   UNL     1       5.675  32.329  59.654  1.00  0.00    -0.013 A 
HETATM    6  C   UNL     1       6.247  32.299  60.944  1.00  0.00     0.050 A 
ENDROOT
BRANCH   5   7
HETATM    7  C   UNL     1       6.486  32.181  58.373  1.00  0.00     0.219 C 
HETATM    8  N   UNL     1       7.718  31.472  58.611  1.00  0.00    -0.332 N 
HETATM    9  C   UNL     1       7.863  30.120  58.475  1.00  0.00     0.256 C 
HETATM   10  H   UNL     1       8.401  31.901  59.216  1.00  0.00     0.165 HD
HETATM   11  O   UNL     1       8.815  29.518  58.960  1.00  0.00    -0.267 OA
HETATM   12  C   UNL     1       6.842  29.464  57.680  1.00  0.00     0.073 A 
HETATM   13  C   UNL     1       5.850  30.225  57.109  1.00  0.00     0.088 A 
HETATM   14  C   UNL     1       6.706  28.078  57.353  1.00  0.00    -0.023 A 
HETATM   15  S   UNL     1       4.770  29.299  56.177  1.00  0.00    -0.074 SA
HETATM   16  N   UNL     1       5.756  31.559  57.284  1.00  0.00    -0.358 N 
HETATM   17  C   UNL     1       5.616  27.865  56.529  1.00  0.00     0.018 A 
HETATM   18  C   UNL     1       5.190  26.539  56.002  1.00  0.00     0.281 C 
HETATM   19  N   UNL     1       6.300  25.501  56.145  1.00  0.00    -0.070 N 
HETATM   20  C   UNL     1       6.968  25.583  57.516  1.00  0.00     0.239 C 
HETATM   21  H   UNL     1       5.838  24.585  56.098  1.00  0.00     0.279 HD
HETATM   22  C   UNL     1       7.276  25.539  55.004  1.00  0.00     0.270 C 
HETATM   23  C   UNL     1       7.610  26.957  57.774  1.00  0.00     0.068 C 
HETATM   24  H   UNL     1       4.925  32.063  56.983  1.00  0.00     0.162 HD
ENDBRANCH   5   7
BRANCH   1  25
HETATM   25  O   UNL     1       5.935  32.410  63.377  1.00  0.00    -0.349 OA
BRANCH  25  26
HETATM   26  C   UNL     1       7.236  32.961  63.575  1.00  0.00     0.171 C 
HETATM   27  C   UNL     1       7.236  33.703  64.899  1.00  0.00     0.034 C 
ENDBRANCH  25  26
ENDBRANCH   1  25
BRANCH   2  28
HETATM   28  O   UNL     1       3.254  32.700  63.061  1.00  0.00    -0.272 OA
BRANCH  28  29
HETATM   29  C   UNL     1       2.663  33.945  63.113  1.00  0.00     0.300 C 
HETATM   30  O   UNL     1       1.627  34.311  62.577  1.00  0.00    -0.259 OA
BRANCH  29  31
HETATM   31  C   UNL     1       3.434  34.819  64.021  1.00  0.00     0.061 A 
HETATM   32  C   UNL     1       4.316  35.811  63.577  1.00  0.00     0.050 A 
HETATM   33 CL   UNL     1       4.589  36.159  61.907  1.00  0.00    -0.083 Cl
HETATM   34  C   UNL     1       4.976  36.617  64.511  1.00  0.00     0.025 A 
HETATM   35  C   UNL     1       4.746  36.449  65.879  1.00  0.00     0.002 A 
HETATM   36  C   UNL     1       3.850  35.478  66.321  1.00  0.00     0.001 A 
HETATM   37  C   UNL     1       3.192  34.666  65.396  1.00  0.00     0.019 A 
ENDBRANCH  29  31
ENDBRANCH  28  29
ENDBRANCH   2  28
TORSDOF 6
ENDMDL
MODEL 4
REMARK VINA RESULT:      -9.7      4.908      8.068
REMARK  6 active torsions:
REMARK  status: ('A' for Active; 'I' for Inactive)
REMARK    1  A    between atoms: C_2  and  O_3 
REMARK    2  A    between atoms: O_3  and  C_4 
REMARK    3  A    between atoms: C_5  and  O_6 
REMARK    4  A    between atoms: O_6  and  C_7 
REMARK    5  A    between atoms: C_7  and  C_8 
REMARK    6  A    between atoms: C_18  and  C_19 
ROOT
HETATM    1  C   UNL     1       5.616  26.379  55.073  1.00  0.00     0.103 A 
HETATM    2  C   UNL     1       5.582  25.444  54.034  1.00  0.00     0.112 A 
HETATM    3  C   UNL     1       5.040  25.756  52.789  1.00  0.00     0.041 A 
HETATM    4  C   UNL     1       4.562  27.043  52.556  1.00  0.00     0.014 A 
HETATM    5  C   UNL     1       4.594  28.023  53.569  1.00  0.00    -0.013 A 
HETATM    6  C   UNL     1       5.113  27.662  54.832  1.00  0.00     0.050 A 
ENDROOT
BRANCH   5   7
HETATM    7  C   UNL     1       4.058  29.412  53.248  1.00  0.00     0.219 C 
HETATM    8  N   UNL     1       5.026  30.194  52.521  1.00  0.00    -0.332 N 
HETATM    9  C   UNL     1       5.093  30.258  51.158  1.00  0.00     0.256 C 
HETATM   10  H   UNL     1       5.889  30.430  52.987  1.00  0.00     0.165 HD
HETATM   11  O   UNL     1       6.086  30.680  50.576  1.00  0.00    -0.267 OA
HETATM   12  C   UNL     1       3.893  29.840  50.458  1.00  0.00     0.073 A 
HETATM   13  C   UNL     1       2.796  29.451  51.190  1.00  0.00     0.088 A 
HETATM   14  C   UNL     1       3.641  29.788  49.051  1.00  0.00    -0.023 A 
HETATM   15  S   UNL     1       1.468  29.040  50.209  1.00  0.00    -0.074 SA
HETATM   16  N   UNL     1       2.792  29.403  52.538  1.00  0.00    -0.358 N 
HETATM   17  C   UNL     1       2.348  29.374  48.791  1.00  0.00     0.018 A 
HETATM   18  C   UNL     1       1.759  29.211  47.432  1.00  0.00     0.281 C 
HETATM   19  N   UNL     1       2.601  29.918  46.374  1.00  0.00    -0.070 N 
HETATM   20  C   UNL     1       4.093  29.659  46.581  1.00  0.00     0.239 C 
HETATM   21  H   UNL     1       2.350  29.485  45.477  1.00  0.00     0.279 HD
HETATM   22  C   UNL     1       2.263  31.376  46.246  1.00  0.00     0.270 C 
HETATM   23  C   UNL     1       4.590  30.158  47.949  1.00  0.00     0.068 C 
HETATM   24  H   UNL     1       2.025  28.961  53.037  1.00  0.00     0.162 HD
ENDBRANCH   5   7
BRANCH   1  25
HETATM   25  O   UNL     1       6.123  25.948  56.270  1.00  0.00    -0.349 OA
BRANCH  25  26
HETATM   26  C   UNL     1       6.626  26.954  57.147  1.00  0.00     0.171 C 
HETATM   27  C   UNL     1       8.141  26.858  57.151  1.00  0.00     0.034 C 
ENDBRANCH  25  26
ENDBRANCH   1  25
BRANCH   2  28
HETATM   28  O   UNL     1       6.076  24.153  54.233  1.00  0.00    -0.272 OA
BRANCH  28  29
HETATM   29  C   UNL     1       7.389  24.055  53.823  1.00  0.00     0.300 C 
HETATM   30  O   UNL     1       8.105  24.937  53.370  1.00  0.00    -0.259 OA
BRANCH  29  31
HETATM   31  C   UNL     1       7.888  22.691  54.092  1.00  0.00     0.061 A 
HETATM   32  C   UNL     1       8.264  22.242  55.364  1.00  0.00     0.050 A 
HETATM   33 CL   UNL     1       8.160  23.218  56.785  1.00  0.00    -0.083 Cl
HETATM   34  C   UNL     1       8.690  20.919  55.530  1.00  0.00     0.025 A 
HETATM   35  C   UNL     1       8.726  20.044  54.441  1.00  0.00     0.002 A 
HETATM   36  C   UNL     1       8.329  20.484  53.180  1.00  0.00     0.001 A 
HETATM   37  C   UNL     1       7.908  21.803  53.005  1.00  0.00     0.019 A 
ENDBRANCH  29  31
ENDBRANCH  28  29
ENDBRANCH   2  28
TORSDOF 6
ENDMDL
MODEL 5
REMARK VINA RESULT:      -9.4      1.609      1.994
REMARK  6 active torsions:
REMARK  status: ('A' for Active; 'I' for Inactive)
REMARK    1  A    between atoms: C_2  and  O_3 
REMARK    2  A    between atoms: O_3  and  C_4 
REMARK    3  A    between atoms: C_5  and  O_6 
REMARK    4  A    between atoms: O_6  and  C_7 
REMARK    5  A    between atoms: C_7  and  C_8 
REMARK    6  A    between atoms: C_18  and  C_19 
ROOT
HETATM    1  C   UNL     1       5.705  25.929  55.167  1.00  0.00     0.103 A 
HETATM    2  C   UNL     1       6.426  25.581  56.312  1.00  0.00     0.112 A 
HETATM    3  C   UNL     1       6.955  26.549  57.164  1.00  0.00     0.041 A 
HETATM    4  C   UNL     1       6.722  27.895  56.895  1.00  0.00     0.014 A 
HETATM    5  C   UNL     1       5.984  28.290  55.762  1.00  0.00    -0.013 A 
HETATM    6  C   UNL     1       5.496  27.286  54.897  1.00  0.00     0.050 A 
ENDROOT
BRANCH   5   7
HETATM    7  C   UNL     1       5.763  29.779  55.527  1.00  0.00     0.219 C 
HETATM    8  N   UNL     1       4.384  30.145  55.737  1.00  0.00    -0.332 N 
HETATM    9  C   UNL     1       3.881  30.588  56.927  1.00  0.00     0.256 C 
HETATM   10  H   UNL     1       3.692  29.753  55.117  1.00  0.00     0.165 HD
HETATM   11  O   UNL     1       2.677  30.607  57.156  1.00  0.00    -0.267 OA
HETATM   12  C   UNL     1       4.867  31.077  57.874  1.00  0.00     0.073 A 
HETATM   13  C   UNL     1       6.192  31.091  57.508  1.00  0.00     0.088 A 
HETATM   14  C   UNL     1       4.671  31.601  59.190  1.00  0.00    -0.023 A 
HETATM   15  S   UNL     1       7.197  31.737  58.718  1.00  0.00    -0.074 SA
HETATM   16  N   UNL     1       6.630  30.634  56.317  1.00  0.00    -0.358 N 
HETATM   17  C   UNL     1       5.870  32.003  59.750  1.00  0.00     0.018 A 
HETATM   18  C   UNL     1       6.023  32.593  61.109  1.00  0.00     0.281 C 
HETATM   19  N   UNL     1       4.682  33.066  61.663  1.00  0.00    -0.070 N 
HETATM   20  C   UNL     1       3.579  32.039  61.412  1.00  0.00     0.239 C 
HETATM   21  H   UNL     1       4.801  33.124  62.681  1.00  0.00     0.279 HD
HETATM   22  C   UNL     1       4.323  34.449  61.202  1.00  0.00     0.270 C 
HETATM   23  C   UNL     1       3.366  31.762  59.913  1.00  0.00     0.068 C 
HETATM   24  H   UNL     1       7.624  30.510  56.144  1.00  0.00     0.162 HD
ENDBRANCH   5   7
BRANCH   1  25
HETATM   25  O   UNL     1       5.277  24.898  54.374  1.00  0.00    -0.349 OA
BRANCH  25  26
HETATM   26  C   UNL     1       4.416  25.242  53.290  1.00  0.00     0.171 C 
HETATM   27  C   UNL     1       5.147  24.939  51.994  1.00  0.00     0.034 C 
ENDBRANCH  25  26
ENDBRANCH   1  25
BRANCH   2  28
HETATM   28  O   UNL     1       6.655  24.238  56.619  1.00  0.00    -0.272 OA
BRANCH  28  29
HETATM   29  C   UNL     1       7.945  23.868  56.299  1.00  0.00     0.300 C 
HETATM   30  O   UNL     1       8.989  24.274  56.789  1.00  0.00    -0.259 OA
BRANCH  29  31
HETATM   31  C   UNL     1       7.912  22.792  55.288  1.00  0.00     0.061 A 
HETATM   32  C   UNL     1       8.044  23.019  53.912  1.00  0.00     0.050 A 
HETATM   33 CL   UNL     1       8.294  24.585  53.228  1.00  0.00    -0.083 Cl
HETATM   34  C   UNL     1       8.039  21.932  53.030  1.00  0.00     0.025 A 
HETATM   35  C   UNL     1       7.921  20.627  53.514  1.00  0.00     0.002 A 
HETATM   36  C   UNL     1       7.813  20.400  54.885  1.00  0.00     0.001 A 
HETATM   37  C   UNL     1       7.812  21.478  55.771  1.00  0.00     0.019 A 
ENDBRANCH  29  31
ENDBRANCH  28  29
ENDBRANCH   2  28
TORSDOF 6
ENDMDL
MODEL 6
REMARK VINA RESULT:      -9.4      3.867      6.148
REMARK  6 active torsions:
REMARK  status: ('A' for Active; 'I' for Inactive)
REMARK    1  A    between atoms: C_2  and  O_3 
REMARK    2  A    between atoms: O_3  and  C_4 
REMARK    3  A    between atoms: C_5  and  O_6 
REMARK    4  A    between atoms: O_6  and  C_7 
REMARK    5  A    between atoms: C_7  and  C_8 
REMARK    6  A    between atoms: C_18  and  C_19 
ROOT
HETATM    1  C   UNL     1       6.312  25.670  52.628  1.00  0.00     0.103 A 
HETATM    2  C   UNL     1       5.606  26.650  51.924  1.00  0.00     0.112 A 
HETATM    3  C   UNL     1       4.706  27.501  52.562  1.00  0.00     0.041 A 
HETATM    4  C   UNL     1       4.536  27.405  53.941  1.00  0.00     0.014 A 
HETATM    5  C   UNL     1       5.242  26.444  54.693  1.00  0.00    -0.013 A 
HETATM    6  C   UNL     1       6.117  25.571  54.010  1.00  0.00     0.050 A 
ENDROOT
BRANCH   5   7
HETATM    7  C   UNL     1       5.013  26.394  56.198  1.00  0.00     0.219 C 
HETATM    8  N   UNL     1       6.232  26.088  56.905  1.00  0.00    -0.332 N 
HETATM    9  C   UNL     1       7.093  27.030  57.393  1.00  0.00     0.256 C 
HETATM   10  H   UNL     1       6.654  25.185  56.750  1.00  0.00     0.165 HD
HETATM   11  O   UNL     1       8.242  26.752  57.718  1.00  0.00    -0.267 OA
HETATM   12  C   UNL     1       6.535  28.361  57.544  1.00  0.00     0.073 A 
HETATM   13  C   UNL     1       5.214  28.570  57.226  1.00  0.00     0.088 A 
HETATM   14  C   UNL     1       7.164  29.553  58.020  1.00  0.00    -0.023 A 
HETATM   15  S   UNL     1       4.720  30.173  57.507  1.00  0.00    -0.074 SA
HETATM   16  N   UNL     1       4.413  27.599  56.741  1.00  0.00    -0.358 N 
HETATM   17  C   UNL     1       6.271  30.609  58.054  1.00  0.00     0.018 A 
HETATM   18  C   UNL     1       6.599  31.992  58.499  1.00  0.00     0.281 C 
HETATM   19  N   UNL     1       7.911  32.028  59.278  1.00  0.00    -0.070 N 
HETATM   20  C   UNL     1       8.988  31.184  58.599  1.00  0.00     0.239 C 
HETATM   21  H   UNL     1       8.235  33.002  59.241  1.00  0.00     0.279 HD
HETATM   22  C   UNL     1       7.728  31.701  60.732  1.00  0.00     0.270 C 
HETATM   23  C   UNL     1       8.585  29.704  58.480  1.00  0.00     0.068 C 
HETATM   24  H   UNL     1       3.495  27.824  56.368  1.00  0.00     0.162 HD
ENDBRANCH   5   7
BRANCH   1  25
HETATM   25  O   UNL     1       7.130  24.856  51.892  1.00  0.00    -0.349 OA
BRANCH  25  26
HETATM   26  C   UNL     1       8.195  24.220  52.595  1.00  0.00     0.171 C 
HETATM   27  C   UNL     1       7.803  22.773  52.833  1.00  0.00     0.034 C 
ENDBRANCH  25  26
ENDBRANCH   1  25
BRANCH   2  28
HETATM   28  O   UNL     1       5.773  26.784  50.544  1.00  0.00    -0.272 OA
BRANCH  28  29
HETATM   29  C   UNL     1       5.125  27.906  50.072  1.00  0.00     0.300 C 
HETATM   30  O   UNL     1       5.446  29.077  50.215  1.00  0.00    -0.259 OA
BRANCH  29  31
HETATM   31  C   UNL     1       3.970  27.498  49.248  1.00  0.00     0.061 A 
HETATM   32  C   UNL     1       2.691  28.052  49.380  1.00  0.00     0.050 A 
HETATM   33 CL   UNL     1       2.312  29.308  50.505  1.00  0.00    -0.083 Cl
HETATM   34  C   UNL     1       1.663  27.629  48.528  1.00  0.00     0.025 A 
HETATM   35  C   UNL     1       1.912  26.673  47.541  1.00  0.00     0.002 A 
HETATM   36  C   UNL     1       3.190  26.139  47.393  1.00  0.00     0.001 A 
HETATM   37  C   UNL     1       4.218  26.551  48.241  1.00  0.00     0.019 A 
ENDBRANCH  29  31
ENDBRANCH  28  29
ENDBRANCH   2  28
TORSDOF 6
ENDMDL
MODEL 7
REMARK VINA RESULT:      -9.2      4.438     10.775
REMARK  6 active torsions:
REMARK  status: ('A' for Active; 'I' for Inactive)
REMARK    1  A    between atoms: C_2  and  O_3 
REMARK    2  A    between atoms: O_3  and  C_4 
REMARK    3  A    between atoms: C_5  and  O_6 
REMARK    4  A    between atoms: O_6  and  C_7 
REMARK    5  A    between atoms: C_7  and  C_8 
REMARK    6  A    between atoms: C_18  and  C_19 
ROOT
HETATM    1  C   UNL     1       4.652  32.483  61.677  1.00  0.00     0.103 A 
HETATM    2  C   UNL     1       5.626  32.252  62.652  1.00  0.00     0.112 A 
HETATM    3  C   UNL     1       6.927  31.887  62.311  1.00  0.00     0.041 A 
HETATM    4  C   UNL     1       7.281  31.795  60.968  1.00  0.00     0.014 A 
HETATM    5  C   UNL     1       6.335  32.040  59.952  1.00  0.00    -0.013 A 
HETATM    6  C   UNL     1       5.015  32.367  60.331  1.00  0.00     0.050 A 
ENDROOT
BRANCH   5   7
HETATM    7  C   UNL     1       6.787  31.925  58.502  1.00  0.00     0.219 C 
HETATM    8  N   UNL     1       8.064  31.263  58.400  1.00  0.00    -0.332 N 
HETATM    9  C   UNL     1       8.218  29.919  58.215  1.00  0.00     0.256 C 
HETATM   10  H   UNL     1       8.865  31.718  58.810  1.00  0.00     0.165 HD
HETATM   11  O   UNL     1       9.285  29.353  58.426  1.00  0.00    -0.267 OA
HETATM   12  C   UNL     1       7.049  29.225  57.707  1.00  0.00     0.073 A 
HETATM   13  C   UNL     1       5.915  29.948  57.425  1.00  0.00     0.088 A 
HETATM   14  C   UNL     1       6.883  27.836  57.410  1.00  0.00    -0.023 A 
HETATM   15  S   UNL     1       4.663  28.983  56.797  1.00  0.00    -0.074 SA
HETATM   16  N   UNL     1       5.820  31.278  57.634  1.00  0.00    -0.358 N 
HETATM   17  C   UNL     1       5.624  27.582  56.898  1.00  0.00     0.018 A 
HETATM   18  C   UNL     1       5.123  26.241  56.485  1.00  0.00     0.281 C 
HETATM   19  N   UNL     1       6.269  25.247  56.321  1.00  0.00    -0.070 N 
HETATM   20  C   UNL     1       7.271  25.352  57.470  1.00  0.00     0.239 C 
HETATM   21  H   UNL     1       5.846  24.314  56.385  1.00  0.00     0.279 HD
HETATM   22  C   UNL     1       6.910  25.325  54.964  1.00  0.00     0.270 C 
HETATM   23  C   UNL     1       7.907  26.749  57.567  1.00  0.00     0.068 C 
HETATM   24  H   UNL     1       4.922  31.749  57.568  1.00  0.00     0.162 HD
ENDBRANCH   5   7
BRANCH   1  25
HETATM   25  O   UNL     1       3.394  32.783  62.126  1.00  0.00    -0.349 OA
BRANCH  25  26
HETATM   26  C   UNL     1       2.724  33.859  61.472  1.00  0.00     0.171 C 
HETATM   27  C   UNL     1       2.325  34.876  62.527  1.00  0.00     0.034 C 
ENDBRANCH  25  26
ENDBRANCH   1  25
BRANCH   2  28
HETATM   28  O   UNL     1       5.306  32.358  64.007  1.00  0.00    -0.272 OA
BRANCH  28  29
HETATM   29  C   UNL     1       6.145  33.246  64.647  1.00  0.00     0.300 C 
HETATM   30  O   UNL     1       7.215  33.012  65.192  1.00  0.00    -0.259 OA
BRANCH  29  31
HETATM   31  C   UNL     1       5.608  34.615  64.515  1.00  0.00     0.061 A 
HETATM   32  C   UNL     1       4.714  35.187  65.429  1.00  0.00     0.050 A 
HETATM   33 CL   UNL     1       4.152  34.371  66.845  1.00  0.00    -0.083 Cl
HETATM   34  C   UNL     1       4.286  36.507  65.243  1.00  0.00     0.025 A 
HETATM   35  C   UNL     1       4.758  37.258  64.164  1.00  0.00     0.002 A 
HETATM   36  C   UNL     1       5.666  36.698  63.268  1.00  0.00     0.001 A 
HETATM   37  C   UNL     1       6.093  35.381  63.443  1.00  0.00     0.019 A 
ENDBRANCH  29  31
ENDBRANCH  28  29
ENDBRANCH   2  28
TORSDOF 6
ENDMDL
MODEL 8
REMARK VINA RESULT:      -9.0      4.751      7.283
REMARK  6 active torsions:
REMARK  status: ('A' for Active; 'I' for Inactive)
REMARK    1  A    between atoms: C_2  and  O_3 
REMARK    2  A    between atoms: O_3  and  C_4 
REMARK    3  A    between atoms: C_5  and  O_6 
REMARK    4  A    between atoms: O_6  and  C_7 
REMARK    5  A    between atoms: C_7  and  C_8 
REMARK    6  A    between atoms: C_18  and  C_19 
ROOT
HETATM    1  C   UNL     1       6.234  27.118  55.021  1.00  0.00     0.103 A 
HETATM    2  C   UNL     1       6.523  25.951  54.308  1.00  0.00     0.112 A 
HETATM    3  C   UNL     1       5.744  25.544  53.227  1.00  0.00     0.041 A 
HETATM    4  C   UNL     1       4.678  26.341  52.816  1.00  0.00     0.014 A 
HETATM    5  C   UNL     1       4.362  27.535  53.494  1.00  0.00    -0.013 A 
HETATM    6  C   UNL     1       5.147  27.898  54.611  1.00  0.00     0.050 A 
ENDROOT
BRANCH   5   7
HETATM    7  C   UNL     1       3.186  28.362  52.992  1.00  0.00     0.219 C 
HETATM    8  N   UNL     1       3.304  29.742  53.393  1.00  0.00    -0.332 N 
HETATM    9  C   UNL     1       3.893  30.713  52.634  1.00  0.00     0.256 C 
HETATM   10  H   UNL     1       3.272  29.951  54.379  1.00  0.00     0.165 HD
HETATM   11  O   UNL     1       4.240  31.788  53.111  1.00  0.00    -0.267 OA
HETATM   12  C   UNL     1       4.030  30.400  51.224  1.00  0.00     0.073 A 
HETATM   13  C   UNL     1       3.546  29.201  50.757  1.00  0.00     0.088 A 
HETATM   14  C   UNL     1       4.596  31.191  50.176  1.00  0.00    -0.023 A 
HETATM   15  S   UNL     1       3.750  29.023  49.078  1.00  0.00    -0.074 SA
HETATM   16  N   UNL     1       2.977  28.277  51.558  1.00  0.00    -0.358 N 
HETATM   17  C   UNL     1       4.494  30.549  48.955  1.00  0.00     0.018 A 
HETATM   18  C   UNL     1       4.984  31.094  47.659  1.00  0.00     0.281 C 
HETATM   19  N   UNL     1       5.257  32.592  47.754  1.00  0.00    -0.070 N 
HETATM   20  C   UNL     1       5.997  32.946  49.043  1.00  0.00     0.239 C 
HETATM   21  H   UNL     1       5.894  32.814  46.980  1.00  0.00     0.279 HD
HETATM   22  C   UNL     1       4.022  33.419  47.531  1.00  0.00     0.270 C 
HETATM   23  C   UNL     1       5.199  32.560  50.301  1.00  0.00     0.068 C 
HETATM   24  H   UNL     1       2.778  27.343  51.210  1.00  0.00     0.162 HD
ENDBRANCH   5   7
BRANCH   1  25
HETATM   25  O   UNL     1       7.034  27.393  56.098  1.00  0.00    -0.349 OA
BRANCH  25  26
HETATM   26  C   UNL     1       7.442  28.750  56.257  1.00  0.00     0.171 C 
HETATM   27  C   UNL     1       8.725  28.950  55.471  1.00  0.00     0.034 C 
ENDBRANCH  25  26
ENDBRANCH   1  25
BRANCH   2  28
HETATM   28  O   UNL     1       7.600  25.145  54.683  1.00  0.00    -0.272 OA
BRANCH  28  29
HETATM   29  C   UNL     1       7.178  24.077  55.447  1.00  0.00     0.300 C 
HETATM   30  O   UNL     1       6.412  24.088  56.400  1.00  0.00    -0.259 OA
BRANCH  29  31
HETATM   31  C   UNL     1       7.728  22.825  54.890  1.00  0.00     0.061 A 
HETATM   32  C   UNL     1       8.281  21.806  55.674  1.00  0.00     0.050 A 
HETATM   33 CL   UNL     1       8.360  21.873  57.399  1.00  0.00    -0.083 Cl
HETATM   34  C   UNL     1       8.744  20.636  55.061  1.00  0.00     0.025 A 
HETATM   35  C   UNL     1       8.642  20.474  53.677  1.00  0.00     0.002 A 
HETATM   36  C   UNL     1       8.070  21.478  52.898  1.00  0.00     0.001 A 
HETATM   37  C   UNL     1       7.611  22.649  53.501  1.00  0.00     0.019 A 
ENDBRANCH  29  31
ENDBRANCH  28  29
ENDBRANCH   2  28
TORSDOF 6
ENDMDL
MODEL 9
REMARK VINA RESULT:      -8.6      5.355      8.312
REMARK  6 active torsions:
REMARK  status: ('A' for Active; 'I' for Inactive)
REMARK    1  A    between atoms: C_2  and  O_3 
REMARK    2  A    between atoms: O_3  and  C_4 
REMARK    3  A    between atoms: C_5  and  O_6 
REMARK    4  A    between atoms: O_6  and  C_7 
REMARK    5  A    between atoms: C_7  and  C_8 
REMARK    6  A    between atoms: C_18  and  C_19 
ROOT
HETATM    1  C   UNL     1       5.263  28.418  55.548  1.00  0.00     0.103 A 
HETATM    2  C   UNL     1       5.273  27.278  54.740  1.00  0.00     0.112 A 
HETATM    3  C   UNL     1       4.729  27.288  53.457  1.00  0.00     0.041 A 
HETATM    4  C   UNL     1       4.204  28.472  52.947  1.00  0.00     0.014 A 
HETATM    5  C   UNL     1       4.191  29.651  53.720  1.00  0.00    -0.013 A 
HETATM    6  C   UNL     1       4.713  29.597  55.031  1.00  0.00     0.050 A 
ENDROOT
BRANCH   5   7
HETATM    7  C   UNL     1       3.605  30.914  53.102  1.00  0.00     0.219 C 
HETATM    8  N   UNL     1       4.603  31.654  52.371  1.00  0.00    -0.332 N 
HETATM    9  C   UNL     1       4.846  31.501  51.036  1.00  0.00     0.256 C 
HETATM   10  H   UNL     1       5.378  32.041  52.890  1.00  0.00     0.165 HD
HETATM   11  O   UNL     1       5.875  31.913  50.512  1.00  0.00    -0.267 OA
HETATM   12  C   UNL     1       3.782  30.866  50.281  1.00  0.00     0.073 A 
HETATM   13  C   UNL     1       2.628  30.502  50.933  1.00  0.00     0.088 A 
HETATM   14  C   UNL     1       3.724  30.563  48.885  1.00  0.00    -0.023 A 
HETATM   15  S   UNL     1       1.475  29.816  49.888  1.00  0.00    -0.074 SA
HETATM   16  N   UNL     1       2.448  30.673  52.259  1.00  0.00    -0.358 N 
HETATM   17  C   UNL     1       2.509  29.994  48.548  1.00  0.00     0.018 A 
HETATM   18  C   UNL     1       2.119  29.559  47.178  1.00  0.00     0.281 C 
HETATM   19  N   UNL     1       3.042  30.160  46.121  1.00  0.00    -0.070 N 
HETATM   20  C   UNL     1       4.507  30.077  46.545  1.00  0.00     0.239 C 
HETATM   21  H   UNL     1       2.943  29.566  45.289  1.00  0.00     0.279 HD
HETATM   22  C   UNL     1       2.620  31.540  45.704  1.00  0.00     0.270 C 
HETATM   23  C   UNL     1       4.781  30.835  47.855  1.00  0.00     0.068 C 
HETATM   24  H   UNL     1       1.655  30.249  52.733  1.00  0.00     0.162 HD
ENDBRANCH   5   7
BRANCH   1  25
HETATM   25  O   UNL     1       5.775  28.280  56.810  1.00  0.00    -0.349 OA
BRANCH  25  26
HETATM   26  C   UNL     1       6.494  29.397  57.330  1.00  0.00     0.171 C 
HETATM   27  C   UNL     1       7.936  29.284  56.869  1.00  0.00     0.034 C 
ENDBRANCH  25  26
ENDBRANCH   1  25
BRANCH   2  28
HETATM   28  O   UNL     1       5.813  26.082  55.216  1.00  0.00    -0.272 OA
BRANCH  28  29
HETATM   29  C   UNL     1       7.096  25.894  54.746  1.00  0.00     0.300 C 
HETATM   30  O   UNL     1       7.980  26.728  54.615  1.00  0.00    -0.259 OA
BRANCH  29  31
HETATM   31  C   UNL     1       7.318  24.458  54.481  1.00  0.00     0.061 A 
HETATM   32  C   UNL     1       7.544  23.933  53.202  1.00  0.00     0.050 A 
HETATM   33 CL   UNL     1       7.623  24.906  51.777  1.00  0.00    -0.083 Cl
HETATM   34  C   UNL     1       7.783  22.562  53.051  1.00  0.00     0.025 A 
HETATM   35  C   UNL     1       7.813  21.722  54.167  1.00  0.00     0.002 A 
HETATM   36  C   UNL     1       7.612  22.248  55.442  1.00  0.00     0.001 A 
HETATM   37  C   UNL     1       7.368  23.612  55.600  1.00  0.00     0.019 A 
ENDBRANCH  29  31
ENDBRANCH  28  29
ENDBRANCH   2  28
TORSDOF 6
ENDMDL
MODEL 10
REMARK VINA RESULT:      -8.4      4.192      5.638
REMARK  6 active torsions:
REMARK  status: ('A' for Active; 'I' for Inactive)
REMARK    1  A    between atoms: C_2  and  O_3 
REMARK    2  A    between atoms: O_3  and  C_4 
REMARK    3  A    between atoms: C_5  and  O_6 
REMARK    4  A    between atoms: O_6  and  C_7 
REMARK    5  A    between atoms: C_7  and  C_8 
REMARK    6  A    between atoms: C_18  and  C_19 
ROOT
HETATM    1  C   UNL     1       5.167  28.472  53.077  1.00  0.00     0.103 A 
HETATM    2  C   UNL     1       5.683  27.576  54.018  1.00  0.00     0.112 A 
HETATM    3  C   UNL     1       5.427  27.720  55.380  1.00  0.00     0.041 A 
HETATM    4  C   UNL     1       4.601  28.753  55.814  1.00  0.00     0.014 A 
HETATM    5  C   UNL     1       4.044  29.668  54.898  1.00  0.00    -0.013 A 
HETATM    6  C   UNL     1       4.355  29.518  53.529  1.00  0.00     0.050 A 
ENDROOT
BRANCH   5   7
HETATM    7  C   UNL     1       3.145  30.774  55.437  1.00  0.00     0.219 C 
HETATM    8  N   UNL     1       3.843  31.600  56.391  1.00  0.00    -0.332 N 
HETATM    9  C   UNL     1       4.513  32.745  56.067  1.00  0.00     0.256 C 
HETATM   10  H   UNL     1       4.150  31.171  57.251  1.00  0.00     0.165 HD
HETATM   11  O   UNL     1       5.329  33.256  56.827  1.00  0.00    -0.267 OA
HETATM   12  C   UNL     1       4.153  33.335  54.791  1.00  0.00     0.073 A 
HETATM   13  C   UNL     1       3.172  32.739  54.035  1.00  0.00     0.088 A 
HETATM   14  C   UNL     1       4.662  34.518  54.169  1.00  0.00    -0.023 A 
HETATM   15  S   UNL     1       2.848  33.589  52.598  1.00  0.00    -0.074 SA
HETATM   16  N   UNL     1       2.548  31.602  54.405  1.00  0.00    -0.358 N 
HETATM   17  C   UNL     1       4.021  34.765  52.969  1.00  0.00     0.018 A 
HETATM   18  C   UNL     1       4.309  35.915  52.067  1.00  0.00     0.281 C 
HETATM   19  N   UNL     1       5.107  36.999  52.786  1.00  0.00    -0.070 N 
HETATM   20  C   UNL     1       6.237  36.400  53.622  1.00  0.00     0.239 C 
HETATM   21  H   UNL     1       5.552  37.558  52.049  1.00  0.00     0.279 HD
HETATM   22  C   UNL     1       4.231  37.943  53.559  1.00  0.00     0.270 C 
HETATM   23  C   UNL     1       5.718  35.439  54.706  1.00  0.00     0.068 C 
HETATM   24  H   UNL     1       1.949  31.105  53.752  1.00  0.00     0.162 HD
ENDBRANCH   5   7
BRANCH   1  25
HETATM   25  O   UNL     1       5.526  28.266  51.772  1.00  0.00    -0.349 OA
BRANCH  25  26
HETATM   26  C   UNL     1       4.491  27.846  50.886  1.00  0.00     0.171 C 
HETATM   27  C   UNL     1       4.959  26.587  50.178  1.00  0.00     0.034 C 
ENDBRANCH  25  26
ENDBRANCH   1  25
BRANCH   2  28
HETATM   28  O   UNL     1       6.497  26.517  53.609  1.00  0.00    -0.272 OA
BRANCH  28  29
HETATM   29  C   UNL     1       5.812  25.320  53.650  1.00  0.00     0.300 C 
HETATM   30  O   UNL     1       4.637  25.115  53.382  1.00  0.00    -0.259 OA
BRANCH  29  31
HETATM   31  C   UNL     1       6.746  24.230  53.995  1.00  0.00     0.061 A 
HETATM   32  C   UNL     1       7.069  23.875  55.311  1.00  0.00     0.050 A 
HETATM   33 CL   UNL     1       6.388  24.650  56.697  1.00  0.00    -0.083 Cl
HETATM   34  C   UNL     1       7.936  22.801  55.543  1.00  0.00     0.025 A 
HETATM   35  C   UNL     1       8.466  22.074  54.474  1.00  0.00     0.002 A 
HETATM   36  C   UNL     1       8.126  22.412  53.166  1.00  0.00     0.001 A 
HETATM   37  C   UNL     1       7.266  23.484  52.925  1.00  0.00     0.019 A 
ENDBRANCH  29  31
ENDBRANCH  28  29
ENDBRANCH   2  28
TORSDOF 6
ENDMDL
