MODEL 1
REMARK VINA RESULT:      -9.4      0.000      0.000
REMARK  7 active torsions:
REMARK  status: ('A' for Active; 'I' for Inactive)
REMARK    1  A    between atoms: C_2  and  N_3 
REMARK    2  A    between atoms: N_3  and  C_4 
REMARK    3  A    between atoms: C_6  and  N_7 
REMARK    4  A    between atoms: N_7  and  C_8 
REMARK    5  A    between atoms: C_8  and  C_9 
REMARK    6  A    between atoms: C_9  and  C_10 
REMARK    7  A    between atoms: C_12  and  O_13 
ROOT
HETATM    1  C   UNL     1       7.437  24.544  53.763  1.00  0.00     0.119 A 
HETATM    2  N   UNL     1       7.267  25.377  54.806  1.00  0.00    -0.207 NA
HETATM    3  C   UNL     1       7.259  24.861  56.045  1.00  0.00     0.181 A 
HETATM    4  N   UNL     1       7.450  23.564  56.276  1.00  0.00    -0.330 N 
HETATM    5  H   UNL     1       7.495  23.271  57.243  1.00  0.00     0.168 HD
HETATM    6  C   UNL     1       7.641  22.694  55.280  1.00  0.00     0.048 A 
HETATM    7  C   UNL     1       7.642  23.160  53.952  1.00  0.00     0.031 A 
HETATM    8  C   UNL     1       7.845  21.335  55.566  1.00  0.00     0.030 A 
HETATM    9  C   UNL     1       8.054  20.426  54.530  1.00  0.00     0.002 A 
HETATM   10  C   UNL     1       8.068  20.866  53.210  1.00  0.00     0.001 A 
HETATM   11  C   UNL     1       7.868  22.219  52.921  1.00  0.00     0.017 A 
ENDROOT
BRANCH   3  12
HETATM   12  N   UNL     1       7.070  25.661  57.166  1.00  0.00    -0.262 NA
HETATM   13  H   UNL     1       6.152  26.099  57.193  1.00  0.00     0.130 HD
BRANCH  12  14
HETATM   14  C   UNL     1       8.140  26.641  57.408  1.00  0.00     0.100 C 
BRANCH  14  15
HETATM   15  C   UNL     1       7.534  28.037  57.600  1.00  0.00     0.053 C 
BRANCH  15  16
HETATM   16  C   UNL     1       8.597  29.102  57.691  1.00  0.00    -0.054 A 
HETATM   17  C   UNL     1       8.374  30.267  58.446  1.00  0.00     0.044 A 
HETATM   18  C   UNL     1       9.349  31.266  58.516  1.00  0.00     0.068 A 
HETATM   19  C   UNL     1      10.549  31.099  57.821  1.00  0.00     0.037 A 
HETATM   20  C   UNL     1      10.779  29.948  57.068  1.00  0.00     0.003 A 
HETATM   21  C   UNL     1       9.806  28.952  57.001  1.00  0.00     0.007 A 
BRANCH  18  22
HETATM   22  O   UNL     1       9.253  32.439  59.211  1.00  0.00    -0.356 OA
HETATM   23  C   UNL     1       8.649  32.387  60.496  1.00  0.00     0.210 C 
ENDBRANCH  18  22
ENDBRANCH  15  16
ENDBRANCH  14  15
ENDBRANCH  12  14
ENDBRANCH   3  12
BRANCH   1  24
HETATM   24  N   UNL     1       7.473  25.076  52.472  1.00  0.00    -0.273 NA
HETATM   25  H   UNL     1       7.934  24.455  51.811  1.00  0.00     0.129 HD
BRANCH  24  26
HETATM   26  C   UNL     1       6.255  25.672  51.909  1.00  0.00     0.053 C 
HETATM   27  C   UNL     1       6.067  27.103  52.412  1.00  0.00     0.026 C 
HETATM   28  C   UNL     1       5.069  24.806  52.339  1.00  0.00     0.026 C 
ENDBRANCH  24  26
ENDBRANCH   1  24
TORSDOF 7
ENDMDL
MODEL 2
REMARK VINA RESULT:      -9.0      1.326      1.989
REMARK  7 active torsions:
REMARK  status: ('A' for Active; 'I' for Inactive)
REMARK    1  A    between atoms: C_2  and  N_3 
REMARK    2  A    between atoms: N_3  and  C_4 
REMARK    3  A    between atoms: C_6  and  N_7 
REMARK    4  A    between atoms: N_7  and  C_8 
REMARK    5  A    between atoms: C_8  and  C_9 
REMARK    6  A    between atoms: C_9  and  C_10 
REMARK    7  A    between atoms: C_12  and  O_13 
ROOT
HETATM    1  C   UNL     1       6.957  23.710  54.503  1.00  0.00     0.119 A 
HETATM    2  N   UNL     1       7.035  24.521  55.575  1.00  0.00    -0.207 NA
HETATM    3  C   UNL     1       7.742  24.112  56.639  1.00  0.00     0.181 A 
HETATM    4  N   UNL     1       8.397  22.953  56.655  1.00  0.00    -0.330 N 
HETATM    5  H   UNL     1       8.960  22.754  57.471  1.00  0.00     0.168 HD
HETATM    6  C   UNL     1       8.371  22.117  55.612  1.00  0.00     0.048 A 
HETATM    7  C   UNL     1       7.632  22.471  54.468  1.00  0.00     0.031 A 
HETATM    8  C   UNL     1       9.081  20.908  55.665  1.00  0.00     0.030 A 
HETATM    9  C   UNL     1       9.063  20.037  54.577  1.00  0.00     0.002 A 
HETATM   10  C   UNL     1       8.346  20.371  53.432  1.00  0.00     0.001 A 
HETATM   11  C   UNL     1       7.641  21.575  53.373  1.00  0.00     0.017 A 
ENDROOT
BRANCH   3  12
HETATM   12  N   UNL     1       7.848  24.891  57.787  1.00  0.00    -0.262 NA
HETATM   13  H   UNL     1       7.632  24.378  58.637  1.00  0.00     0.130 HD
BRANCH  12  14
HETATM   14  C   UNL     1       7.120  26.168  57.729  1.00  0.00     0.100 C 
BRANCH  14  15
HETATM   15  C   UNL     1       8.103  27.314  57.459  1.00  0.00     0.053 C 
BRANCH  15  16
HETATM   16  C   UNL     1       7.467  28.663  57.685  1.00  0.00    -0.054 A 
HETATM   17  C   UNL     1       8.206  29.709  58.265  1.00  0.00     0.044 A 
HETATM   18  C   UNL     1       7.613  30.953  58.495  1.00  0.00     0.068 A 
HETATM   19  C   UNL     1       6.274  31.147  58.149  1.00  0.00     0.037 A 
HETATM   20  C   UNL     1       5.532  30.116  57.575  1.00  0.00     0.003 A 
HETATM   21  C   UNL     1       6.126  28.876  57.344  1.00  0.00     0.007 A 
BRANCH  18  22
HETATM   22  O   UNL     1       8.221  32.045  59.051  1.00  0.00    -0.356 OA
HETATM   23  C   UNL     1       9.544  31.875  59.541  1.00  0.00     0.210 C 
ENDBRANCH  18  22
ENDBRANCH  15  16
ENDBRANCH  14  15
ENDBRANCH  12  14
ENDBRANCH   3  12
BRANCH   1  24
HETATM   24  N   UNL     1       6.245  24.140  53.381  1.00  0.00    -0.273 NA
HETATM   25  H   UNL     1       5.239  24.107  53.527  1.00  0.00     0.129 HD
BRANCH  24  26
HETATM   26  C   UNL     1       6.663  25.370  52.697  1.00  0.00     0.053 C 
HETATM   27  C   UNL     1       5.688  25.725  51.574  1.00  0.00     0.026 C 
HETATM   28  C   UNL     1       8.060  25.135  52.122  1.00  0.00     0.026 C 
ENDBRANCH  24  26
ENDBRANCH   1  24
TORSDOF 7
ENDMDL
MODEL 3
REMARK VINA RESULT:      -8.9      4.002      7.684
REMARK  7 active torsions:
REMARK  status: ('A' for Active; 'I' for Inactive)
REMARK    1  A    between atoms: C_2  and  N_3 
REMARK    2  A    between atoms: N_3  and  C_4 
REMARK    3  A    between atoms: C_6  and  N_7 
REMARK    4  A    between atoms: N_7  and  C_8 
REMARK    5  A    between atoms: C_8  and  C_9 
REMARK    6  A    between atoms: C_9  and  C_10 
REMARK    7  A    between atoms: C_12  and  O_13 
ROOT
HETATM    1  C   UNL     1       7.793  24.099  55.097  1.00  0.00     0.119 A 
HETATM    2  N   UNL     1       7.575  24.925  54.057  1.00  0.00    -0.207 NA
HETATM    3  C   UNL     1       7.676  24.431  52.813  1.00  0.00     0.181 A 
HETATM    4  N   UNL     1       7.945  23.149  52.576  1.00  0.00    -0.330 N 
HETATM    5  H   UNL     1       7.936  22.848  51.611  1.00  0.00     0.168 HD
HETATM    6  C   UNL     1       8.152  22.280  53.570  1.00  0.00     0.048 A 
HETATM    7  C   UNL     1       8.083  22.731  54.902  1.00  0.00     0.031 A 
HETATM    8  C   UNL     1       8.427  20.935  53.279  1.00  0.00     0.030 A 
HETATM    9  C   UNL     1       8.635  20.023  54.314  1.00  0.00     0.002 A 
HETATM   10  C   UNL     1       8.562  20.446  55.637  1.00  0.00     0.001 A 
HETATM   11  C   UNL     1       8.286  21.783  55.932  1.00  0.00     0.017 A 
ENDROOT
BRANCH   3  12
HETATM   12  N   UNL     1       7.482  25.233  51.694  1.00  0.00    -0.262 NA
HETATM   13  H   UNL     1       8.345  25.641  51.341  1.00  0.00     0.130 HD
BRANCH  12  14
HETATM   14  C   UNL     1       6.428  26.249  51.842  1.00  0.00     0.100 C 
BRANCH  14  15
HETATM   15  C   UNL     1       5.137  25.760  51.174  1.00  0.00     0.053 C 
BRANCH  15  16
HETATM   16  C   UNL     1       4.813  26.552  49.933  1.00  0.00    -0.054 A 
HETATM   17  C   UNL     1       3.965  26.017  48.948  1.00  0.00     0.044 A 
HETATM   18  C   UNL     1       3.679  26.740  47.788  1.00  0.00     0.068 A 
HETATM   19  C   UNL     1       4.251  28.002  47.611  1.00  0.00     0.037 A 
HETATM   20  C   UNL     1       5.095  28.541  48.580  1.00  0.00     0.003 A 
HETATM   21  C   UNL     1       5.377  27.819  49.739  1.00  0.00     0.007 A 
BRANCH  18  22
HETATM   22  O   UNL     1       2.875  26.331  46.761  1.00  0.00    -0.356 OA
HETATM   23  C   UNL     1       1.531  26.794  46.761  1.00  0.00     0.210 C 
ENDBRANCH  18  22
ENDBRANCH  15  16
ENDBRANCH  14  15
ENDBRANCH  12  14
ENDBRANCH   3  12
BRANCH   1  24
HETATM   24  N   UNL     1       7.665  24.598  56.395  1.00  0.00    -0.273 NA
HETATM   25  H   UNL     1       8.559  24.651  56.878  1.00  0.00     0.129 HD
BRANCH  24  26
HETATM   26  C   UNL     1       6.844  25.794  56.624  1.00  0.00     0.053 C 
HETATM   27  C   UNL     1       7.507  26.723  57.639  1.00  0.00     0.026 C 
HETATM   28  C   UNL     1       5.482  25.333  57.147  1.00  0.00     0.026 C 
ENDBRANCH  24  26
ENDBRANCH   1  24
TORSDOF 7
ENDMDL
MODEL 4
REMARK VINA RESULT:      -8.6      3.119      7.764
REMARK  7 active torsions:
REMARK  status: ('A' for Active; 'I' for Inactive)
REMARK    1  A    between atoms: C_2  and  N_3 
REMARK    2  A    between atoms: N_3  and  C_4 
REMARK    3  A    between atoms: C_6  and  N_7 
REMARK    4  A    between atoms: N_7  and  C_8 
REMARK    5  A    between atoms: C_8  and  C_9 
REMARK    6  A    between atoms: C_9  and  C_10 
REMARK    7  A    between atoms: C_12  and  O_13 
ROOT
HETATM    1  C   UNL     1       7.468  29.153  57.755  1.00  0.00     0.119 A 
HETATM    2  N   UNL     1       7.933  27.956  58.159  1.00  0.00    -0.207 NA
HETATM    3  C   UNL     1       7.286  26.850  57.763  1.00  0.00     0.181 A 
HETATM    4  N   UNL     1       6.227  26.894  56.957  1.00  0.00    -0.330 N 
HETATM    5  H   UNL     1       5.842  26.010  56.654  1.00  0.00     0.168 HD
HETATM    6  C   UNL     1       5.734  28.053  56.511  1.00  0.00     0.048 A 
HETATM    7  C   UNL     1       6.349  29.257  56.901  1.00  0.00     0.031 A 
HETATM    8  C   UNL     1       4.620  28.058  55.657  1.00  0.00     0.030 A 
HETATM    9  C   UNL     1       4.107  29.264  55.182  1.00  0.00     0.002 A 
HETATM   10  C   UNL     1       4.705  30.466  55.548  1.00  0.00     0.001 A 
HETATM   11  C   UNL     1       5.816  30.466  56.395  1.00  0.00     0.017 A 
ENDROOT
BRANCH   3  12
HETATM   12  N   UNL     1       7.701  25.583  58.159  1.00  0.00    -0.262 NA
HETATM   13  H   UNL     1       7.924  25.528  59.149  1.00  0.00     0.130 HD
BRANCH  12  14
HETATM   14  C   UNL     1       8.770  25.002  57.332  1.00  0.00     0.100 C 
BRANCH  14  15
HETATM   15  C   UNL     1       8.476  23.520  57.068  1.00  0.00     0.053 C 
BRANCH  15  16
HETATM   16  C   UNL     1       8.230  23.250  55.605  1.00  0.00    -0.054 A 
HETATM   17  C   UNL     1       7.211  23.932  54.918  1.00  0.00     0.044 A 
HETATM   18  C   UNL     1       6.967  23.669  53.567  1.00  0.00     0.068 A 
HETATM   19  C   UNL     1       7.743  22.715  52.906  1.00  0.00     0.037 A 
HETATM   20  C   UNL     1       8.755  22.031  53.579  1.00  0.00     0.003 A 
HETATM   21  C   UNL     1       8.998  22.296  54.925  1.00  0.00     0.007 A 
BRANCH  18  22
HETATM   22  O   UNL     1       6.010  24.261  52.791  1.00  0.00    -0.356 OA
HETATM   23  C   UNL     1       5.700  25.621  53.063  1.00  0.00     0.210 C 
ENDBRANCH  18  22
ENDBRANCH  15  16
ENDBRANCH  14  15
ENDBRANCH  12  14
ENDBRANCH   3  12
BRANCH   1  24
HETATM   24  N   UNL     1       8.151  30.309  58.140  1.00  0.00    -0.273 NA
HETATM   25  H   UNL     1       8.065  31.055  57.454  1.00  0.00     0.129 HD
BRANCH  24  26
HETATM   26  C   UNL     1       7.999  30.805  59.514  1.00  0.00     0.053 C 
HETATM   27  C   UNL     1       6.953  31.918  59.578  1.00  0.00     0.026 C 
HETATM   28  C   UNL     1       9.358  31.336  59.972  1.00  0.00     0.026 C 
ENDBRANCH  24  26
ENDBRANCH   1  24
TORSDOF 7
ENDMDL
MODEL 5
REMARK VINA RESULT:      -8.6      3.570      7.021
REMARK  7 active torsions:
REMARK  status: ('A' for Active; 'I' for Inactive)
REMARK    1  A    between atoms: C_2  and  N_3 
REMARK    2  A    between atoms: N_3  and  C_4 
REMARK    3  A    between atoms: C_6  and  N_7 
REMARK    4  A    between atoms: N_7  and  C_8 
REMARK    5  A    between atoms: C_8  and  C_9 
REMARK    6  A    between atoms: C_9  and  C_10 
REMARK    7  A    between atoms: C_12  and  O_13 
ROOT
HETATM    1  C   UNL     1       7.328  23.821  55.072  1.00  0.00     0.119 A 
HETATM    2  N   UNL     1       7.158  24.699  54.066  1.00  0.00    -0.207 NA
HETATM    3  C   UNL     1       7.470  24.314  52.819  1.00  0.00     0.181 A 
HETATM    4  N   UNL     1       7.902  23.087  52.541  1.00  0.00    -0.330 N 
HETATM    5  H   UNL     1       8.049  22.860  51.566  1.00  0.00     0.168 HD
HETATM    6  C   UNL     1       8.072  22.169  53.497  1.00  0.00     0.048 A 
HETATM    7  C   UNL     1       7.785  22.508  54.833  1.00  0.00     0.031 A 
HETATM    8  C   UNL     1       8.524  20.883  53.162  1.00  0.00     0.030 A 
HETATM    9  C   UNL     1       8.695  19.920  54.156  1.00  0.00     0.002 A 
HETATM   10  C   UNL     1       8.408  20.231  55.481  1.00  0.00     0.001 A 
HETATM   11  C   UNL     1       7.955  21.508  55.819  1.00  0.00     0.017 A 
ENDROOT
BRANCH   3  12
HETATM   12  N   UNL     1       7.336  25.176  51.736  1.00  0.00    -0.262 NA
HETATM   13  H   UNL     1       8.222  25.569  51.428  1.00  0.00     0.130 HD
BRANCH  12  14
HETATM   14  C   UNL     1       6.314  26.221  51.906  1.00  0.00     0.100 C 
BRANCH  14  15
HETATM   15  C   UNL     1       5.081  25.884  51.059  1.00  0.00     0.053 C 
BRANCH  15  16
HETATM   16  C   UNL     1       4.942  26.812  49.878  1.00  0.00    -0.054 A 
HETATM   17  C   UNL     1       5.263  28.175  50.003  1.00  0.00     0.044 A 
HETATM   18  C   UNL     1       5.116  29.041  48.917  1.00  0.00     0.068 A 
HETATM   19  C   UNL     1       4.640  28.541  47.703  1.00  0.00     0.037 A 
HETATM   20  C   UNL     1       4.317  27.191  47.569  1.00  0.00     0.003 A 
HETATM   21  C   UNL     1       4.466  26.328  48.653  1.00  0.00     0.007 A 
BRANCH  18  22
HETATM   22  O   UNL     1       5.391  30.380  48.911  1.00  0.00    -0.356 OA
HETATM   23  C   UNL     1       4.837  31.155  47.857  1.00  0.00     0.210 C 
ENDBRANCH  18  22
ENDBRANCH  15  16
ENDBRANCH  14  15
ENDBRANCH  12  14
ENDBRANCH   3  12
BRANCH   1  24
HETATM   24  N   UNL     1       6.981  24.205  56.369  1.00  0.00    -0.273 NA
HETATM   25  H   UNL     1       7.698  23.959  57.049  1.00  0.00     0.129 HD
BRANCH  24  26
HETATM   26  C   UNL     1       6.446  25.553  56.598  1.00  0.00     0.053 C 
HETATM   27  C   UNL     1       7.323  26.327  57.581  1.00  0.00     0.026 C 
HETATM   28  C   UNL     1       5.032  25.405  57.161  1.00  0.00     0.026 C 
ENDBRANCH  24  26
ENDBRANCH   1  24
TORSDOF 7
ENDMDL
MODEL 6
REMARK VINA RESULT:      -8.6      4.294      8.031
REMARK  7 active torsions:
REMARK  status: ('A' for Active; 'I' for Inactive)
REMARK    1  A    between atoms: C_2  and  N_3 
REMARK    2  A    between atoms: N_3  and  C_4 
REMARK    3  A    between atoms: C_6  and  N_7 
REMARK    4  A    between atoms: N_7  and  C_8 
REMARK    5  A    between atoms: C_8  and  C_9 
REMARK    6  A    between atoms: C_9  and  C_10 
REMARK    7  A    between atoms: C_12  and  O_13 
ROOT
HETATM    1  C   UNL     1       7.423  23.530  54.260  1.00  0.00     0.119 A 
HETATM    2  N   UNL     1       6.448  23.851  53.389  1.00  0.00    -0.207 NA
HETATM    3  C   UNL     1       5.615  24.857  53.700  1.00  0.00     0.181 A 
HETATM    4  N   UNL     1       5.746  25.568  54.818  1.00  0.00    -0.330 N 
HETATM    5  H   UNL     1       5.117  26.351  54.941  1.00  0.00     0.168 HD
HETATM    6  C   UNL     1       6.706  25.305  55.709  1.00  0.00     0.048 A 
HETATM    7  C   UNL     1       7.604  24.250  55.460  1.00  0.00     0.031 A 
HETATM    8  C   UNL     1       6.814  26.083  56.872  1.00  0.00     0.030 A 
HETATM    9  C   UNL     1       7.820  25.818  57.801  1.00  0.00     0.002 A 
HETATM   10  C   UNL     1       8.724  24.786  57.570  1.00  0.00     0.001 A 
HETATM   11  C   UNL     1       8.623  24.011  56.412  1.00  0.00     0.017 A 
ENDROOT
BRANCH   3  12
HETATM   12  N   UNL     1       4.575  25.228  52.855  1.00  0.00    -0.262 NA
HETATM   13  H   UNL     1       3.717  24.712  53.030  1.00  0.00     0.130 HD
BRANCH  12  14
HETATM   14  C   UNL     1       4.919  25.233  51.425  1.00  0.00     0.100 C 
BRANCH  14  15
HETATM   15  C   UNL     1       5.586  26.565  51.056  1.00  0.00     0.053 C 
BRANCH  15  16
HETATM   16  C   UNL     1       4.960  27.184  49.832  1.00  0.00    -0.054 A 
HETATM   17  C   UNL     1       4.086  26.436  49.024  1.00  0.00     0.044 A 
HETATM   18  C   UNL     1       3.520  27.001  47.878  1.00  0.00     0.068 A 
HETATM   19  C   UNL     1       3.837  28.317  47.537  1.00  0.00     0.037 A 
HETATM   20  C   UNL     1       4.705  29.067  48.330  1.00  0.00     0.003 A 
HETATM   21  C   UNL     1       5.267  28.503  49.474  1.00  0.00     0.007 A 
BRANCH  18  22
HETATM   22  O   UNL     1       2.661  26.381  47.015  1.00  0.00    -0.356 OA
HETATM   23  C   UNL     1       1.391  26.986  46.811  1.00  0.00     0.210 C 
ENDBRANCH  18  22
ENDBRANCH  15  16
ENDBRANCH  14  15
ENDBRANCH  12  14
ENDBRANCH   3  12
BRANCH   1  24
HETATM   24  N   UNL     1       8.309  22.502  53.932  1.00  0.00    -0.273 NA
HETATM   25  H   UNL     1       9.226  22.633  54.355  1.00  0.00     0.129 HD
BRANCH  24  26
HETATM   26  C   UNL     1       7.855  21.109  54.024  1.00  0.00     0.053 C 
HETATM   27  C   UNL     1       8.433  20.429  55.266  1.00  0.00     0.026 C 
HETATM   28  C   UNL     1       8.323  20.380  52.764  1.00  0.00     0.026 C 
ENDBRANCH  24  26
ENDBRANCH   1  24
TORSDOF 7
ENDMDL
MODEL 7
REMARK VINA RESULT:      -8.5      2.612      3.521
REMARK  7 active torsions:
REMARK  status: ('A' for Active; 'I' for Inactive)
REMARK    1  A    between atoms: C_2  and  N_3 
REMARK    2  A    between atoms: N_3  and  C_4 
REMARK    3  A    between atoms: C_6  and  N_7 
REMARK    4  A    between atoms: N_7  and  C_8 
REMARK    5  A    between atoms: C_8  and  C_9 
REMARK    6  A    between atoms: C_9  and  C_10 
REMARK    7  A    between atoms: C_12  and  O_13 
ROOT
HETATM    1  C   UNL     1       7.014  23.725  54.506  1.00  0.00     0.119 A 
HETATM    2  N   UNL     1       7.189  24.508  55.586  1.00  0.00    -0.207 NA
HETATM    3  C   UNL     1       7.970  24.063  56.582  1.00  0.00     0.181 A 
HETATM    4  N   UNL     1       8.604  22.894  56.520  1.00  0.00    -0.330 N 
HETATM    5  H   UNL     1       9.226  22.666  57.285  1.00  0.00     0.168 HD
HETATM    6  C   UNL     1       8.481  22.084  55.465  1.00  0.00     0.048 A 
HETATM    7  C   UNL     1       7.661  22.476  54.390  1.00  0.00     0.031 A 
HETATM    8  C   UNL     1       9.172  20.862  55.434  1.00  0.00     0.030 A 
HETATM    9  C   UNL     1       9.053  20.018  54.331  1.00  0.00     0.002 A 
HETATM   10  C   UNL     1       8.255  20.390  53.254  1.00  0.00     0.001 A 
HETATM   11  C   UNL     1       7.568  21.607  53.278  1.00  0.00     0.017 A 
ENDROOT
BRANCH   3  12
HETATM   12  N   UNL     1       8.179  24.812  57.735  1.00  0.00    -0.262 NA
HETATM   13  H   UNL     1       8.207  24.246  58.579  1.00  0.00     0.130 HD
BRANCH  12  14
HETATM   14  C   UNL     1       7.277  25.964  57.889  1.00  0.00     0.100 C 
BRANCH  14  15
HETATM   15  C   UNL     1       7.967  27.237  57.382  1.00  0.00     0.053 C 
BRANCH  15  16
HETATM   16  C   UNL     1       6.987  28.191  56.748  1.00  0.00    -0.054 A 
HETATM   17  C   UNL     1       6.555  27.993  55.425  1.00  0.00     0.044 A 
HETATM   18  C   UNL     1       5.663  28.887  54.828  1.00  0.00     0.068 A 
HETATM   19  C   UNL     1       5.207  29.987  55.557  1.00  0.00     0.037 A 
HETATM   20  C   UNL     1       5.630  30.194  56.870  1.00  0.00     0.003 A 
HETATM   21  C   UNL     1       6.519  29.300  57.465  1.00  0.00     0.007 A 
BRANCH  18  22
HETATM   22  O   UNL     1       5.172  28.805  53.555  1.00  0.00    -0.356 OA
HETATM   23  C   UNL     1       3.780  28.559  53.408  1.00  0.00     0.210 C 
ENDBRANCH  18  22
ENDBRANCH  15  16
ENDBRANCH  14  15
ENDBRANCH  12  14
ENDBRANCH   3  12
BRANCH   1  24
HETATM   24  N   UNL     1       6.224  24.192  53.454  1.00  0.00    -0.273 NA
HETATM   25  H   UNL     1       5.233  24.196  53.686  1.00  0.00     0.129 HD
BRANCH  24  26
HETATM   26  C   UNL     1       6.627  25.413  52.744  1.00  0.00     0.053 C 
HETATM   27  C   UNL     1       5.623  25.760  51.645  1.00  0.00     0.026 C 
HETATM   28  C   UNL     1       8.007  25.166  52.133  1.00  0.00     0.026 C 
ENDBRANCH  24  26
ENDBRANCH   1  24
TORSDOF 7
ENDMDL
MODEL 8
REMARK VINA RESULT:      -8.5      3.456      8.270
REMARK  7 active torsions:
REMARK  status: ('A' for Active; 'I' for Inactive)
REMARK    1  A    between atoms: C_2  and  N_3 
REMARK    2  A    between atoms: N_3  and  C_4 
REMARK    3  A    between atoms: C_6  and  N_7 
REMARK    4  A    between atoms: N_7  and  C_8 
REMARK    5  A    between atoms: C_8  and  C_9 
REMARK    6  A    between atoms: C_9  and  C_10 
REMARK    7  A    between atoms: C_12  and  O_13 
ROOT
HETATM    1  C   UNL     1       6.833  29.653  57.013  1.00  0.00     0.119 A 
HETATM    2  N   UNL     1       6.288  29.156  55.887  1.00  0.00    -0.207 NA
HETATM    3  C   UNL     1       7.101  28.834  54.869  1.00  0.00     0.181 A 
HETATM    4  N   UNL     1       8.424  28.954  54.949  1.00  0.00    -0.330 N 
HETATM    5  H   UNL     1       8.965  28.625  54.161  1.00  0.00     0.168 HD
HETATM    6  C   UNL     1       9.020  29.425  56.049  1.00  0.00     0.048 A 
HETATM    7  C   UNL     1       8.230  29.803  57.150  1.00  0.00     0.031 A 
HETATM    8  C   UNL     1      10.419  29.530  56.097  1.00  0.00     0.030 A 
HETATM    9  C   UNL     1      11.046  30.013  57.245  1.00  0.00     0.002 A 
HETATM   10  C   UNL     1      10.284  30.383  58.349  1.00  0.00     0.001 A 
HETATM   11  C   UNL     1       8.892  30.277  58.307  1.00  0.00     0.017 A 
ENDROOT
BRANCH   3  12
HETATM   12  N   UNL     1       6.603  28.333  53.671  1.00  0.00    -0.262 NA
HETATM   13  H   UNL     1       5.847  28.895  53.287  1.00  0.00     0.130 HD
BRANCH  12  14
HETATM   14  C   UNL     1       6.250  26.905  53.703  1.00  0.00     0.100 C 
BRANCH  14  15
HETATM   15  C   UNL     1       7.362  26.080  53.042  1.00  0.00     0.053 C 
BRANCH  15  16
HETATM   16  C   UNL     1       7.493  24.715  53.668  1.00  0.00    -0.054 A 
HETATM   17  C   UNL     1       7.835  23.601  52.881  1.00  0.00     0.044 A 
HETATM   18  C   UNL     1       7.937  22.331  53.455  1.00  0.00     0.068 A 
HETATM   19  C   UNL     1       7.690  22.176  54.820  1.00  0.00     0.037 A 
HETATM   20  C   UNL     1       7.349  23.274  55.609  1.00  0.00     0.003 A 
HETATM   21  C   UNL     1       7.249  24.540  55.036  1.00  0.00     0.007 A 
BRANCH  18  22
HETATM   22  O   UNL     1       8.259  21.175  52.800  1.00  0.00    -0.356 OA
HETATM   23  C   UNL     1       8.685  20.075  53.591  1.00  0.00     0.210 C 
ENDBRANCH  18  22
ENDBRANCH  15  16
ENDBRANCH  14  15
ENDBRANCH  12  14
ENDBRANCH   3  12
BRANCH   1  24
HETATM   24  N   UNL     1       5.997  29.966  58.087  1.00  0.00    -0.273 NA
HETATM   25  H   UNL     1       6.459  29.839  58.985  1.00  0.00     0.129 HD
BRANCH  24  26
HETATM   26  C   UNL     1       5.210  31.205  58.044  1.00  0.00     0.053 C 
HETATM   27  C   UNL     1       5.668  32.180  59.128  1.00  0.00     0.026 C 
HETATM   28  C   UNL     1       3.742  30.833  58.260  1.00  0.00     0.026 C 
ENDBRANCH  24  26
ENDBRANCH   1  24
TORSDOF 7
ENDMDL
MODEL 9
REMARK VINA RESULT:      -8.4      2.954      7.568
REMARK  7 active torsions:
REMARK  status: ('A' for Active; 'I' for Inactive)
REMARK    1  A    between atoms: C_2  and  N_3 
REMARK    2  A    between atoms: N_3  and  C_4 
REMARK    3  A    between atoms: C_6  and  N_7 
REMARK    4  A    between atoms: N_7  and  C_8 
REMARK    5  A    between atoms: C_8  and  C_9 
REMARK    6  A    between atoms: C_9  and  C_10 
REMARK    7  A    between atoms: C_12  and  O_13 
ROOT
HETATM    1  C   UNL     1       6.630  29.426  56.881  1.00  0.00     0.119 A 
HETATM    2  N   UNL     1       6.139  28.781  55.806  1.00  0.00    -0.207 NA
HETATM    3  C   UNL     1       6.986  28.430  54.826  1.00  0.00     0.181 A 
HETATM    4  N   UNL     1       8.294  28.664  54.899  1.00  0.00    -0.330 N 
HETATM    5  H   UNL     1       8.868  28.306  54.147  1.00  0.00     0.168 HD
HETATM    6  C   UNL     1       8.839  29.284  55.950  1.00  0.00     0.048 A 
HETATM    7  C   UNL     1       8.008  29.701  57.007  1.00  0.00     0.031 A 
HETATM    8  C   UNL     1      10.224  29.506  55.992  1.00  0.00     0.030 A 
HETATM    9  C   UNL     1      10.797  30.146  57.090  1.00  0.00     0.002 A 
HETATM   10  C   UNL     1       9.997  30.557  58.151  1.00  0.00     0.001 A 
HETATM   11  C   UNL     1       8.618  30.335  58.115  1.00  0.00     0.017 A 
ENDROOT
BRANCH   3  12
HETATM   12  N   UNL     1       6.543  27.778  53.680  1.00  0.00    -0.262 NA
HETATM   13  H   UNL     1       6.188  28.415  52.972  1.00  0.00     0.130 HD
BRANCH  12  14
HETATM   14  C   UNL     1       5.605  26.672  53.928  1.00  0.00     0.100 C 
BRANCH  14  15
HETATM   15  C   UNL     1       5.888  25.522  52.952  1.00  0.00     0.053 C 
BRANCH  15  16
HETATM   16  C   UNL     1       6.833  24.506  53.543  1.00  0.00    -0.054 A 
HETATM   17  C   UNL     1       7.098  24.500  54.924  1.00  0.00     0.044 A 
HETATM   18  C   UNL     1       7.988  23.573  55.471  1.00  0.00     0.068 A 
HETATM   19  C   UNL     1       8.621  22.655  54.631  1.00  0.00     0.037 A 
HETATM   20  C   UNL     1       8.367  22.654  53.260  1.00  0.00     0.003 A 
HETATM   21  C   UNL     1       7.476  23.577  52.716  1.00  0.00     0.007 A 
BRANCH  18  22
HETATM   22  O   UNL     1       8.329  23.466  56.791  1.00  0.00    -0.356 OA
HETATM   23  C   UNL     1       8.781  24.644  57.445  1.00  0.00     0.210 C 
ENDBRANCH  18  22
ENDBRANCH  15  16
ENDBRANCH  14  15
ENDBRANCH  12  14
ENDBRANCH   3  12
BRANCH   1  24
HETATM   24  N   UNL     1       5.760  29.772  57.917  1.00  0.00    -0.273 NA
HETATM   25  H   UNL     1       6.187  29.659  58.834  1.00  0.00     0.129 HD
BRANCH  24  26
HETATM   26  C   UNL     1       4.990  31.018  57.819  1.00  0.00     0.053 C 
HETATM   27  C   UNL     1       5.312  31.950  58.987  1.00  0.00     0.026 C 
HETATM   28  C   UNL     1       3.505  30.653  57.835  1.00  0.00     0.026 C 
ENDBRANCH  24  26
ENDBRANCH   1  24
TORSDOF 7
ENDMDL
MODEL 10
REMARK VINA RESULT:      -8.4      3.549      8.673
REMARK  7 active torsions:
REMARK  status: ('A' for Active; 'I' for Inactive)
REMARK    1  A    between atoms: C_2  and  N_3 
REMARK    2  A    between atoms: N_3  and  C_4 
REMARK    3  A    between atoms: C_6  and  N_7 
REMARK    4  A    between atoms: N_7  and  C_8 
REMARK    5  A    between atoms: C_8  and  C_9 
REMARK    6  A    between atoms: C_9  and  C_10 
REMARK    7  A    between atoms: C_12  and  O_13 
ROOT
HETATM    1  C   UNL     1       7.263  30.196  58.591  1.00  0.00     0.119 A 
HETATM    2  N   UNL     1       8.007  29.074  58.584  1.00  0.00    -0.207 NA
HETATM    3  C   UNL     1       7.859  28.212  57.566  1.00  0.00     0.181 A 
HETATM    4  N   UNL     1       7.034  28.447  56.549  1.00  0.00    -0.330 N 
HETATM    5  H   UNL     1       7.034  27.777  55.791  1.00  0.00     0.168 HD
HETATM    6  C   UNL     1       6.284  29.553  56.494  1.00  0.00     0.048 A 
HETATM    7  C   UNL     1       6.371  30.493  57.538  1.00  0.00     0.031 A 
HETATM    8  C   UNL     1       5.431  29.768  55.401  1.00  0.00     0.030 A 
HETATM    9  C   UNL     1       4.654  30.924  55.336  1.00  0.00     0.002 A 
HETATM   10  C   UNL     1       4.732  31.871  56.352  1.00  0.00     0.001 A 
HETATM   11  C   UNL     1       5.582  31.663  57.441  1.00  0.00     0.017 A 
ENDROOT
BRANCH   3  12
HETATM   12  N   UNL     1       8.582  27.025  57.506  1.00  0.00    -0.262 NA
HETATM   13  H   UNL     1       9.228  26.991  56.722  1.00  0.00     0.130 HD
BRANCH  12  14
HETATM   14  C   UNL     1       7.763  25.805  57.582  1.00  0.00     0.100 C 
BRANCH  14  15
HETATM   15  C   UNL     1       8.619  24.582  57.225  1.00  0.00     0.053 C 
BRANCH  15  16
HETATM   16  C   UNL     1       8.320  24.077  55.836  1.00  0.00    -0.054 A 
HETATM   17  C   UNL     1       8.907  22.887  55.371  1.00  0.00     0.044 A 
HETATM   18  C   UNL     1       8.649  22.426  54.077  1.00  0.00     0.068 A 
HETATM   19  C   UNL     1       7.806  23.165  53.245  1.00  0.00     0.037 A 
HETATM   20  C   UNL     1       7.221  24.347  53.695  1.00  0.00     0.003 A 
HETATM   21  C   UNL     1       7.477  24.804  54.987  1.00  0.00     0.007 A 
BRANCH  18  22
HETATM   22  O   UNL     1       9.157  21.290  53.510  1.00  0.00    -0.356 OA
HETATM   23  C   UNL     1       8.236  20.406  52.887  1.00  0.00     0.210 C 
ENDBRANCH  18  22
ENDBRANCH  15  16
ENDBRANCH  14  15
ENDBRANCH  12  14
ENDBRANCH   3  12
BRANCH   1  24
HETATM   24  N   UNL     1       7.429  31.110  59.632  1.00  0.00    -0.273 NA
HETATM   25  H   UNL     1       6.556  31.306  60.118  1.00  0.00     0.129 HD
BRANCH  24  26
HETATM   26  C   UNL     1       8.550  30.936  60.565  1.00  0.00     0.053 C 
HETATM   27  C   UNL     1       8.085  31.105  62.012  1.00  0.00     0.026 C 
HETATM   28  C   UNL     1       9.606  31.990  60.229  1.00  0.00     0.026 C 
ENDBRANCH  24  26
ENDBRANCH   1  24
TORSDOF 7
ENDMDL
