MODEL 1
REMARK VINA RESULT:      -9.3      0.000      0.000
REMARK  2 active torsions:
REMARK  status: ('A' for Active; 'I' for Inactive)
REMARK    1  A    between atoms: C_2  and  C_3 
REMARK    2  A    between atoms: C_7  and  C_8 
REMARK       I    between atoms: C_8  and  N_9 
ROOT
HETATM    1  C   UNL     1       9.397  31.516  59.180  1.00  0.00     0.271 C 
HETATM    2  N   UNL     1       9.054  30.385  58.415  1.00  0.00    -0.346 N 
HETATM    3  C   UNL     1       9.873  30.150  57.228  1.00  0.00     0.130 C 
HETATM    4  C   UNL     1       9.763  28.713  56.733  1.00  0.00     0.068 C 
HETATM    5  C   UNL     1       8.306  28.260  56.547  1.00  0.00     0.094 C 
HETATM    6  N   UNL     1       8.293  26.839  56.269  1.00  0.00    -0.334 N 
HETATM    7  C   UNL     1       7.200  26.197  55.751  1.00  0.00     0.255 C 
HETATM    8  O   UNL     1       7.048  24.989  55.883  1.00  0.00    -0.268 OA
HETATM    9  C   UNL     1       6.240  27.040  55.015  1.00  0.00     0.053 A 
HETATM   10  C   UNL     1       6.550  28.397  54.862  1.00  0.00     0.026 A 
HETATM   11  N   UNL     1       7.740  28.932  55.378  1.00  0.00    -0.265 NA
HETATM   12  C   UNL     1       5.077  26.488  54.469  1.00  0.00     0.019 A 
HETATM   13  C   UNL     1       4.217  27.298  53.731  1.00  0.00     0.001 A 
HETATM   14  C   UNL     1       4.535  28.641  53.527  1.00  0.00     0.002 A 
HETATM   15  C   UNL     1       5.702  29.183  54.076  1.00  0.00     0.024 A 
HETATM   16  C   UNL     1       7.497  28.561  57.823  1.00  0.00     0.068 C 
HETATM   17  C   UNL     1       7.646  30.007  58.269  1.00  0.00     0.130 C 
HETATM   18  O   UNL     1      10.245  32.318  58.795  1.00  0.00    -0.266 OA
HETATM   19  H   UNL     1       8.880  26.229  56.822  1.00  0.00     0.164 HD
HETATM   20  H   UNL     1       7.719  29.945  55.431  1.00  0.00     0.130 HD
ENDROOT
BRANCH   1  21
HETATM   21  C   UNL     1       8.733  31.670  60.449  1.00  0.00     0.119 A 
HETATM   22  N   UNL     1       8.864  30.824  61.513  1.00  0.00    -0.273 N 
HETATM   23  N   UNL     1       8.122  31.162  62.576  1.00  0.00    -0.178 NA
HETATM   24  H   UNL     1       9.431  29.985  61.570  1.00  0.00     0.189 HD
HETATM   25  C   UNL     1       7.555  32.328  62.229  1.00  0.00     0.064 A 
HETATM   26  C   UNL     1       7.938  32.697  60.913  1.00  0.00     0.066 A 
BRANCH  25  27
HETATM   27  C   UNL     1       6.648  33.057  63.207  1.00  0.00    -0.005 C 
HETATM   28  C   UNL     1       7.377  33.262  64.549  1.00  0.00     0.021 C 
HETATM   29  C   UNL     1       5.364  32.236  63.454  1.00  0.00     0.021 C 
HETATM   30  C   UNL     1       6.227  34.442  62.675  1.00  0.00     0.021 C 
ENDBRANCH  25  27
ENDBRANCH   1  21
TORSDOF 2
ENDMDL
MODEL 2
REMARK VINA RESULT:      -8.9      2.343      8.729
REMARK  2 active torsions:
REMARK  status: ('A' for Active; 'I' for Inactive)
REMARK    1  A    between atoms: C_2  and  C_3 
REMARK    2  A    between atoms: C_7  and  C_8 
REMARK       I    between atoms: C_8  and  N_9 
ROOT
HETATM    1  C   UNL     1       5.549  26.505  54.974  1.00  0.00     0.271 C 
HETATM    2  N   UNL     1       6.658  27.149  55.554  1.00  0.00    -0.346 N 
HETATM    3  C   UNL     1       7.337  26.411  56.617  1.00  0.00     0.130 C 
HETATM    4  C   UNL     1       8.749  26.926  56.860  1.00  0.00     0.068 C 
HETATM    5  C   UNL     1       8.797  28.448  57.072  1.00  0.00     0.094 C 
HETATM    6  N   UNL     1      10.180  28.872  57.098  1.00  0.00    -0.334 N 
HETATM    7  C   UNL     1      10.571  30.094  57.576  1.00  0.00     0.255 C 
HETATM    8  O   UNL     1      11.638  30.597  57.247  1.00  0.00    -0.268 OA
HETATM    9  C   UNL     1       9.644  30.750  58.517  1.00  0.00     0.053 A 
HETATM   10  C   UNL     1       8.486  30.052  58.882  1.00  0.00     0.026 A 
HETATM   11  N   UNL     1       8.224  28.769  58.380  1.00  0.00    -0.265 NA
HETATM   12  C   UNL     1       9.936  32.012  59.044  1.00  0.00     0.019 A 
HETATM   13  C   UNL     1       9.069  32.581  59.975  1.00  0.00     0.001 A 
HETATM   14  C   UNL     1       7.935  31.879  60.386  1.00  0.00     0.002 A 
HETATM   15  C   UNL     1       7.655  30.616  59.854  1.00  0.00     0.024 A 
HETATM   16  C   UNL     1       8.042  29.159  55.933  1.00  0.00     0.068 C 
HETATM   17  C   UNL     1       6.641  28.602  55.736  1.00  0.00     0.130 C 
HETATM   18  O   UNL     1       5.109  25.451  55.429  1.00  0.00    -0.266 OA
HETATM   19  H   UNL     1      10.816  28.501  56.405  1.00  0.00     0.164 HD
HETATM   20  H   UNL     1       7.256  28.492  58.506  1.00  0.00     0.130 HD
ENDROOT
BRANCH   1  21
HETATM   21  C   UNL     1       4.976  27.120  53.805  1.00  0.00     0.119 A 
HETATM   22  N   UNL     1       3.866  27.917  53.799  1.00  0.00    -0.273 N 
HETATM   23  N   UNL     1       3.508  28.348  52.583  1.00  0.00    -0.178 NA
HETATM   24  H   UNL     1       3.296  28.188  54.594  1.00  0.00     0.189 HD
HETATM   25  C   UNL     1       4.475  27.895  51.771  1.00  0.00     0.064 A 
HETATM   26  C   UNL     1       5.431  27.145  52.503  1.00  0.00     0.066 A 
BRANCH  25  27
HETATM   27  C   UNL     1       4.436  28.214  50.285  1.00  0.00    -0.005 C 
HETATM   28  C   UNL     1       4.717  26.940  49.464  1.00  0.00     0.021 C 
HETATM   29  C   UNL     1       5.500  29.278  49.941  1.00  0.00     0.021 C 
HETATM   30  C   UNL     1       3.061  28.766  49.853  1.00  0.00     0.021 C 
ENDBRANCH  25  27
ENDBRANCH   1  21
TORSDOF 2
ENDMDL
MODEL 3
REMARK VINA RESULT:      -8.9      6.582      9.174
REMARK  2 active torsions:
REMARK  status: ('A' for Active; 'I' for Inactive)
REMARK    1  A    between atoms: C_2  and  C_3 
REMARK    2  A    between atoms: C_7  and  C_8 
REMARK       I    between atoms: C_8  and  N_9 
ROOT
HETATM    1  C   UNL     1       5.897  27.191  54.445  1.00  0.00     0.271 C 
HETATM    2  N   UNL     1       5.767  27.478  53.073  1.00  0.00    -0.346 N 
HETATM    3  C   UNL     1       5.536  28.881  52.737  1.00  0.00     0.130 C 
HETATM    4  C   UNL     1       5.869  29.183  51.282  1.00  0.00     0.068 C 
HETATM    5  C   UNL     1       5.180  28.219  50.303  1.00  0.00     0.094 C 
HETATM    6  N   UNL     1       5.703  28.452  48.974  1.00  0.00    -0.334 N 
HETATM    7  C   UNL     1       5.084  27.989  47.843  1.00  0.00     0.255 C 
HETATM    8  O   UNL     1       5.699  27.841  46.795  1.00  0.00    -0.268 OA
HETATM    9  C   UNL     1       3.643  27.700  47.964  1.00  0.00     0.053 A 
HETATM   10  C   UNL     1       3.025  27.975  49.190  1.00  0.00     0.026 A 
HETATM   11  N   UNL     1       3.749  28.519  50.261  1.00  0.00    -0.265 NA
HETATM   12  C   UNL     1       2.922  27.198  46.876  1.00  0.00     0.019 A 
HETATM   13  C   UNL     1       1.550  26.989  47.003  1.00  0.00     0.001 A 
HETATM   14  C   UNL     1       0.910  27.303  48.202  1.00  0.00     0.002 A 
HETATM   15  C   UNL     1       1.640  27.808  49.283  1.00  0.00     0.024 A 
HETATM   16  C   UNL     1       5.442  26.763  50.732  1.00  0.00     0.068 C 
HETATM   17  C   UNL     1       5.093  26.522  52.192  1.00  0.00     0.130 C 
HETATM   18  O   UNL     1       5.695  28.050  55.302  1.00  0.00    -0.266 OA
HETATM   19  H   UNL     1       6.701  28.566  48.856  1.00  0.00     0.164 HD
HETATM   20  H   UNL     1       3.262  28.424  51.147  1.00  0.00     0.130 HD
ENDROOT
BRANCH   1  21
HETATM   21  C   UNL     1       6.308  25.857  54.796  1.00  0.00     0.119 A 
HETATM   22  N   UNL     1       5.857  25.153  55.877  1.00  0.00    -0.273 N 
HETATM   23  N   UNL     1       6.410  23.940  56.010  1.00  0.00    -0.178 NA
HETATM   24  H   UNL     1       5.185  25.455  56.574  1.00  0.00     0.189 HD
HETATM   25  C   UNL     1       7.182  23.805  54.921  1.00  0.00     0.064 A 
HETATM   26  C   UNL     1       7.122  24.973  54.118  1.00  0.00     0.066 A 
BRANCH  25  27
HETATM   27  C   UNL     1       7.962  22.520  54.694  1.00  0.00    -0.005 C 
HETATM   28  C   UNL     1       9.454  22.747  55.010  1.00  0.00     0.021 C 
HETATM   29  C   UNL     1       7.825  22.066  53.225  1.00  0.00     0.021 C 
HETATM   30  C   UNL     1       7.453  21.373  55.591  1.00  0.00     0.021 C 
ENDBRANCH  25  27
ENDBRANCH   1  21
TORSDOF 2
ENDMDL
MODEL 4
REMARK VINA RESULT:      -8.3      3.488      8.901
REMARK  2 active torsions:
REMARK  status: ('A' for Active; 'I' for Inactive)
REMARK    1  A    between atoms: C_2  and  C_3 
REMARK    2  A    between atoms: C_7  and  C_8 
REMARK       I    between atoms: C_8  and  N_9 
ROOT
HETATM    1  C   UNL     1       7.898  25.108  53.101  1.00  0.00     0.271 C 
HETATM    2  N   UNL     1       7.390  26.152  53.897  1.00  0.00    -0.346 N 
HETATM    3  C   UNL     1       7.221  27.438  53.225  1.00  0.00     0.130 C 
HETATM    4  C   UNL     1       6.262  28.353  53.974  1.00  0.00     0.068 C 
HETATM    5  C   UNL     1       6.625  28.505  55.461  1.00  0.00     0.094 C 
HETATM    6  N   UNL     1       5.561  29.223  56.130  1.00  0.00    -0.334 N 
HETATM    7  C   UNL     1       5.715  29.790  57.367  1.00  0.00     0.255 C 
HETATM    8  O   UNL     1       4.750  30.037  58.079  1.00  0.00    -0.268 OA
HETATM    9  C   UNL     1       7.099  30.096  57.773  1.00  0.00     0.053 A 
HETATM   10  C   UNL     1       8.120  29.838  56.850  1.00  0.00     0.026 A 
HETATM   11  N   UNL     1       7.834  29.320  55.579  1.00  0.00    -0.265 NA
HETATM   12  C   UNL     1       7.368  30.651  59.028  1.00  0.00     0.019 A 
HETATM   13  C   UNL     1       8.680  30.983  59.362  1.00  0.00     0.001 A 
HETATM   14  C   UNL     1       9.703  30.778  58.436  1.00  0.00     0.002 A 
HETATM   15  C   UNL     1       9.422  30.224  57.182  1.00  0.00     0.024 A 
HETATM   16  C   UNL     1       6.813  27.115  56.097  1.00  0.00     0.068 C 
HETATM   17  C   UNL     1       7.779  26.247  55.306  1.00  0.00     0.130 C 
HETATM   18  O   UNL     1       8.295  25.310  51.955  1.00  0.00    -0.266 OA
HETATM   19  H   UNL     1       4.603  28.969  55.931  1.00  0.00     0.164 HD
HETATM   20  H   UNL     1       8.657  28.940  55.121  1.00  0.00     0.130 HD
ENDROOT
BRANCH   1  21
HETATM   21  C   UNL     1       7.901  23.789  53.679  1.00  0.00     0.119 A 
HETATM   22  N   UNL     1       7.580  22.638  53.016  1.00  0.00    -0.273 N 
HETATM   23  N   UNL     1       7.628  21.537  53.776  1.00  0.00    -0.178 NA
HETATM   24  H   UNL     1       7.301  22.542  52.046  1.00  0.00     0.189 HD
HETATM   25  C   UNL     1       8.090  21.969  54.960  1.00  0.00     0.064 A 
HETATM   26  C   UNL     1       8.302  23.372  54.931  1.00  0.00     0.066 A 
BRANCH  25  27
HETATM   27  C   UNL     1       8.314  20.985  56.097  1.00  0.00    -0.005 C 
HETATM   28  C   UNL     1       9.674  20.279  55.923  1.00  0.00     0.021 C 
HETATM   29  C   UNL     1       7.195  19.921  56.109  1.00  0.00     0.021 C 
HETATM   30  C   UNL     1       8.312  21.686  57.471  1.00  0.00     0.021 C 
ENDBRANCH  25  27
ENDBRANCH   1  21
TORSDOF 2
ENDMDL
MODEL 5
REMARK VINA RESULT:      -7.9      4.883      8.254
REMARK  2 active torsions:
REMARK  status: ('A' for Active; 'I' for Inactive)
REMARK    1  A    between atoms: C_2  and  C_3 
REMARK    2  A    between atoms: C_7  and  C_8 
REMARK       I    between atoms: C_8  and  N_9 
ROOT
HETATM    1  C   UNL     1       4.405  35.948  64.870  1.00  0.00     0.271 C 
HETATM    2  N   UNL     1       4.694  35.123  63.767  1.00  0.00    -0.346 N 
HETATM    3  C   UNL     1       3.953  33.865  63.703  1.00  0.00     0.130 C 
HETATM    4  C   UNL     1       3.957  33.269  62.302  1.00  0.00     0.068 C 
HETATM    5  C   UNL     1       5.372  33.153  61.711  1.00  0.00     0.094 C 
HETATM    6  N   UNL     1       5.266  32.767  60.320  1.00  0.00    -0.334 N 
HETATM    7  C   UNL     1       6.326  32.280  59.604  1.00  0.00     0.255 C 
HETATM    8  O   UNL     1       6.346  32.328  58.380  1.00  0.00    -0.268 OA
HETATM    9  C   UNL     1       7.422  31.684  60.391  1.00  0.00     0.053 A 
HETATM   10  C   UNL     1       7.262  31.616  61.780  1.00  0.00     0.026 A 
HETATM   11  N   UNL     1       6.094  32.084  62.400  1.00  0.00    -0.265 NA
HETATM   12  C   UNL     1       8.564  31.182  59.759  1.00  0.00     0.019 A 
HETATM   13  C   UNL     1       9.557  30.573  60.523  1.00  0.00     0.001 A 
HETATM   14  C   UNL     1       9.392  30.453  61.904  1.00  0.00     0.002 A 
HETATM   15  C   UNL     1       8.244  30.957  62.526  1.00  0.00     0.024 A 
HETATM   16  C   UNL     1       6.102  34.504  61.835  1.00  0.00     0.068 C 
HETATM   17  C   UNL     1       6.063  35.050  63.253  1.00  0.00     0.130 C 
HETATM   18  O   UNL     1       3.675  35.566  65.783  1.00  0.00    -0.266 OA
HETATM   19  H   UNL     1       4.578  33.227  59.738  1.00  0.00     0.164 HD
HETATM   20  H   UNL     1       6.212  32.218  63.399  1.00  0.00     0.130 HD
ENDROOT
BRANCH   1  21
HETATM   21  C   UNL     1       4.977  37.269  64.864  1.00  0.00     0.119 A 
HETATM   22  N   UNL     1       5.361  37.966  65.975  1.00  0.00    -0.273 N 
HETATM   23  N   UNL     1       5.840  39.190  65.716  1.00  0.00    -0.178 NA
HETATM   24  H   UNL     1       5.304  37.666  66.942  1.00  0.00     0.189 HD
HETATM   25  C   UNL     1       5.859  39.263  64.376  1.00  0.00     0.064 A 
HETATM   26  C   UNL     1       5.354  38.066  63.803  1.00  0.00     0.066 A 
BRANCH  25  27
HETATM   27  C   UNL     1       6.379  40.514  63.687  1.00  0.00    -0.005 C 
HETATM   28  C   UNL     1       5.929  40.530  62.213  1.00  0.00     0.021 C 
HETATM   29  C   UNL     1       7.921  40.550  63.741  1.00  0.00     0.021 C 
HETATM   30  C   UNL     1       5.853  41.799  64.361  1.00  0.00     0.021 C 
ENDBRANCH  25  27
ENDBRANCH   1  21
TORSDOF 2
ENDMDL
MODEL 6
REMARK VINA RESULT:      -7.8      3.769      9.141
REMARK  2 active torsions:
REMARK  status: ('A' for Active; 'I' for Inactive)
REMARK    1  A    between atoms: C_2  and  C_3 
REMARK    2  A    between atoms: C_7  and  C_8 
REMARK       I    between atoms: C_8  and  N_9 
ROOT
HETATM    1  C   UNL     1       5.060  32.379  57.113  1.00  0.00     0.271 C 
HETATM    2  N   UNL     1       4.533  32.808  58.346  1.00  0.00    -0.346 N 
HETATM    3  C   UNL     1       4.346  34.250  58.489  1.00  0.00     0.130 C 
HETATM    4  C   UNL     1       3.370  34.591  59.608  1.00  0.00     0.068 C 
HETATM    5  C   UNL     1       3.729  33.906  60.937  1.00  0.00     0.094 C 
HETATM    6  N   UNL     1       2.652  34.125  61.879  1.00  0.00    -0.334 N 
HETATM    7  C   UNL     1       2.794  33.921  63.226  1.00  0.00     0.255 C 
HETATM    8  O   UNL     1       1.824  33.725  63.947  1.00  0.00    -0.268 OA
HETATM    9  C   UNL     1       4.172  33.971  63.748  1.00  0.00     0.053 A 
HETATM   10  C   UNL     1       5.199  34.275  62.846  1.00  0.00     0.026 A 
HETATM   11  N   UNL     1       4.924  34.537  61.495  1.00  0.00    -0.265 NA
HETATM   12  C   UNL     1       4.430  33.749  65.104  1.00  0.00     0.019 A 
HETATM   13  C   UNL     1       5.736  33.859  65.579  1.00  0.00     0.001 A 
HETATM   14  C   UNL     1       6.764  34.209  64.703  1.00  0.00     0.002 A 
HETATM   15  C   UNL     1       6.494  34.431  63.348  1.00  0.00     0.024 A 
HETATM   16  C   UNL     1       3.938  32.397  60.707  1.00  0.00     0.068 C 
HETATM   17  C   UNL     1       4.918  32.118  59.579  1.00  0.00     0.130 C 
HETATM   18  O   UNL     1       5.456  33.182  56.270  1.00  0.00    -0.266 OA
HETATM   19  H   UNL     1       1.698  34.010  61.564  1.00  0.00     0.164 HD
HETATM   20  H   UNL     1       5.753  34.482  60.913  1.00  0.00     0.130 HD
ENDROOT
BRANCH   1  21
HETATM   21  C   UNL     1       5.083  30.960  56.872  1.00  0.00     0.119 A 
HETATM   22  N   UNL     1       4.013  30.213  56.467  1.00  0.00    -0.273 N 
HETATM   23  N   UNL     1       4.274  28.906  56.339  1.00  0.00    -0.178 NA
HETATM   24  H   UNL     1       3.069  30.536  56.280  1.00  0.00     0.189 HD
HETATM   25  C   UNL     1       5.592  28.805  56.576  1.00  0.00     0.064 A 
HETATM   26  C   UNL     1       6.142  30.076  56.885  1.00  0.00     0.066 A 
BRANCH  25  27
HETATM   27  C   UNL     1       6.281  27.453  56.490  1.00  0.00    -0.005 C 
HETATM   28  C   UNL     1       7.376  27.350  57.571  1.00  0.00     0.021 C 
HETATM   29  C   UNL     1       6.929  27.273  55.101  1.00  0.00     0.021 C 
HETATM   30  C   UNL     1       5.290  26.290  56.703  1.00  0.00     0.021 C 
ENDBRANCH  25  27
ENDBRANCH   1  21
TORSDOF 2
ENDMDL
MODEL 7
REMARK VINA RESULT:      -7.7      4.210      5.510
REMARK  2 active torsions:
REMARK  status: ('A' for Active; 'I' for Inactive)
REMARK    1  A    between atoms: C_2  and  C_3 
REMARK    2  A    between atoms: C_7  and  C_8 
REMARK       I    between atoms: C_8  and  N_9 
ROOT
HETATM    1  C   UNL     1       7.201  32.779  62.480  1.00  0.00     0.271 C 
HETATM    2  N   UNL     1       6.505  32.447  61.302  1.00  0.00    -0.346 N 
HETATM    3  C   UNL     1       7.323  31.939  60.203  1.00  0.00     0.130 C 
HETATM    4  C   UNL     1       6.493  31.182  59.175  1.00  0.00     0.068 C 
HETATM    5  C   UNL     1       5.277  31.986  58.686  1.00  0.00     0.094 C 
HETATM    6  N   UNL     1       4.446  31.125  57.871  1.00  0.00    -0.334 N 
HETATM    7  C   UNL     1       3.472  31.608  57.039  1.00  0.00     0.255 C 
HETATM    8  O   UNL     1       2.541  30.903  56.670  1.00  0.00    -0.268 OA
HETATM    9  C   UNL     1       3.623  33.010  56.607  1.00  0.00     0.053 A 
HETATM   10  C   UNL     1       4.765  33.701  57.031  1.00  0.00     0.026 A 
HETATM   11  N   UNL     1       5.737  33.077  57.827  1.00  0.00    -0.265 NA
HETATM   12  C   UNL     1       2.669  33.609  55.778  1.00  0.00     0.019 A 
HETATM   13  C   UNL     1       2.869  34.916  55.339  1.00  0.00     0.001 A 
HETATM   14  C   UNL     1       4.024  35.603  55.713  1.00  0.00     0.002 A 
HETATM   15  C   UNL     1       4.974  34.994  56.540  1.00  0.00     0.024 A 
HETATM   16  C   UNL     1       4.477  32.512  59.893  1.00  0.00     0.068 C 
HETATM   17  C   UNL     1       5.357  33.256  60.884  1.00  0.00     0.130 C 
HETATM   18  O   UNL     1       8.429  32.763  62.525  1.00  0.00    -0.266 OA
HETATM   19  H   UNL     1       4.256  30.185  58.193  1.00  0.00     0.164 HD
HETATM   20  H   UNL     1       6.359  33.744  58.273  1.00  0.00     0.130 HD
ENDROOT
BRANCH   1  21
HETATM   21  C   UNL     1       6.407  33.104  63.637  1.00  0.00     0.119 A 
HETATM   22  N   UNL     1       5.167  32.599  63.908  1.00  0.00    -0.273 N 
HETATM   23  N   UNL     1       4.615  33.075  65.031  1.00  0.00    -0.178 NA
HETATM   24  H   UNL     1       4.634  31.938  63.352  1.00  0.00     0.189 HD
HETATM   25  C   UNL     1       5.569  33.851  65.568  1.00  0.00     0.064 A 
HETATM   26  C   UNL     1       6.721  33.871  64.739  1.00  0.00     0.066 A 
BRANCH  25  27
HETATM   27  C   UNL     1       5.325  34.555  66.893  1.00  0.00    -0.005 C 
HETATM   28  C   UNL     1       4.176  33.862  67.654  1.00  0.00     0.021 C 
HETATM   29  C   UNL     1       4.946  36.031  66.649  1.00  0.00     0.021 C 
HETATM   30  C   UNL     1       6.576  34.532  67.794  1.00  0.00     0.021 C 
ENDBRANCH  25  27
ENDBRANCH   1  21
TORSDOF 2
ENDMDL
MODEL 8
REMARK VINA RESULT:      -7.6      7.731     10.942
REMARK  2 active torsions:
REMARK  status: ('A' for Active; 'I' for Inactive)
REMARK    1  A    between atoms: C_2  and  C_3 
REMARK    2  A    between atoms: C_7  and  C_8 
REMARK       I    between atoms: C_8  and  N_9 
ROOT
HETATM    1  C   UNL     1       3.521  28.806  50.187  1.00  0.00     0.271 C 
HETATM    2  N   UNL     1       4.051  30.105  50.076  1.00  0.00    -0.346 N 
HETATM    3  C   UNL     1       3.105  31.145  49.679  1.00  0.00     0.130 C 
HETATM    4  C   UNL     1       3.608  32.539  50.028  1.00  0.00     0.068 C 
HETATM    5  C   UNL     1       5.031  32.804  49.509  1.00  0.00     0.094 C 
HETATM    6  N   UNL     1       5.498  34.063  50.051  1.00  0.00    -0.334 N 
HETATM    7  C   UNL     1       6.580  34.731  49.543  1.00  0.00     0.255 C 
HETATM    8  O   UNL     1       7.196  35.550  50.214  1.00  0.00    -0.268 OA
HETATM    9  C   UNL     1       6.940  34.418  48.148  1.00  0.00     0.053 A 
HETATM   10  C   UNL     1       6.122  33.520  47.451  1.00  0.00     0.026 A 
HETATM   11  N   UNL     1       4.992  32.949  48.054  1.00  0.00    -0.265 NA
HETATM   12  C   UNL     1       8.045  35.025  47.542  1.00  0.00     0.019 A 
HETATM   13  C   UNL     1       8.327  34.753  46.205  1.00  0.00     0.001 A 
HETATM   14  C   UNL     1       7.495  33.899  45.481  1.00  0.00     0.002 A 
HETATM   15  C   UNL     1       6.390  33.299  46.096  1.00  0.00     0.024 A 
HETATM   16  C   UNL     1       5.966  31.658  49.941  1.00  0.00     0.068 C 
HETATM   17  C   UNL     1       5.412  30.293  49.567  1.00  0.00     0.130 C 
HETATM   18  O   UNL     1       2.368  28.552  49.842  1.00  0.00    -0.266 OA
HETATM   19  H   UNL     1       5.338  34.261  51.029  1.00  0.00     0.164 HD
HETATM   20  H   UNL     1       4.650  32.139  47.549  1.00  0.00     0.130 HD
ENDROOT
BRANCH   1  21
HETATM   21  C   UNL     1       4.379  27.797  50.752  1.00  0.00     0.119 A 
HETATM   22  N   UNL     1       4.606  26.563  50.212  1.00  0.00    -0.273 N 
HETATM   23  N   UNL     1       5.421  25.788  50.939  1.00  0.00    -0.178 NA
HETATM   24  H   UNL     1       4.216  26.183  49.356  1.00  0.00     0.189 HD
HETATM   25  C   UNL     1       5.821  26.579  51.947  1.00  0.00     0.064 A 
HETATM   26  C   UNL     1       5.213  27.857  51.849  1.00  0.00     0.066 A 
BRANCH  25  27
HETATM   27  C   UNL     1       6.798  26.055  52.986  1.00  0.00    -0.005 C 
HETATM   28  C   UNL     1       7.472  27.233  53.717  1.00  0.00     0.021 C 
HETATM   29  C   UNL     1       7.887  25.196  52.308  1.00  0.00     0.021 C 
HETATM   30  C   UNL     1       6.096  25.176  54.042  1.00  0.00     0.021 C 
ENDBRANCH  25  27
ENDBRANCH   1  21
TORSDOF 2
ENDMDL
MODEL 9
REMARK VINA RESULT:      -7.5      8.303     10.809
REMARK  2 active torsions:
REMARK  status: ('A' for Active; 'I' for Inactive)
REMARK    1  A    between atoms: C_2  and  C_3 
REMARK    2  A    between atoms: C_7  and  C_8 
REMARK       I    between atoms: C_8  and  N_9 
ROOT
HETATM    1  C   UNL     1       6.407  33.883  65.312  1.00  0.00     0.271 C 
HETATM    2  N   UNL     1       5.766  34.805  64.463  1.00  0.00    -0.346 N 
HETATM    3  C   UNL     1       5.814  34.494  63.036  1.00  0.00     0.130 C 
HETATM    4  C   UNL     1       4.741  35.238  62.252  1.00  0.00     0.068 C 
HETATM    5  C   UNL     1       4.746  36.751  62.529  1.00  0.00     0.094 C 
HETATM    6  N   UNL     1       3.583  37.343  61.903  1.00  0.00    -0.334 N 
HETATM    7  C   UNL     1       3.460  38.691  61.695  1.00  0.00     0.255 C 
HETATM    8  O   UNL     1       2.364  39.215  61.542  1.00  0.00    -0.268 OA
HETATM    9  C   UNL     1       4.719  39.458  61.648  1.00  0.00     0.053 A 
HETATM   10  C   UNL     1       5.919  38.745  61.762  1.00  0.00     0.026 A 
HETATM   11  N   UNL     1       5.924  37.350  61.901  1.00  0.00    -0.265 NA
HETATM   12  C   UNL     1       4.704  40.844  61.468  1.00  0.00     0.019 A 
HETATM   13  C   UNL     1       5.910  41.535  61.371  1.00  0.00     0.001 A 
HETATM   14  C   UNL     1       7.115  40.835  61.433  1.00  0.00     0.002 A 
HETATM   15  C   UNL     1       7.119  39.447  61.612  1.00  0.00     0.024 A 
HETATM   16  C   UNL     1       4.722  37.004  64.048  1.00  0.00     0.068 C 
HETATM   17  C   UNL     1       5.812  36.235  64.776  1.00  0.00     0.130 C 
HETATM   18  O   UNL     1       7.073  32.953  64.862  1.00  0.00    -0.266 OA
HETATM   19  H   UNL     1       2.690  36.878  61.997  1.00  0.00     0.164 HD
HETATM   20  H   UNL     1       6.816  36.996  62.232  1.00  0.00     0.130 HD
ENDROOT
BRANCH   1  21
HETATM   21  C   UNL     1       6.220  34.061  66.728  1.00  0.00     0.119 A 
HETATM   22  N   UNL     1       5.056  33.827  67.404  1.00  0.00    -0.273 N 
HETATM   23  N   UNL     1       5.119  34.094  68.714  1.00  0.00    -0.178 NA
HETATM   24  H   UNL     1       4.174  33.501  67.021  1.00  0.00     0.189 HD
HETATM   25  C   UNL     1       6.403  34.426  68.924  1.00  0.00     0.064 A 
HETATM   26  C   UNL     1       7.134  34.388  67.708  1.00  0.00     0.066 A 
BRANCH  25  27
HETATM   27  C   UNL     1       6.882  34.772  70.325  1.00  0.00    -0.005 C 
HETATM   28  C   UNL     1       7.637  36.116  70.306  1.00  0.00     0.021 C 
HETATM   29  C   UNL     1       7.830  33.672  70.850  1.00  0.00     0.021 C 
HETATM   30  C   UNL     1       5.709  34.897  71.318  1.00  0.00     0.021 C 
ENDBRANCH  25  27
ENDBRANCH   1  21
TORSDOF 2
ENDMDL
MODEL 10
REMARK VINA RESULT:      -7.3      6.581     10.075
REMARK  2 active torsions:
REMARK  status: ('A' for Active; 'I' for Inactive)
REMARK    1  A    between atoms: C_2  and  C_3 
REMARK    2  A    between atoms: C_7  and  C_8 
REMARK       I    between atoms: C_8  and  N_9 
ROOT
HETATM    1  C   UNL     1       2.439  35.197  59.494  1.00  0.00     0.271 C 
HETATM    2  N   UNL     1       3.389  34.616  60.356  1.00  0.00    -0.346 N 
HETATM    3  C   UNL     1       3.135  33.229  60.738  1.00  0.00     0.130 C 
HETATM    4  C   UNL     1       4.389  32.540  61.258  1.00  0.00     0.068 C 
HETATM    5  C   UNL     1       5.090  33.341  62.368  1.00  0.00     0.094 C 
HETATM    6  N   UNL     1       6.363  32.718  62.660  1.00  0.00    -0.334 N 
HETATM    7  C   UNL     1       7.078  32.991  63.795  1.00  0.00     0.255 C 
HETATM    8  O   UNL     1       8.283  32.785  63.856  1.00  0.00    -0.268 OA
HETATM    9  C   UNL     1       6.308  33.527  64.934  1.00  0.00     0.053 A 
HETATM   10  C   UNL     1       4.922  33.654  64.780  1.00  0.00     0.026 A 
HETATM   11  N   UNL     1       4.287  33.272  63.589  1.00  0.00    -0.265 NA
HETATM   12  C   UNL     1       6.946  33.865  66.132  1.00  0.00     0.019 A 
HETATM   13  C   UNL     1       6.186  34.314  67.209  1.00  0.00     0.001 A 
HETATM   14  C   UNL     1       4.798  34.401  67.088  1.00  0.00     0.002 A 
HETATM   15  C   UNL     1       4.169  34.058  65.887  1.00  0.00     0.024 A 
HETATM   16  C   UNL     1       5.301  34.796  61.908  1.00  0.00     0.068 C 
HETATM   17  C   UNL     1       4.017  35.430  61.399  1.00  0.00     0.130 C 
HETATM   18  O   UNL     1       1.401  34.611  59.196  1.00  0.00    -0.266 OA
HETATM   19  H   UNL     1       6.948  32.421  61.891  1.00  0.00     0.164 HD
HETATM   20  H   UNL     1       3.349  33.652  63.510  1.00  0.00     0.130 HD
ENDROOT
BRANCH   1  21
HETATM   21  C   UNL     1       2.756  36.493  58.954  1.00  0.00     0.119 A 
HETATM   22  N   UNL     1       2.097  37.653  59.251  1.00  0.00    -0.273 N 
HETATM   23  N   UNL     1       2.558  38.728  58.599  1.00  0.00    -0.178 NA
HETATM   24  H   UNL     1       1.310  37.772  59.879  1.00  0.00     0.189 HD
HETATM   25  C   UNL     1       3.623  38.273  57.919  1.00  0.00     0.064 A 
HETATM   26  C   UNL     1       3.799  36.883  58.139  1.00  0.00     0.066 A 
BRANCH  25  27
HETATM   27  C   UNL     1       4.447  39.225  57.067  1.00  0.00    -0.005 C 
HETATM   28  C   UNL     1       3.812  40.630  57.082  1.00  0.00     0.021 C 
HETATM   29  C   UNL     1       4.508  38.718  55.610  1.00  0.00     0.021 C 
HETATM   30  C   UNL     1       5.895  39.350  57.583  1.00  0.00     0.021 C 
ENDBRANCH  25  27
ENDBRANCH   1  21
TORSDOF 2
ENDMDL
