MODEL 1
REMARK VINA RESULT:      -9.9      0.000      0.000
REMARK  5 active torsions:
REMARK  status: ('A' for Active; 'I' for Inactive)
REMARK    1  A    between atoms: C_3  and  N_4 
REMARK    2  A    between atoms: N_5  and  C_6 
REMARK    3  A    between atoms: C_6  and  C_7 
REMARK    4  A    between atoms: C_7  and  C_8 
REMARK    5  A    between atoms: C_17  and  C_18 
ROOT
HETATM    1  C   UNL     1       4.713  29.321  54.457  1.00  0.00     0.175 C 
HETATM    2  N   UNL     1       5.339  28.006  54.426  1.00  0.00    -0.186 N 
HETATM    3  C   UNL     1       4.901  26.992  53.684  1.00  0.00     0.680 A 
HETATM    4  N   UNL     1       5.799  26.014  53.709  1.00  0.00    -0.184 N 
HETATM    5  C   UNL     1       6.844  26.406  54.526  1.00  0.00     0.140 A 
HETATM    6  C   UNL     1       6.557  27.653  55.044  1.00  0.00     0.077 A 
ENDROOT
BRANCH   4   7
HETATM    7  C   UNL     1       5.693  24.684  53.078  1.00  0.00     0.231 C 
BRANCH   7   8
HETATM    8  C   UNL     1       7.053  24.054  52.808  1.00  0.00     0.178 C 
HETATM    9  O   UNL     1       7.835  24.548  51.991  1.00  0.00    -0.290 OA
BRANCH   8  10
HETATM   10  C   UNL     1       7.452  22.835  53.560  1.00  0.00     0.012 A 
HETATM   11  C   UNL     1       7.867  21.665  52.912  1.00  0.00     0.018 A 
HETATM   12  C   UNL     1       8.221  20.544  53.668  1.00  0.00     0.043 A 
HETATM   13  C   UNL     1       8.165  20.600  55.057  1.00  0.00     0.116 A 
HETATM   14  F   UNL     1       8.500  19.520  55.773  1.00  0.00    -0.206 F 
HETATM   15  C   UNL     1       7.771  21.761  55.710  1.00  0.00     0.043 A 
HETATM   16  C   UNL     1       7.419  22.886  54.962  1.00  0.00     0.018 A 
ENDBRANCH   8  10
ENDBRANCH   7   8
ENDBRANCH   4   7
BRANCH   3  17
HETATM   17  N   UNL     1       3.754  26.977  53.013  1.00  0.00    -0.234 N 
HETATM   18  H   UNL     1       3.673  27.299  52.064  1.00  0.00     0.174 HD
HETATM   19  H   UNL     1       2.966  26.448  53.391  1.00  0.00     0.174 HD
ENDBRANCH   3  17
BRANCH   6  20
HETATM   20  C   UNL     1       7.417  28.399  56.030  1.00  0.00    -0.004 A 
HETATM   21  C   UNL     1       8.647  28.931  55.607  1.00  0.00     0.053 A 
HETATM   22  C   UNL     1       9.415  29.608  56.531  1.00  0.00     0.106 A 
HETATM   23  C   UNL     1       9.016  29.766  57.834  1.00  0.00     0.105 A 
HETATM   24  O   UNL     1      10.620  30.188  56.284  1.00  0.00    -0.323 OA
HETATM   25  O   UNL     1       9.917  30.462  58.573  1.00  0.00    -0.323 OA
HETATM   26  C   UNL     1       7.826  29.245  58.288  1.00  0.00     0.040 A 
HETATM   27  C   UNL     1      10.936  30.729  57.586  1.00  0.00     0.352 A 
HETATM   28  C   UNL     1       7.022  28.549  57.375  1.00  0.00     0.017 A 
ENDBRANCH   6  20
TORSDOF 5
ENDMDL
MODEL 2
REMARK VINA RESULT:      -9.8      2.191      3.039
REMARK  5 active torsions:
REMARK  status: ('A' for Active; 'I' for Inactive)
REMARK    1  A    between atoms: C_3  and  N_4 
REMARK    2  A    between atoms: N_5  and  C_6 
REMARK    3  A    between atoms: C_6  and  C_7 
REMARK    4  A    between atoms: C_7  and  C_8 
REMARK    5  A    between atoms: C_17  and  C_18 
ROOT
HETATM    1  C   UNL     1       7.755  28.578  54.297  1.00  0.00     0.175 C 
HETATM    2  N   UNL     1       7.574  27.624  55.382  1.00  0.00    -0.186 N 
HETATM    3  C   UNL     1       7.053  26.410  55.226  1.00  0.00     0.680 A 
HETATM    4  N   UNL     1       7.222  25.716  56.345  1.00  0.00    -0.184 N 
HETATM    5  C   UNL     1       7.852  26.529  57.269  1.00  0.00     0.140 A 
HETATM    6  C   UNL     1       8.044  27.774  56.704  1.00  0.00     0.077 A 
ENDROOT
BRANCH   4   7
HETATM    7  C   UNL     1       6.742  24.350  56.633  1.00  0.00     0.231 C 
BRANCH   7   8
HETATM    8  C   UNL     1       7.865  23.320  56.621  1.00  0.00     0.178 C 
HETATM    9  O   UNL     1       8.655  23.226  57.564  1.00  0.00    -0.290 OA
BRANCH   8  10
HETATM   10  C   UNL     1       7.994  22.398  55.462  1.00  0.00     0.012 A 
HETATM   11  C   UNL     1       8.112  21.012  55.625  1.00  0.00     0.018 A 
HETATM   12  C   UNL     1       8.242  20.192  54.501  1.00  0.00     0.043 A 
HETATM   13  C   UNL     1       8.245  20.756  53.229  1.00  0.00     0.116 A 
HETATM   14  F   UNL     1       8.375  19.964  52.158  1.00  0.00    -0.206 F 
HETATM   15  C   UNL     1       8.111  22.127  53.055  1.00  0.00     0.043 A 
HETATM   16  C   UNL     1       7.979  22.953  54.173  1.00  0.00     0.018 A 
ENDBRANCH   8  10
ENDBRANCH   7   8
ENDBRANCH   4   7
BRANCH   3  17
HETATM   17  N   UNL     1       6.474  25.966  54.115  1.00  0.00    -0.234 N 
HETATM   18  H   UNL     1       6.369  24.987  53.909  1.00  0.00     0.174 HD
HETATM   19  H   UNL     1       5.942  26.620  53.538  1.00  0.00     0.174 HD
ENDBRANCH   3  17
BRANCH   6  20
HETATM   20  C   UNL     1       8.641  28.962  57.411  1.00  0.00    -0.004 A 
HETATM   21  C   UNL     1       7.927  29.573  58.456  1.00  0.00     0.053 A 
HETATM   22  C   UNL     1       8.496  30.661  59.085  1.00  0.00     0.106 A 
HETATM   23  C   UNL     1       9.721  31.156  58.716  1.00  0.00     0.105 A 
HETATM   24  O   UNL     1       7.944  31.357  60.114  1.00  0.00    -0.323 OA
HETATM   25  O   UNL     1      10.095  32.226  59.463  1.00  0.00    -0.323 OA
HETATM   26  C   UNL     1      10.441  30.595  57.687  1.00  0.00     0.040 A 
HETATM   27  C   UNL     1       8.964  32.352  60.351  1.00  0.00     0.352 A 
HETATM   28  C   UNL     1       9.890  29.489  57.025  1.00  0.00     0.017 A 
ENDBRANCH   6  20
TORSDOF 5
ENDMDL
MODEL 3
REMARK VINA RESULT:      -9.6      0.637      1.360
REMARK  5 active torsions:
REMARK  status: ('A' for Active; 'I' for Inactive)
REMARK    1  A    between atoms: C_3  and  N_4 
REMARK    2  A    between atoms: N_5  and  C_6 
REMARK    3  A    between atoms: C_6  and  C_7 
REMARK    4  A    between atoms: C_7  and  C_8 
REMARK    5  A    between atoms: C_17  and  C_18 
ROOT
HETATM    1  C   UNL     1       4.886  29.452  54.592  1.00  0.00     0.175 C 
HETATM    2  N   UNL     1       5.518  28.142  54.521  1.00  0.00    -0.186 N 
HETATM    3  C   UNL     1       5.019  27.111  53.843  1.00  0.00     0.680 A 
HETATM    4  N   UNL     1       5.924  26.141  53.796  1.00  0.00    -0.184 N 
HETATM    5  C   UNL     1       7.042  26.556  54.496  1.00  0.00     0.140 A 
HETATM    6  C   UNL     1       6.795  27.810  55.019  1.00  0.00     0.077 A 
ENDROOT
BRANCH   4   7
HETATM    7  C   UNL     1       5.769  24.799  53.201  1.00  0.00     0.231 C 
BRANCH   7   8
HETATM    8  C   UNL     1       7.107  24.136  52.894  1.00  0.00     0.178 C 
HETATM    9  O   UNL     1       7.887  24.625  52.072  1.00  0.00    -0.290 OA
BRANCH   8  10
HETATM   10  C   UNL     1       7.485  22.893  53.616  1.00  0.00     0.012 A 
HETATM   11  C   UNL     1       7.883  21.733  52.939  1.00  0.00     0.018 A 
HETATM   12  C   UNL     1       8.217  20.588  53.667  1.00  0.00     0.043 A 
HETATM   13  C   UNL     1       8.159  20.610  55.056  1.00  0.00     0.116 A 
HETATM   14  F   UNL     1       8.475  19.507  55.746  1.00  0.00    -0.206 F 
HETATM   15  C   UNL     1       7.782  21.759  55.738  1.00  0.00     0.043 A 
HETATM   16  C   UNL     1       7.448  22.908  55.018  1.00  0.00     0.018 A 
ENDBRANCH   8  10
ENDBRANCH   7   8
ENDBRANCH   4   7
BRANCH   3  17
HETATM   17  N   UNL     1       3.811  27.074  53.291  1.00  0.00    -0.234 N 
HETATM   18  H   UNL     1       3.018  26.648  53.741  1.00  0.00     0.174 HD
HETATM   19  H   UNL     1       3.621  27.659  52.476  1.00  0.00     0.174 HD
ENDBRANCH   3  17
BRANCH   6  20
HETATM   20  C   UNL     1       7.742  28.581  55.902  1.00  0.00    -0.004 A 
HETATM   21  C   UNL     1       7.355  28.898  57.215  1.00  0.00     0.053 A 
HETATM   22  C   UNL     1       8.240  29.607  58.001  1.00  0.00     0.106 A 
HETATM   23  C   UNL     1       9.466  30.008  57.536  1.00  0.00     0.105 A 
HETATM   24  O   UNL     1       8.025  29.985  59.290  1.00  0.00    -0.323 OA
HETATM   25  O   UNL     1      10.179  30.689  58.469  1.00  0.00    -0.323 OA
HETATM   26  C   UNL     1       9.873  29.730  56.251  1.00  0.00     0.040 A 
HETATM   27  C   UNL     1       9.261  30.674  59.583  1.00  0.00     0.352 A 
HETATM   28  C   UNL     1       8.996  29.013  55.425  1.00  0.00     0.017 A 
ENDBRANCH   6  20
TORSDOF 5
ENDMDL
MODEL 4
REMARK VINA RESULT:      -9.4      2.954      7.374
REMARK  5 active torsions:
REMARK  status: ('A' for Active; 'I' for Inactive)
REMARK    1  A    between atoms: C_3  and  N_4 
REMARK    2  A    between atoms: N_5  and  C_6 
REMARK    3  A    between atoms: C_6  and  C_7 
REMARK    4  A    between atoms: C_7  and  C_8 
REMARK    5  A    between atoms: C_17  and  C_18 
ROOT
HETATM    1  C   UNL     1       4.642  25.697  53.123  1.00  0.00     0.175 C 
HETATM    2  N   UNL     1       5.373  26.103  54.315  1.00  0.00    -0.186 N 
HETATM    3  C   UNL     1       5.099  27.198  55.019  1.00  0.00     0.680 A 
HETATM    4  N   UNL     1       5.791  27.173  56.151  1.00  0.00    -0.184 N 
HETATM    5  C   UNL     1       6.564  26.027  56.162  1.00  0.00     0.140 A 
HETATM    6  C   UNL     1       6.362  25.346  54.978  1.00  0.00     0.077 A 
ENDROOT
BRANCH   4   7
HETATM    7  C   UNL     1       5.839  28.215  57.196  1.00  0.00     0.231 C 
BRANCH   7   8
HETATM    8  C   UNL     1       6.510  29.496  56.715  1.00  0.00     0.178 C 
HETATM    9  O   UNL     1       5.850  30.421  56.235  1.00  0.00    -0.290 OA
BRANCH   8  10
HETATM   10  C   UNL     1       7.983  29.639  56.851  1.00  0.00     0.012 A 
HETATM   11  C   UNL     1       8.861  29.304  55.812  1.00  0.00     0.018 A 
HETATM   12  C   UNL     1      10.239  29.448  55.997  1.00  0.00     0.043 A 
HETATM   13  C   UNL     1      10.728  29.929  57.207  1.00  0.00     0.116 A 
HETATM   14  F   UNL     1      12.050  30.059  57.378  1.00  0.00    -0.206 F 
HETATM   15  C   UNL     1       9.866  30.281  58.238  1.00  0.00     0.043 A 
HETATM   16  C   UNL     1       8.488  30.142  58.060  1.00  0.00     0.018 A 
ENDBRANCH   8  10
ENDBRANCH   7   8
ENDBRANCH   4   7
BRANCH   3  17
HETATM   17  N   UNL     1       4.252  28.152  54.646  1.00  0.00    -0.234 N 
HETATM   18  H   UNL     1       3.478  28.447  55.217  1.00  0.00     0.174 HD
HETATM   19  H   UNL     1       4.492  28.745  53.850  1.00  0.00     0.174 HD
ENDBRANCH   3  17
BRANCH   6  20
HETATM   20  C   UNL     1       7.072  24.080  54.576  1.00  0.00    -0.004 A 
HETATM   21  C   UNL     1       7.215  23.043  55.514  1.00  0.00     0.053 A 
HETATM   22  C   UNL     1       7.871  21.895  55.120  1.00  0.00     0.106 A 
HETATM   23  C   UNL     1       8.384  21.747  53.856  1.00  0.00     0.105 A 
HETATM   24  O   UNL     1       8.085  20.801  55.898  1.00  0.00    -0.323 OA
HETATM   25  O   UNL     1       8.987  20.544  53.677  1.00  0.00    -0.323 OA
HETATM   26  C   UNL     1       8.277  22.747  52.917  1.00  0.00     0.040 A 
HETATM   27  C   UNL     1       8.796  19.944  54.977  1.00  0.00     0.352 A 
HETATM   28  C   UNL     1       7.618  23.928  53.285  1.00  0.00     0.017 A 
ENDBRANCH   6  20
TORSDOF 5
ENDMDL
MODEL 5
REMARK VINA RESULT:      -9.2      3.328      7.831
REMARK  5 active torsions:
REMARK  status: ('A' for Active; 'I' for Inactive)
REMARK    1  A    between atoms: C_3  and  N_4 
REMARK    2  A    between atoms: N_5  and  C_6 
REMARK    3  A    between atoms: C_6  and  C_7 
REMARK    4  A    between atoms: C_7  and  C_8 
REMARK    5  A    between atoms: C_17  and  C_18 
ROOT
HETATM    1  C   UNL     1       4.569  24.944  52.900  1.00  0.00     0.175 C 
HETATM    2  N   UNL     1       5.624  25.662  53.601  1.00  0.00    -0.186 N 
HETATM    3  C   UNL     1       5.600  26.970  53.841  1.00  0.00     0.680 A 
HETATM    4  N   UNL     1       6.586  27.278  54.676  1.00  0.00    -0.184 N 
HETATM    5  C   UNL     1       7.289  26.122  54.961  1.00  0.00     0.140 A 
HETATM    6  C   UNL     1       6.734  25.080  54.247  1.00  0.00     0.077 A 
ENDROOT
BRANCH   4   7
HETATM    7  C   UNL     1       6.965  28.621  55.158  1.00  0.00     0.231 C 
BRANCH   7   8
HETATM    8  C   UNL     1       6.818  28.765  56.668  1.00  0.00     0.178 C 
HETATM    9  O   UNL     1       5.937  28.159  57.284  1.00  0.00    -0.290 OA
BRANCH   8  10
HETATM   10  C   UNL     1       7.769  29.632  57.411  1.00  0.00     0.012 A 
HETATM   11  C   UNL     1       9.156  29.525  57.247  1.00  0.00     0.018 A 
HETATM   12  C   UNL     1      10.006  30.357  57.980  1.00  0.00     0.043 A 
HETATM   13  C   UNL     1       9.469  31.290  58.861  1.00  0.00     0.116 A 
HETATM   14  F   UNL     1      10.291  32.080  59.564  1.00  0.00    -0.206 F 
HETATM   15  C   UNL     1       8.095  31.416  59.019  1.00  0.00     0.043 A 
HETATM   16  C   UNL     1       7.240  30.590  58.289  1.00  0.00     0.018 A 
ENDBRANCH   8  10
ENDBRANCH   7   8
ENDBRANCH   4   7
BRANCH   3  17
HETATM   17  N   UNL     1       4.715  27.823  53.335  1.00  0.00    -0.234 N 
HETATM   18  H   UNL     1       4.918  28.797  53.190  1.00  0.00     0.174 HD
HETATM   19  H   UNL     1       3.869  27.456  52.897  1.00  0.00     0.174 HD
ENDBRANCH   3  17
BRANCH   6  20
HETATM   20  C   UNL     1       7.256  23.666  54.234  1.00  0.00    -0.004 A 
HETATM   21  C   UNL     1       7.419  22.980  55.450  1.00  0.00     0.053 A 
HETATM   22  C   UNL     1       7.899  21.688  55.409  1.00  0.00     0.106 A 
HETATM   23  C   UNL     1       8.223  21.069  54.228  1.00  0.00     0.105 A 
HETATM   24  O   UNL     1       8.106  20.887  56.488  1.00  0.00    -0.323 OA
HETATM   25  O   UNL     1       8.675  19.802  54.412  1.00  0.00    -0.323 OA
HETATM   26  C   UNL     1       8.092  21.714  53.020  1.00  0.00     0.040 A 
HETATM   27  C   UNL     1       8.600  19.689  55.850  1.00  0.00     0.352 A 
HETATM   28  C   UNL     1       7.609  23.030  53.026  1.00  0.00     0.017 A 
ENDBRANCH   6  20
TORSDOF 5
ENDMDL
MODEL 6
REMARK VINA RESULT:      -9.1      3.730      8.386
REMARK  5 active torsions:
REMARK  status: ('A' for Active; 'I' for Inactive)
REMARK    1  A    between atoms: C_3  and  N_4 
REMARK    2  A    between atoms: N_5  and  C_6 
REMARK    3  A    between atoms: C_6  and  C_7 
REMARK    4  A    between atoms: C_7  and  C_8 
REMARK    5  A    between atoms: C_17  and  C_18 
ROOT
HETATM    1  C   UNL     1       4.896  25.371  57.135  1.00  0.00     0.175 C 
HETATM    2  N   UNL     1       5.863  26.273  56.526  1.00  0.00    -0.186 N 
HETATM    3  C   UNL     1       5.970  27.564  56.829  1.00  0.00     0.680 A 
HETATM    4  N   UNL     1       7.071  28.053  56.271  1.00  0.00    -0.184 N 
HETATM    5  C   UNL     1       7.681  27.040  55.555  1.00  0.00     0.140 A 
HETATM    6  C   UNL     1       6.907  25.902  55.652  1.00  0.00     0.077 A 
ENDROOT
BRANCH   4   7
HETATM    7  C   UNL     1       7.543  29.452  56.296  1.00  0.00     0.231 C 
BRANCH   7   8
HETATM    8  C   UNL     1       8.651  29.678  57.317  1.00  0.00     0.178 C 
HETATM    9  O   UNL     1       9.730  29.086  57.230  1.00  0.00    -0.290 OA
BRANCH   8  10
HETATM   10  C   UNL     1       8.433  30.647  58.423  1.00  0.00     0.012 A 
HETATM   11  C   UNL     1       9.495  31.164  59.177  1.00  0.00     0.018 A 
HETATM   12  C   UNL     1       9.233  32.064  60.214  1.00  0.00     0.043 A 
HETATM   13  C   UNL     1       7.923  32.445  60.484  1.00  0.00     0.116 A 
HETATM   14  F   UNL     1       7.680  33.304  61.482  1.00  0.00    -0.206 F 
HETATM   15  C   UNL     1       6.864  31.953  59.732  1.00  0.00     0.043 A 
HETATM   16  C   UNL     1       7.118  31.055  58.693  1.00  0.00     0.018 A 
ENDBRANCH   8  10
ENDBRANCH   7   8
ENDBRANCH   4   7
BRANCH   3  17
HETATM   17  N   UNL     1       5.115  28.243  57.586  1.00  0.00    -0.234 N 
HETATM   18  H   UNL     1       4.278  27.834  57.966  1.00  0.00     0.174 HD
HETATM   19  H   UNL     1       5.397  29.150  57.961  1.00  0.00     0.174 HD
ENDBRANCH   3  17
BRANCH   6  20
HETATM   20  C   UNL     1       7.196  24.596  54.958  1.00  0.00    -0.004 A 
HETATM   21  C   UNL     1       7.596  23.485  55.720  1.00  0.00     0.053 A 
HETATM   22  C   UNL     1       7.856  22.302  55.059  1.00  0.00     0.106 A 
HETATM   23  C   UNL     1       7.742  22.190  53.696  1.00  0.00     0.105 A 
HETATM   24  O   UNL     1       8.243  21.138  55.645  1.00  0.00    -0.323 OA
HETATM   25  O   UNL     1       8.042  20.943  53.251  1.00  0.00    -0.323 OA
HETATM   26  C   UNL     1       7.368  23.260  52.917  1.00  0.00     0.040 A 
HETATM   27  C   UNL     1       8.361  20.276  54.491  1.00  0.00     0.352 A 
HETATM   28  C   UNL     1       7.099  24.478  53.557  1.00  0.00     0.017 A 
ENDBRANCH   6  20
TORSDOF 5
ENDMDL
MODEL 7
REMARK VINA RESULT:      -8.9      2.871      5.270
REMARK  5 active torsions:
REMARK  status: ('A' for Active; 'I' for Inactive)
REMARK    1  A    between atoms: C_3  and  N_4 
REMARK    2  A    between atoms: N_5  and  C_6 
REMARK    3  A    between atoms: C_6  and  C_7 
REMARK    4  A    between atoms: C_7  and  C_8 
REMARK    5  A    between atoms: C_17  and  C_18 
ROOT
HETATM    1  C   UNL     1       6.657  29.313  55.757  1.00  0.00     0.175 C 
HETATM    2  N   UNL     1       6.479  27.873  55.631  1.00  0.00    -0.186 N 
HETATM    3  C   UNL     1       6.941  26.987  56.511  1.00  0.00     0.680 A 
HETATM    4  N   UNL     1       6.435  25.792  56.231  1.00  0.00    -0.184 N 
HETATM    5  C   UNL     1       5.638  25.910  55.107  1.00  0.00     0.140 A 
HETATM    6  C   UNL     1       5.687  27.217  54.666  1.00  0.00     0.077 A 
ENDROOT
BRANCH   4   7
HETATM    7  C   UNL     1       6.728  24.514  56.909  1.00  0.00     0.231 C 
BRANCH   7   8
HETATM    8  C   UNL     1       8.051  23.904  56.462  1.00  0.00     0.178 C 
HETATM    9  O   UNL     1       9.119  24.251  56.973  1.00  0.00    -0.290 OA
BRANCH   8  10
HETATM   10  C   UNL     1       8.049  22.854  55.409  1.00  0.00     0.012 A 
HETATM   11  C   UNL     1       8.035  21.489  55.721  1.00  0.00     0.018 A 
HETATM   12  C   UNL     1       8.045  20.544  54.692  1.00  0.00     0.043 A 
HETATM   13  C   UNL     1       8.061  20.965  53.366  1.00  0.00     0.116 A 
HETATM   14  F   UNL     1       8.076  20.053  52.386  1.00  0.00    -0.206 F 
HETATM   15  C   UNL     1       8.058  22.316  53.045  1.00  0.00     0.043 A 
HETATM   16  C   UNL     1       8.046  23.267  54.068  1.00  0.00     0.018 A 
ENDBRANCH   8  10
ENDBRANCH   7   8
ENDBRANCH   4   7
BRANCH   3  17
HETATM   17  N   UNL     1       7.762  27.267  57.516  1.00  0.00    -0.234 N 
HETATM   18  H   UNL     1       7.496  27.170  58.481  1.00  0.00     0.174 HD
HETATM   19  H   UNL     1       8.756  27.400  57.322  1.00  0.00     0.174 HD
ENDBRANCH   3  17
BRANCH   6  20
HETATM   20  C   UNL     1       5.005  27.739  53.428  1.00  0.00    -0.004 A 
HETATM   21  C   UNL     1       5.582  27.498  52.170  1.00  0.00     0.053 A 
HETATM   22  C   UNL     1       4.938  27.989  51.053  1.00  0.00     0.106 A 
HETATM   23  C   UNL     1       3.768  28.701  51.142  1.00  0.00     0.105 A 
HETATM   24  O   UNL     1       5.356  27.838  49.769  1.00  0.00    -0.323 OA
HETATM   25  O   UNL     1       3.303  29.089  49.928  1.00  0.00    -0.323 OA
HETATM   26  C   UNL     1       3.182  28.970  52.358  1.00  0.00     0.040 A 
HETATM   27  C   UNL     1       4.314  28.540  49.056  1.00  0.00     0.352 A 
HETATM   28  C   UNL     1       3.813  28.487  53.513  1.00  0.00     0.017 A 
ENDBRANCH   6  20
TORSDOF 5
ENDMDL
MODEL 8
REMARK VINA RESULT:      -8.9      1.583      1.951
REMARK  5 active torsions:
REMARK  status: ('A' for Active; 'I' for Inactive)
REMARK    1  A    between atoms: C_3  and  N_4 
REMARK    2  A    between atoms: N_5  and  C_6 
REMARK    3  A    between atoms: C_6  and  C_7 
REMARK    4  A    between atoms: C_7  and  C_8 
REMARK    5  A    between atoms: C_17  and  C_18 
ROOT
HETATM    1  C   UNL     1       4.411  30.012  54.544  1.00  0.00     0.175 C 
HETATM    2  N   UNL     1       4.922  28.738  55.031  1.00  0.00    -0.186 N 
HETATM    3  C   UNL     1       4.714  27.572  54.424  1.00  0.00     0.680 A 
HETATM    4  N   UNL     1       5.480  26.646  54.988  1.00  0.00    -0.184 N 
HETATM    5  C   UNL     1       6.188  27.236  56.019  1.00  0.00     0.140 A 
HETATM    6  C   UNL     1       5.814  28.561  56.109  1.00  0.00     0.077 A 
ENDROOT
BRANCH   4   7
HETATM    7  C   UNL     1       5.522  25.205  54.671  1.00  0.00     0.231 C 
BRANCH   7   8
HETATM    8  C   UNL     1       6.789  24.805  53.925  1.00  0.00     0.178 C 
HETATM    9  O   UNL     1       7.404  25.619  53.230  1.00  0.00    -0.290 OA
BRANCH   8  10
HETATM   10  C   UNL     1       7.305  23.417  54.058  1.00  0.00     0.012 A 
HETATM   11  C   UNL     1       7.719  22.670  52.948  1.00  0.00     0.018 A 
HETATM   12  C   UNL     1       8.184  21.364  53.129  1.00  0.00     0.043 A 
HETATM   13  C   UNL     1       8.240  20.820  54.408  1.00  0.00     0.116 A 
HETATM   14  F   UNL     1       8.682  19.567  54.571  1.00  0.00    -0.206 F 
HETATM   15  C   UNL     1       7.847  21.558  55.517  1.00  0.00     0.043 A 
HETATM   16  C   UNL     1       7.383  22.864  55.345  1.00  0.00     0.018 A 
ENDBRANCH   8  10
ENDBRANCH   7   8
ENDBRANCH   4   7
BRANCH   3  17
HETATM   17  N   UNL     1       3.884  27.380  53.405  1.00  0.00    -0.234 N 
HETATM   18  H   UNL     1       4.063  26.713  52.674  1.00  0.00     0.174 HD
HETATM   19  H   UNL     1       2.942  27.773  53.453  1.00  0.00     0.174 HD
ENDBRANCH   3  17
BRANCH   6  20
HETATM   20  C   UNL     1       6.311  29.531  57.150  1.00  0.00    -0.004 A 
HETATM   21  C   UNL     1       7.467  29.220  57.885  1.00  0.00     0.053 A 
HETATM   22  C   UNL     1       7.899  30.125  58.833  1.00  0.00     0.106 A 
HETATM   23  C   UNL     1       7.232  31.299  59.075  1.00  0.00     0.105 A 
HETATM   24  O   UNL     1       8.999  29.981  59.619  1.00  0.00    -0.323 OA
HETATM   25  O   UNL     1       7.825  32.043  60.043  1.00  0.00    -0.323 OA
HETATM   26  C   UNL     1       6.088  31.630  58.386  1.00  0.00     0.040 A 
HETATM   27  C   UNL     1       8.948  31.203  60.389  1.00  0.00     0.352 A 
HETATM   28  C   UNL     1       5.620  30.730  57.418  1.00  0.00     0.017 A 
ENDBRANCH   6  20
TORSDOF 5
ENDMDL
MODEL 9
REMARK VINA RESULT:      -8.7      3.139      5.618
REMARK  5 active torsions:
REMARK  status: ('A' for Active; 'I' for Inactive)
REMARK    1  A    between atoms: C_3  and  N_4 
REMARK    2  A    between atoms: N_5  and  C_6 
REMARK    3  A    between atoms: C_6  and  C_7 
REMARK    4  A    between atoms: C_7  and  C_8 
REMARK    5  A    between atoms: C_17  and  C_18 
ROOT
HETATM    1  C   UNL     1       4.572  29.598  54.624  1.00  0.00     0.175 C 
HETATM    2  N   UNL     1       5.061  28.228  54.572  1.00  0.00    -0.186 N 
HETATM    3  C   UNL     1       5.240  27.460  55.644  1.00  0.00     0.680 A 
HETATM    4  N   UNL     1       5.483  26.215  55.253  1.00  0.00    -0.184 N 
HETATM    5  C   UNL     1       5.489  26.188  53.870  1.00  0.00     0.140 A 
HETATM    6  C   UNL     1       5.277  27.469  53.402  1.00  0.00     0.077 A 
ENDROOT
BRANCH   4   7
HETATM    7  C   UNL     1       5.802  25.054  56.107  1.00  0.00     0.231 C 
BRANCH   7   8
HETATM    8  C   UNL     1       7.235  24.570  55.927  1.00  0.00     0.178 C 
HETATM    9  O   UNL     1       8.173  25.118  56.513  1.00  0.00    -0.290 OA
BRANCH   8  10
HETATM   10  C   UNL     1       7.504  23.402  55.046  1.00  0.00     0.012 A 
HETATM   11  C   UNL     1       7.694  23.542  53.666  1.00  0.00     0.018 A 
HETATM   12  C   UNL     1       7.932  22.408  52.883  1.00  0.00     0.043 A 
HETATM   13  C   UNL     1       7.985  21.153  53.480  1.00  0.00     0.116 A 
HETATM   14  F   UNL     1       8.208  20.073  52.722  1.00  0.00    -0.206 F 
HETATM   15  C   UNL     1       7.815  21.006  54.851  1.00  0.00     0.043 A 
HETATM   16  C   UNL     1       7.579  22.133  55.640  1.00  0.00     0.018 A 
ENDBRANCH   8  10
ENDBRANCH   7   8
ENDBRANCH   4   7
BRANCH   3  17
HETATM   17  N   UNL     1       5.167  27.879  56.903  1.00  0.00    -0.234 N 
HETATM   18  H   UNL     1       5.198  27.253  57.689  1.00  0.00     0.174 HD
HETATM   19  H   UNL     1       5.278  28.875  57.100  1.00  0.00     0.174 HD
ENDBRANCH   3  17
BRANCH   6  20
HETATM   20  C   UNL     1       5.277  27.871  51.950  1.00  0.00    -0.004 A 
HETATM   21  C   UNL     1       4.994  26.906  50.968  1.00  0.00     0.053 A 
HETATM   22  C   UNL     1       5.003  27.300  49.646  1.00  0.00     0.106 A 
HETATM   23  C   UNL     1       5.283  28.590  49.274  1.00  0.00     0.105 A 
HETATM   24  O   UNL     1       4.743  26.497  48.580  1.00  0.00    -0.323 OA
HETATM   25  O   UNL     1       5.237  28.764  47.929  1.00  0.00    -0.323 OA
HETATM   26  C   UNL     1       5.580  29.558  50.206  1.00  0.00     0.040 A 
HETATM   27  C   UNL     1       4.894  27.433  47.489  1.00  0.00     0.352 A 
HETATM   28  C   UNL     1       5.583  29.190  51.559  1.00  0.00     0.017 A 
ENDBRANCH   6  20
TORSDOF 5
ENDMDL
MODEL 10
REMARK VINA RESULT:      -8.7      4.065      7.512
REMARK  5 active torsions:
REMARK  status: ('A' for Active; 'I' for Inactive)
REMARK    1  A    between atoms: C_3  and  N_4 
REMARK    2  A    between atoms: N_5  and  C_6 
REMARK    3  A    between atoms: C_6  and  C_7 
REMARK    4  A    between atoms: C_7  and  C_8 
REMARK    5  A    between atoms: C_17  and  C_18 
ROOT
HETATM    1  C   UNL     1       7.649  26.355  56.023  1.00  0.00     0.175 C 
HETATM    2  N   UNL     1       6.660  26.257  54.958  1.00  0.00    -0.186 N 
HETATM    3  C   UNL     1       5.876  27.262  54.576  1.00  0.00     0.680 A 
HETATM    4  N   UNL     1       5.249  26.924  53.456  1.00  0.00    -0.184 N 
HETATM    5  C   UNL     1       5.625  25.636  53.120  1.00  0.00     0.140 A 
HETATM    6  C   UNL     1       6.485  25.160  54.089  1.00  0.00     0.077 A 
ENDROOT
BRANCH   4   7
HETATM    7  C   UNL     1       4.240  27.712  52.722  1.00  0.00     0.231 C 
BRANCH   7   8
HETATM    8  C   UNL     1       4.751  28.210  51.376  1.00  0.00     0.178 C 
HETATM    9  O   UNL     1       5.712  28.981  51.303  1.00  0.00    -0.290 OA
BRANCH   8  10
HETATM   10  C   UNL     1       4.093  27.740  50.128  1.00  0.00     0.012 A 
HETATM   11  C   UNL     1       2.997  28.409  49.569  1.00  0.00     0.018 A 
HETATM   12  C   UNL     1       2.409  27.917  48.401  1.00  0.00     0.043 A 
HETATM   13  C   UNL     1       2.919  26.772  47.798  1.00  0.00     0.116 A 
HETATM   14  F   UNL     1       2.347  26.305  46.682  1.00  0.00    -0.206 F 
HETATM   15  C   UNL     1       4.016  26.110  48.335  1.00  0.00     0.043 A 
HETATM   16  C   UNL     1       4.611  26.597  49.501  1.00  0.00     0.018 A 
ENDBRANCH   8  10
ENDBRANCH   7   8
ENDBRANCH   4   7
BRANCH   3  17
HETATM   17  N   UNL     1       5.760  28.423  55.213  1.00  0.00    -0.234 N 
HETATM   18  H   UNL     1       5.064  28.590  55.920  1.00  0.00     0.174 HD
HETATM   19  H   UNL     1       6.511  29.110  55.131  1.00  0.00     0.174 HD
ENDBRANCH   3  17
BRANCH   6  20
HETATM   20  C   UNL     1       7.068  23.771  54.121  1.00  0.00    -0.004 A 
HETATM   21  C   UNL     1       7.229  23.121  55.357  1.00  0.00     0.053 A 
HETATM   22  C   UNL     1       7.767  21.851  55.358  1.00  0.00     0.106 A 
HETATM   23  C   UNL     1       8.149  21.220  54.201  1.00  0.00     0.105 A 
HETATM   24  O   UNL     1       7.980  21.084  56.461  1.00  0.00    -0.323 OA
HETATM   25  O   UNL     1       8.651  19.980  54.427  1.00  0.00    -0.323 OA
HETATM   26  C   UNL     1       8.021  21.832  52.975  1.00  0.00     0.040 A 
HETATM   27  C   UNL     1       8.543  19.895  55.864  1.00  0.00     0.352 A 
HETATM   28  C   UNL     1       7.481  23.125  52.939  1.00  0.00     0.017 A 
ENDBRANCH   6  20
TORSDOF 5
ENDMDL
