MODEL 1
REMARK VINA RESULT:     -10.2      0.000      0.000
REMARK  7 active torsions:
REMARK  status: ('A' for Active; 'I' for Inactive)
REMARK    1  A    between atoms: N_2  and  C_4 
REMARK    2  A    between atoms: N_2  and  C_27 
REMARK    3  A    between atoms: C_4  and  C_5 
REMARK       I    between atoms: C_5  and  N_6 
REMARK    4  A    between atoms: N_6  and  N_7 
REMARK    5  A    between atoms: C_11  and  C_12 
REMARK    6  A    between atoms: C_11  and  C_18 
REMARK    7  A    between atoms: C_27  and  C_28 
ROOT
HETATM    1  N   UNL     1       8.491  28.259  56.528  1.00  0.00    -0.167 N 
HETATM    2  C   UNL     1       8.959  28.895  55.415  1.00  0.00     0.346 C 
HETATM    3  O   UNL     1       9.824  29.753  55.377  1.00  0.00    -0.245 OA
HETATM    4  N   UNL     1       8.246  28.457  54.332  1.00  0.00    -0.315 N 
HETATM    5  C   UNL     1       7.114  27.597  54.670  1.00  0.00     0.173 C 
HETATM    6  C   UNL     1       7.333  27.578  56.232  1.00  0.00     0.285 C 
HETATM    7  O   UNL     1       6.631  27.041  57.086  1.00  0.00    -0.267 OA
HETATM    8  H   UNL     1       8.421  28.853  53.419  1.00  0.00     0.166 HD
ENDROOT
BRANCH   1   9
HETATM    9  N   UNL     1       8.769  28.761  57.797  1.00  0.00    -0.255 N 
HETATM   10  C   UNL     1       8.025  29.709  58.442  1.00  0.00     0.262 C 
HETATM   11  O   UNL     1       8.255  29.952  59.629  1.00  0.00    -0.270 OA
HETATM   12  H   UNL     1       9.418  28.212  58.359  1.00  0.00     0.191 HD
BRANCH  10  13
HETATM   13  C   UNL     1       6.922  30.456  57.683  1.00  0.00     0.338 C 
BRANCH  13  14
HETATM   14  N   UNL     1       5.783  31.000  58.560  1.00  0.00    -0.061 N 
HETATM   15  C   UNL     1       4.424  30.622  58.063  1.00  0.00     0.270 C 
HETATM   16  H   UNL     1       5.924  30.544  59.475  1.00  0.00     0.280 HD
BRANCH  14  17
HETATM   17  C   UNL     1       5.909  32.485  58.880  1.00  0.00     0.301 C 
BRANCH  17  18
HETATM   18  C   UNL     1       5.948  32.711  60.364  1.00  0.00     0.102 A 
HETATM   19  S   UNL     1       4.519  33.014  61.247  1.00  0.00    -0.071 SA
HETATM   20  C   UNL     1       5.446  33.139  62.694  1.00  0.00     0.035 A 
HETATM   21  C   UNL     1       6.795  32.933  62.391  1.00  0.00     0.074 A 
HETATM   22  C   UNL     1       5.011  33.401  64.003  1.00  0.00     0.021 A 
HETATM   23  N   UNL     1       7.072  32.689  61.051  1.00  0.00    -0.243 NA
HETATM   24  C   UNL     1       7.741  32.990  63.433  1.00  0.00     0.033 A 
HETATM   25  C   UNL     1       7.318  33.251  64.741  1.00  0.00     0.002 A 
HETATM   26  C   UNL     1       5.969  33.453  65.019  1.00  0.00     0.002 A 
ENDBRANCH  17  18
ENDBRANCH  14  17
ENDBRANCH  13  14
ENDBRANCH  10  13
ENDBRANCH   1   9
BRANCH   5  27
HETATM   27  C   UNL     1       7.290  26.213  54.030  1.00  0.00    -0.016 A 
HETATM   28  C   UNL     1       7.756  26.061  52.711  1.00  0.00     0.010 A 
HETATM   29  C   UNL     1       7.937  24.793  52.149  1.00  0.00     0.001 A 
HETATM   30  C   UNL     1       7.671  23.651  52.896  1.00  0.00     0.000 A 
HETATM   31  C   UNL     1       7.233  23.773  54.210  1.00  0.00     0.001 A 
HETATM   32  C   UNL     1       7.052  25.038  54.774  1.00  0.00     0.010 A 
ENDBRANCH   5  27
BRANCH   5  33
HETATM   33  C   UNL     1       5.769  28.241  54.304  1.00  0.00    -0.016 A 
HETATM   34  C   UNL     1       5.419  29.538  54.729  1.00  0.00     0.010 A 
HETATM   35  C   UNL     1       4.192  30.109  54.376  1.00  0.00     0.001 A 
HETATM   36  C   UNL     1       3.292  29.406  53.584  1.00  0.00     0.000 A 
HETATM   37  C   UNL     1       3.622  28.134  53.131  1.00  0.00     0.001 A 
HETATM   38  C   UNL     1       4.848  27.563  53.480  1.00  0.00     0.010 A 
ENDBRANCH   5  33
TORSDOF 7
ENDMDL
MODEL 2
REMARK VINA RESULT:     -10.1      1.833      3.893
REMARK  7 active torsions:
REMARK  status: ('A' for Active; 'I' for Inactive)
REMARK    1  A    between atoms: N_2  and  C_4 
REMARK    2  A    between atoms: N_2  and  C_27 
REMARK    3  A    between atoms: C_4  and  C_5 
REMARK       I    between atoms: C_5  and  N_6 
REMARK    4  A    between atoms: N_6  and  N_7 
REMARK    5  A    between atoms: C_11  and  C_12 
REMARK    6  A    between atoms: C_11  and  C_18 
REMARK    7  A    between atoms: C_27  and  C_28 
ROOT
HETATM    1  N   UNL     1       6.725  26.766  56.204  1.00  0.00    -0.167 N 
HETATM    2  C   UNL     1       5.588  26.053  56.449  1.00  0.00     0.346 C 
HETATM    3  O   UNL     1       4.947  26.038  57.486  1.00  0.00    -0.245 OA
HETATM    4  N   UNL     1       5.306  25.293  55.347  1.00  0.00    -0.315 N 
HETATM    5  C   UNL     1       6.348  25.317  54.321  1.00  0.00     0.173 C 
HETATM    6  C   UNL     1       7.324  26.320  55.049  1.00  0.00     0.285 C 
HETATM    7  O   UNL     1       8.435  26.694  54.679  1.00  0.00    -0.267 OA
HETATM    8  H   UNL     1       4.519  24.658  55.359  1.00  0.00     0.166 HD
ENDROOT
BRANCH   1   9
HETATM    9  N   UNL     1       7.440  27.335  57.255  1.00  0.00    -0.255 N 
HETATM   10  C   UNL     1       7.233  28.592  57.750  1.00  0.00     0.262 C 
HETATM   11  O   UNL     1       7.797  28.931  58.793  1.00  0.00    -0.270 OA
HETATM   12  H   UNL     1       7.974  26.686  57.832  1.00  0.00     0.191 HD
BRANCH  10  13
HETATM   13  C   UNL     1       6.307  29.560  57.004  1.00  0.00     0.338 C 
BRANCH  13  14
HETATM   14  N   UNL     1       5.437  30.451  57.904  1.00  0.00    -0.061 N 
HETATM   15  C   UNL     1       3.988  30.427  57.534  1.00  0.00     0.270 C 
HETATM   16  H   UNL     1       5.531  30.037  58.844  1.00  0.00     0.280 HD
BRANCH  14  17
HETATM   17  C   UNL     1       5.983  31.864  58.082  1.00  0.00     0.301 C 
BRANCH  17  18
HETATM   18  C   UNL     1       6.183  32.179  59.536  1.00  0.00     0.102 A 
HETATM   19  S   UNL     1       4.915  32.822  60.482  1.00  0.00    -0.071 SA
HETATM   20  C   UNL     1       5.961  32.860  61.851  1.00  0.00     0.035 A 
HETATM   21  C   UNL     1       7.216  32.368  61.479  1.00  0.00     0.074 A 
HETATM   22  C   UNL     1       5.692  33.293  63.158  1.00  0.00     0.021 A 
HETATM   23  N   UNL     1       7.333  31.981  60.149  1.00  0.00    -0.243 NA
HETATM   24  C   UNL     1       8.236  32.307  62.449  1.00  0.00     0.033 A 
HETATM   25  C   UNL     1       7.977  32.737  63.755  1.00  0.00     0.002 A 
HETATM   26  C   UNL     1       6.720  33.223  64.102  1.00  0.00     0.002 A 
ENDBRANCH  17  18
ENDBRANCH  14  17
ENDBRANCH  13  14
ENDBRANCH  10  13
ENDBRANCH   1   9
BRANCH   5  27
HETATM   27  C   UNL     1       5.787  25.883  53.009  1.00  0.00    -0.016 A 
HETATM   28  C   UNL     1       5.999  27.221  52.629  1.00  0.00     0.010 A 
HETATM   29  C   UNL     1       5.505  27.716  51.418  1.00  0.00     0.001 A 
HETATM   30  C   UNL     1       4.800  26.884  50.556  1.00  0.00     0.000 A 
HETATM   31  C   UNL     1       4.598  25.551  50.896  1.00  0.00     0.001 A 
HETATM   32  C   UNL     1       5.092  25.053  52.105  1.00  0.00     0.010 A 
ENDBRANCH   5  27
BRANCH   5  33
HETATM   33  C   UNL     1       7.004  23.942  54.130  1.00  0.00    -0.016 A 
HETATM   34  C   UNL     1       7.489  23.510  52.881  1.00  0.00     0.010 A 
HETATM   35  C   UNL     1       8.091  22.256  52.732  1.00  0.00     0.001 A 
HETATM   36  C   UNL     1       8.234  21.412  53.827  1.00  0.00     0.000 A 
HETATM   37  C   UNL     1       7.787  21.823  55.076  1.00  0.00     0.001 A 
HETATM   38  C   UNL     1       7.187  23.076  55.227  1.00  0.00     0.010 A 
ENDBRANCH   5  33
TORSDOF 7
ENDMDL
MODEL 3
REMARK VINA RESULT:      -9.9      4.643      9.889
REMARK  7 active torsions:
REMARK  status: ('A' for Active; 'I' for Inactive)
REMARK    1  A    between atoms: N_2  and  C_4 
REMARK    2  A    between atoms: N_2  and  C_27 
REMARK    3  A    between atoms: C_4  and  C_5 
REMARK       I    between atoms: C_5  and  N_6 
REMARK    4  A    between atoms: N_6  and  N_7 
REMARK    5  A    between atoms: C_11  and  C_12 
REMARK    6  A    between atoms: C_11  and  C_18 
REMARK    7  A    between atoms: C_27  and  C_28 
ROOT
HETATM    1  N   UNL     1       5.880  28.392  54.301  1.00  0.00    -0.167 N 
HETATM    2  C   UNL     1       5.083  28.254  55.401  1.00  0.00     0.346 C 
HETATM    3  O   UNL     1       3.910  28.572  55.493  1.00  0.00    -0.245 OA
HETATM    4  N   UNL     1       5.838  27.752  56.424  1.00  0.00    -0.315 N 
HETATM    5  C   UNL     1       7.267  27.667  56.128  1.00  0.00     0.173 C 
HETATM    6  C   UNL     1       7.198  28.202  54.646  1.00  0.00     0.285 C 
HETATM    7  O   UNL     1       8.132  28.412  53.875  1.00  0.00    -0.267 OA
HETATM    8  H   UNL     1       5.428  27.624  57.339  1.00  0.00     0.166 HD
ENDROOT
BRANCH   1   9
HETATM    9  N   UNL     1       5.485  29.205  53.241  1.00  0.00    -0.255 N 
HETATM   10  C   UNL     1       5.347  28.788  51.948  1.00  0.00     0.262 C 
HETATM   11  O   UNL     1       4.822  29.540  51.123  1.00  0.00    -0.270 OA
HETATM   12  H   UNL     1       5.047  30.089  53.499  1.00  0.00     0.191 HD
BRANCH  10  13
HETATM   13  C   UNL     1       5.846  27.396  51.540  1.00  0.00     0.338 C 
BRANCH  13  14
HETATM   14  N   UNL     1       4.750  26.420  51.084  1.00  0.00    -0.061 N 
HETATM   15  C   UNL     1       4.623  25.222  51.969  1.00  0.00     0.270 C 
HETATM   16  H   UNL     1       3.876  26.963  51.157  1.00  0.00     0.280 HD
BRANCH  14  17
HETATM   17  C   UNL     1       4.822  26.062  49.603  1.00  0.00     0.301 C 
BRANCH  17  18
HETATM   18  C   UNL     1       3.666  26.658  48.853  1.00  0.00     0.102 A 
HETATM   19  S   UNL     1       2.788  25.740  47.713  1.00  0.00    -0.071 SA
HETATM   20  C   UNL     1       1.781  27.102  47.398  1.00  0.00     0.035 A 
HETATM   21  C   UNL     1       2.194  28.169  48.202  1.00  0.00     0.074 A 
HETATM   22  C   UNL     1       0.704  27.218  46.505  1.00  0.00     0.021 A 
HETATM   23  N   UNL     1       3.277  27.904  49.032  1.00  0.00    -0.243 NA
HETATM   24  C   UNL     1       1.505  29.394  48.109  1.00  0.00     0.033 A 
HETATM   25  C   UNL     1       0.431  29.520  47.222  1.00  0.00     0.002 A 
HETATM   26  C   UNL     1       0.038  28.444  46.431  1.00  0.00     0.002 A 
ENDBRANCH  17  18
ENDBRANCH  14  17
ENDBRANCH  13  14
ENDBRANCH  10  13
ENDBRANCH   1   9
BRANCH   5  27
HETATM   27  C   UNL     1       7.740  26.209  56.209  1.00  0.00    -0.016 A 
HETATM   28  C   UNL     1       7.593  25.321  55.128  1.00  0.00     0.010 A 
HETATM   29  C   UNL     1       8.052  24.002  55.206  1.00  0.00     0.001 A 
HETATM   30  C   UNL     1       8.679  23.546  56.360  1.00  0.00     0.000 A 
HETATM   31  C   UNL     1       8.860  24.410  57.434  1.00  0.00     0.001 A 
HETATM   32  C   UNL     1       8.404  25.729  57.358  1.00  0.00     0.010 A 
ENDBRANCH   5  27
BRANCH   5  33
HETATM   33  C   UNL     1       8.099  28.601  57.019  1.00  0.00    -0.016 A 
HETATM   34  C   UNL     1       9.418  28.970  56.691  1.00  0.00     0.010 A 
HETATM   35  C   UNL     1      10.155  29.829  57.513  1.00  0.00     0.001 A 
HETATM   36  C   UNL     1       9.589  30.348  58.672  1.00  0.00     0.000 A 
HETATM   37  C   UNL     1       8.281  30.020  59.006  1.00  0.00     0.001 A 
HETATM   38  C   UNL     1       7.543  29.163  58.185  1.00  0.00     0.010 A 
ENDBRANCH   5  33
TORSDOF 7
ENDMDL
MODEL 4
REMARK VINA RESULT:      -9.8      2.040      2.772
REMARK  7 active torsions:
REMARK  status: ('A' for Active; 'I' for Inactive)
REMARK    1  A    between atoms: N_2  and  C_4 
REMARK    2  A    between atoms: N_2  and  C_27 
REMARK    3  A    between atoms: C_4  and  C_5 
REMARK       I    between atoms: C_5  and  N_6 
REMARK    4  A    between atoms: N_6  and  N_7 
REMARK    5  A    between atoms: C_11  and  C_12 
REMARK    6  A    between atoms: C_11  and  C_18 
REMARK    7  A    between atoms: C_27  and  C_28 
ROOT
HETATM    1  N   UNL     1       6.713  28.111  56.140  1.00  0.00    -0.167 N 
HETATM    2  C   UNL     1       7.783  28.347  55.326  1.00  0.00     0.346 C 
HETATM    3  O   UNL     1       8.415  29.385  55.239  1.00  0.00    -0.245 OA
HETATM    4  N   UNL     1       8.001  27.233  54.562  1.00  0.00    -0.315 N 
HETATM    5  C   UNL     1       6.970  26.206  54.694  1.00  0.00     0.173 C 
HETATM    6  C   UNL     1       6.082  26.947  55.766  1.00  0.00     0.285 C 
HETATM    7  O   UNL     1       5.010  26.581  56.241  1.00  0.00    -0.267 OA
HETATM    8  H   UNL     1       8.729  27.237  53.861  1.00  0.00     0.166 HD
ENDROOT
BRANCH   1   9
HETATM    9  N   UNL     1       6.046  29.169  56.752  1.00  0.00    -0.255 N 
HETATM   10  C   UNL     1       6.552  29.926  57.771  1.00  0.00     0.262 C 
HETATM   11  O   UNL     1       5.954  30.947  58.120  1.00  0.00    -0.270 OA
HETATM   12  H   UNL     1       5.244  29.542  56.245  1.00  0.00     0.191 HD
BRANCH  10  13
HETATM   13  C   UNL     1       7.849  29.495  58.466  1.00  0.00     0.338 C 
BRANCH  13  14
HETATM   14  N   UNL     1       8.646  30.635  59.121  1.00  0.00    -0.061 N 
HETATM   15  C   UNL     1       9.876  31.008  58.358  1.00  0.00     0.270 C 
HETATM   16  H   UNL     1       8.003  31.442  59.100  1.00  0.00     0.280 HD
BRANCH  14  17
HETATM   17  C   UNL     1       8.906  30.427  60.609  1.00  0.00     0.301 C 
BRANCH  17  18
HETATM   18  C   UNL     1       8.225  31.488  61.424  1.00  0.00     0.102 A 
HETATM   19  S   UNL     1       7.169  32.615  60.698  1.00  0.00    -0.071 SA
HETATM   20  C   UNL     1       6.908  33.353  62.233  1.00  0.00     0.035 A 
HETATM   21  C   UNL     1       7.654  32.671  63.199  1.00  0.00     0.074 A 
HETATM   22  C   UNL     1       6.103  34.455  62.559  1.00  0.00     0.021 A 
HETATM   23  N   UNL     1       8.407  31.603  62.724  1.00  0.00    -0.243 NA
HETATM   24  C   UNL     1       7.591  33.107  64.537  1.00  0.00     0.033 A 
HETATM   25  C   UNL     1       6.792  34.204  64.872  1.00  0.00     0.002 A 
HETATM   26  C   UNL     1       6.058  34.868  63.893  1.00  0.00     0.002 A 
ENDBRANCH  17  18
ENDBRANCH  14  17
ENDBRANCH  13  14
ENDBRANCH  10  13
ENDBRANCH   1   9
BRANCH   5  27
HETATM   27  C   UNL     1       7.583  24.905  55.229  1.00  0.00    -0.016 A 
HETATM   28  C   UNL     1       8.155  23.948  54.370  1.00  0.00     0.010 A 
HETATM   29  C   UNL     1       8.735  22.778  54.873  1.00  0.00     0.001 A 
HETATM   30  C   UNL     1       8.767  22.546  56.244  1.00  0.00     0.000 A 
HETATM   31  C   UNL     1       8.231  23.487  57.116  1.00  0.00     0.001 A 
HETATM   32  C   UNL     1       7.653  24.657  56.616  1.00  0.00     0.010 A 
ENDBRANCH   5  27
BRANCH   5  33
HETATM   33  C   UNL     1       6.197  25.991  53.384  1.00  0.00    -0.016 A 
HETATM   34  C   UNL     1       6.318  26.869  52.290  1.00  0.00     0.010 A 
HETATM   35  C   UNL     1       5.611  26.649  51.103  1.00  0.00     0.001 A 
HETATM   36  C   UNL     1       4.778  25.543  50.977  1.00  0.00     0.000 A 
HETATM   37  C   UNL     1       4.659  24.648  52.033  1.00  0.00     0.001 A 
HETATM   38  C   UNL     1       5.366  24.865  53.218  1.00  0.00     0.010 A 
ENDBRANCH   5  33
TORSDOF 7
ENDMDL
MODEL 5
REMARK VINA RESULT:      -9.5      2.204      4.495
REMARK  7 active torsions:
REMARK  status: ('A' for Active; 'I' for Inactive)
REMARK    1  A    between atoms: N_2  and  C_4 
REMARK    2  A    between atoms: N_2  and  C_27 
REMARK    3  A    between atoms: C_4  and  C_5 
REMARK       I    between atoms: C_5  and  N_6 
REMARK    4  A    between atoms: N_6  and  N_7 
REMARK    5  A    between atoms: C_11  and  C_12 
REMARK    6  A    between atoms: C_11  and  C_18 
REMARK    7  A    between atoms: C_27  and  C_28 
ROOT
HETATM    1  N   UNL     1       4.973  29.634  55.707  1.00  0.00    -0.167 N 
HETATM    2  C   UNL     1       5.545  29.412  54.488  1.00  0.00     0.346 C 
HETATM    3  O   UNL     1       5.041  29.626  53.398  1.00  0.00    -0.245 OA
HETATM    4  N   UNL     1       6.773  28.842  54.682  1.00  0.00    -0.315 N 
HETATM    5  C   UNL     1       7.053  28.482  56.071  1.00  0.00     0.173 C 
HETATM    6  C   UNL     1       5.704  29.015  56.693  1.00  0.00     0.285 C 
HETATM    7  O   UNL     1       5.330  28.936  57.861  1.00  0.00    -0.267 OA
HETATM    8  H   UNL     1       7.330  28.562  53.887  1.00  0.00     0.166 HD
ENDROOT
BRANCH   1   9
HETATM    9  N   UNL     1       3.603  29.862  55.813  1.00  0.00    -0.255 N 
HETATM   10  C   UNL     1       3.032  31.068  56.108  1.00  0.00     0.262 C 
HETATM   11  O   UNL     1       1.810  31.200  56.002  1.00  0.00    -0.270 OA
HETATM   12  H   UNL     1       3.001  29.145  55.409  1.00  0.00     0.191 HD
BRANCH  10  13
HETATM   13  C   UNL     1       3.915  32.234  56.568  1.00  0.00     0.338 C 
BRANCH  13  14
HETATM   14  N   UNL     1       4.331  32.191  58.047  1.00  0.00    -0.061 N 
HETATM   15  C   UNL     1       3.392  31.401  58.901  1.00  0.00     0.270 C 
HETATM   16  H   UNL     1       5.241  31.705  58.044  1.00  0.00     0.280 HD
BRANCH  14  17
HETATM   17  C   UNL     1       4.661  33.560  58.633  1.00  0.00     0.301 C 
BRANCH  17  18
HETATM   18  C   UNL     1       5.367  33.420  59.950  1.00  0.00     0.102 A 
HETATM   19  S   UNL     1       4.829  34.264  61.333  1.00  0.00    -0.071 SA
HETATM   20  C   UNL     1       6.110  33.568  62.251  1.00  0.00     0.035 A 
HETATM   21  C   UNL     1       6.861  32.728  61.422  1.00  0.00     0.074 A 
HETATM   22  C   UNL     1       6.429  33.751  63.606  1.00  0.00     0.021 A 
HETATM   23  N   UNL     1       6.427  32.652  60.104  1.00  0.00    -0.243 NA
HETATM   24  C   UNL     1       7.968  32.050  61.968  1.00  0.00     0.033 A 
HETATM   25  C   UNL     1       8.294  32.226  63.317  1.00  0.00     0.002 A 
HETATM   26  C   UNL     1       7.532  33.067  64.123  1.00  0.00     0.002 A 
ENDBRANCH  17  18
ENDBRANCH  14  17
ENDBRANCH  13  14
ENDBRANCH  10  13
ENDBRANCH   1   9
BRANCH   5  27
HETATM   27  C   UNL     1       8.283  29.246  56.579  1.00  0.00    -0.016 A 
HETATM   28  C   UNL     1       8.279  29.915  57.817  1.00  0.00     0.010 A 
HETATM   29  C   UNL     1       9.416  30.586  58.281  1.00  0.00     0.001 A 
HETATM   30  C   UNL     1      10.584  30.590  57.525  1.00  0.00     0.000 A 
HETATM   31  C   UNL     1      10.621  29.915  56.310  1.00  0.00     0.001 A 
HETATM   32  C   UNL     1       9.487  29.243  55.846  1.00  0.00     0.010 A 
ENDBRANCH   5  27
BRANCH   5  33
HETATM   33  C   UNL     1       7.190  26.964  56.258  1.00  0.00    -0.016 A 
HETATM   34  C   UNL     1       6.758  26.046  55.281  1.00  0.00     0.010 A 
HETATM   35  C   UNL     1       6.901  24.667  55.468  1.00  0.00     0.001 A 
HETATM   36  C   UNL     1       7.490  24.174  56.627  1.00  0.00     0.000 A 
HETATM   37  C   UNL     1       7.947  25.058  57.597  1.00  0.00     0.001 A 
HETATM   38  C   UNL     1       7.807  26.436  57.410  1.00  0.00     0.010 A 
ENDBRANCH   5  33
TORSDOF 7
ENDMDL
MODEL 6
REMARK VINA RESULT:      -9.5      3.071      9.609
REMARK  7 active torsions:
REMARK  status: ('A' for Active; 'I' for Inactive)
REMARK    1  A    between atoms: N_2  and  C_4 
REMARK    2  A    between atoms: N_2  and  C_27 
REMARK    3  A    between atoms: C_4  and  C_5 
REMARK       I    between atoms: C_5  and  N_6 
REMARK    4  A    between atoms: N_6  and  N_7 
REMARK    5  A    between atoms: C_11  and  C_12 
REMARK    6  A    between atoms: C_11  and  C_18 
REMARK    7  A    between atoms: C_27  and  C_28 
ROOT
HETATM    1  N   UNL     1       4.081  32.032  58.611  1.00  0.00    -0.167 N 
HETATM    2  C   UNL     1       3.510  31.336  59.635  1.00  0.00     0.346 C 
HETATM    3  O   UNL     1       2.614  30.513  59.546  1.00  0.00    -0.245 OA
HETATM    4  N   UNL     1       4.066  31.758  60.812  1.00  0.00    -0.315 N 
HETATM    5  C   UNL     1       4.955  32.911  60.673  1.00  0.00     0.173 C 
HETATM    6  C   UNL     1       4.842  33.065  59.107  1.00  0.00     0.285 C 
HETATM    7  O   UNL     1       5.347  33.931  58.396  1.00  0.00    -0.267 OA
HETATM    8  H   UNL     1       3.733  31.386  61.690  1.00  0.00     0.166 HD
ENDROOT
BRANCH   1   9
HETATM    9  N   UNL     1       3.470  32.077  57.361  1.00  0.00    -0.255 N 
HETATM   10  C   UNL     1       3.961  31.489  56.229  1.00  0.00     0.262 C 
HETATM   11  O   UNL     1       3.255  31.439  55.219  1.00  0.00    -0.270 OA
HETATM   12  H   UNL     1       2.489  32.357  57.356  1.00  0.00     0.191 HD
BRANCH  10  13
HETATM   13  C   UNL     1       5.379  30.906  56.230  1.00  0.00     0.338 C 
BRANCH  13  14
HETATM   14  N   UNL     1       5.471  29.420  55.851  1.00  0.00    -0.061 N 
HETATM   15  C   UNL     1       4.285  28.624  56.293  1.00  0.00     0.270 C 
HETATM   16  H   UNL     1       5.487  29.418  54.819  1.00  0.00     0.280 HD
BRANCH  14  17
HETATM   17  C   UNL     1       6.799  28.770  56.228  1.00  0.00     0.301 C 
BRANCH  17  18
HETATM   18  C   UNL     1       7.070  27.571  55.367  1.00  0.00     0.102 A 
HETATM   19  S   UNL     1       7.318  27.729  53.686  1.00  0.00    -0.071 SA
HETATM   20  C   UNL     1       7.521  26.023  53.559  1.00  0.00     0.035 A 
HETATM   21  C   UNL     1       7.387  25.452  54.828  1.00  0.00     0.074 A 
HETATM   22  C   UNL     1       7.780  25.245  52.419  1.00  0.00     0.021 A 
HETATM   23  N   UNL     1       7.127  26.349  55.858  1.00  0.00    -0.243 NA
HETATM   24  C   UNL     1       7.517  24.056  54.961  1.00  0.00     0.033 A 
HETATM   25  C   UNL     1       7.775  23.273  53.832  1.00  0.00     0.002 A 
HETATM   26  C   UNL     1       7.904  23.863  52.578  1.00  0.00     0.002 A 
ENDBRANCH  17  18
ENDBRANCH  14  17
ENDBRANCH  13  14
ENDBRANCH  10  13
ENDBRANCH   1   9
BRANCH   5  27
HETATM   27  C   UNL     1       6.373  32.545  61.131  1.00  0.00    -0.016 A 
HETATM   28  C   UNL     1       7.438  32.421  60.219  1.00  0.00     0.010 A 
HETATM   29  C   UNL     1       8.731  32.113  60.654  1.00  0.00     0.001 A 
HETATM   30  C   UNL     1       8.992  31.935  62.008  1.00  0.00     0.000 A 
HETATM   31  C   UNL     1       7.963  32.076  62.932  1.00  0.00     0.001 A 
HETATM   32  C   UNL     1       6.670  32.386  62.501  1.00  0.00     0.010 A 
ENDBRANCH   5  27
BRANCH   5  33
HETATM   33  C   UNL     1       4.411  34.151  61.395  1.00  0.00    -0.016 A 
HETATM   34  C   UNL     1       5.176  35.323  61.554  1.00  0.00     0.010 A 
HETATM   35  C   UNL     1       4.656  36.445  62.208  1.00  0.00     0.001 A 
HETATM   36  C   UNL     1       3.359  36.428  62.707  1.00  0.00     0.000 A 
HETATM   37  C   UNL     1       2.573  35.294  62.543  1.00  0.00     0.001 A 
HETATM   38  C   UNL     1       3.090  34.173  61.888  1.00  0.00     0.010 A 
ENDBRANCH   5  33
TORSDOF 7
ENDMDL
MODEL 7
REMARK VINA RESULT:      -9.1      5.402     10.425
REMARK  7 active torsions:
REMARK  status: ('A' for Active; 'I' for Inactive)
REMARK    1  A    between atoms: N_2  and  C_4 
REMARK    2  A    between atoms: N_2  and  C_27 
REMARK    3  A    between atoms: C_4  and  C_5 
REMARK       I    between atoms: C_5  and  N_6 
REMARK    4  A    between atoms: N_6  and  N_7 
REMARK    5  A    between atoms: C_11  and  C_12 
REMARK    6  A    between atoms: C_11  and  C_18 
REMARK    7  A    between atoms: C_27  and  C_28 
ROOT
HETATM    1  N   UNL     1       5.206  28.440  52.532  1.00  0.00    -0.167 N 
HETATM    2  C   UNL     1       4.165  27.908  53.235  1.00  0.00     0.346 C 
HETATM    3  O   UNL     1       2.987  28.197  53.122  1.00  0.00    -0.245 OA
HETATM    4  N   UNL     1       4.667  27.024  54.152  1.00  0.00    -0.315 N 
HETATM    5  C   UNL     1       6.126  27.021  54.243  1.00  0.00     0.173 C 
HETATM    6  C   UNL     1       6.401  28.094  53.120  1.00  0.00     0.285 C 
HETATM    7  O   UNL     1       7.483  28.560  52.771  1.00  0.00    -0.267 OA
HETATM    8  H   UNL     1       4.044  26.562  54.800  1.00  0.00     0.166 HD
ENDROOT
BRANCH   1   9
HETATM    9  N   UNL     1       5.037  29.612  51.800  1.00  0.00    -0.255 N 
HETATM   10  C   UNL     1       5.131  29.704  50.440  1.00  0.00     0.262 C 
HETATM   11  O   UNL     1       4.789  30.748  49.879  1.00  0.00    -0.270 OA
HETATM   12  H   UNL     1       4.581  30.381  52.291  1.00  0.00     0.191 HD
BRANCH  10  13
HETATM   13  C   UNL     1       5.661  28.513  49.633  1.00  0.00     0.338 C 
BRANCH  13  14
HETATM   14  N   UNL     1       4.598  27.484  49.216  1.00  0.00    -0.061 N 
HETATM   15  C   UNL     1       4.746  26.169  49.912  1.00  0.00     0.270 C 
HETATM   16  H   UNL     1       3.704  27.902  49.517  1.00  0.00     0.280 HD
BRANCH  14  17
HETATM   17  C   UNL     1       4.435  27.345  47.707  1.00  0.00     0.301 C 
BRANCH  17  18
HETATM   18  C   UNL     1       3.055  27.751  47.279  1.00  0.00     0.102 A 
HETATM   19  S   UNL     1       1.826  26.589  47.047  1.00  0.00    -0.071 SA
HETATM   20  C   UNL     1       0.729  27.843  46.607  1.00  0.00     0.035 A 
HETATM   21  C   UNL     1       1.391  29.073  46.676  1.00  0.00     0.074 A 
HETATM   22  C   UNL     1      -0.619  27.746  46.229  1.00  0.00     0.021 A 
HETATM   23  N   UNL     1       2.725  29.008  47.061  1.00  0.00    -0.243 NA
HETATM   24  C   UNL     1       0.679  30.245  46.355  1.00  0.00     0.033 A 
HETATM   25  C   UNL     1      -0.664  30.159  45.977  1.00  0.00     0.002 A 
HETATM   26  C   UNL     1      -1.303  28.924  45.915  1.00  0.00     0.002 A 
ENDBRANCH  17  18
ENDBRANCH  14  17
ENDBRANCH  13  14
ENDBRANCH  10  13
ENDBRANCH   1   9
BRANCH   5  27
HETATM   27  C   UNL     1       6.676  25.633  53.885  1.00  0.00    -0.016 A 
HETATM   28  C   UNL     1       7.370  25.399  52.684  1.00  0.00     0.010 A 
HETATM   29  C   UNL     1       7.889  24.136  52.382  1.00  0.00     0.001 A 
HETATM   30  C   UNL     1       7.739  23.084  53.279  1.00  0.00     0.000 A 
HETATM   31  C   UNL     1       7.080  23.295  54.484  1.00  0.00     0.001 A 
HETATM   32  C   UNL     1       6.561  24.557  54.789  1.00  0.00     0.010 A 
ENDBRANCH   5  27
BRANCH   5  33
HETATM   33  C   UNL     1       6.620  27.509  55.612  1.00  0.00    -0.016 A 
HETATM   34  C   UNL     1       7.922  27.240  56.079  1.00  0.00     0.010 A 
HETATM   35  C   UNL     1       8.354  27.703  57.326  1.00  0.00     0.001 A 
HETATM   36  C   UNL     1       7.504  28.453  58.129  1.00  0.00     0.000 A 
HETATM   37  C   UNL     1       6.223  28.754  57.683  1.00  0.00     0.001 A 
HETATM   38  C   UNL     1       5.790  28.295  56.436  1.00  0.00     0.010 A 
ENDBRANCH   5  33
TORSDOF 7
ENDMDL
MODEL 8
REMARK VINA RESULT:      -8.8      6.348      9.534
REMARK  7 active torsions:
REMARK  status: ('A' for Active; 'I' for Inactive)
REMARK    1  A    between atoms: N_2  and  C_4 
REMARK    2  A    between atoms: N_2  and  C_27 
REMARK    3  A    between atoms: C_4  and  C_5 
REMARK       I    between atoms: C_5  and  N_6 
REMARK    4  A    between atoms: N_6  and  N_7 
REMARK    5  A    between atoms: C_11  and  C_12 
REMARK    6  A    between atoms: C_11  and  C_18 
REMARK    7  A    between atoms: C_27  and  C_28 
ROOT
HETATM    1  N   UNL     1       4.310  30.844  51.229  1.00  0.00    -0.167 N 
HETATM    2  C   UNL     1       3.010  30.989  50.841  1.00  0.00     0.346 C 
HETATM    3  O   UNL     1       2.066  31.287  51.553  1.00  0.00    -0.245 OA
HETATM    4  N   UNL     1       2.916  30.680  49.511  1.00  0.00    -0.315 N 
HETATM    5  C   UNL     1       4.145  30.135  48.936  1.00  0.00     0.173 C 
HETATM    6  C   UNL     1       5.034  30.228  50.236  1.00  0.00     0.285 C 
HETATM    7  O   UNL     1       6.194  29.849  50.385  1.00  0.00    -0.267 OA
HETATM    8  H   UNL     1       2.015  30.685  49.054  1.00  0.00     0.166 HD
ENDROOT
BRANCH   1   9
HETATM    9  N   UNL     1       4.635  30.737  52.579  1.00  0.00    -0.255 N 
HETATM   10  C   UNL     1       4.634  29.572  53.292  1.00  0.00     0.262 C 
HETATM   11  O   UNL     1       5.108  29.560  54.431  1.00  0.00    -0.270 OA
HETATM   12  H   UNL     1       5.130  31.533  52.981  1.00  0.00     0.191 HD
BRANCH  10  13
HETATM   13  C   UNL     1       4.044  28.300  52.671  1.00  0.00     0.338 C 
BRANCH  13  14
HETATM   14  N   UNL     1       4.992  27.091  52.641  1.00  0.00    -0.061 N 
HETATM   15  C   UNL     1       5.310  26.626  51.256  1.00  0.00     0.270 C 
HETATM   16  H   UNL     1       5.865  27.438  53.067  1.00  0.00     0.280 HD
BRANCH  14  17
HETATM   17  C   UNL     1       4.570  25.956  53.568  1.00  0.00     0.301 C 
BRANCH  17  18
HETATM   18  C   UNL     1       5.732  25.055  53.871  1.00  0.00     0.102 A 
HETATM   19  S   UNL     1       6.677  25.276  55.275  1.00  0.00    -0.071 SA
HETATM   20  C   UNL     1       7.661  23.938  54.819  1.00  0.00     0.035 A 
HETATM   21  C   UNL     1       7.185  23.412  53.614  1.00  0.00     0.074 A 
HETATM   22  C   UNL     1       8.774  23.392  55.478  1.00  0.00     0.021 A 
HETATM   23  N   UNL     1       6.079  24.061  53.078  1.00  0.00    -0.243 NA
HETATM   24  C   UNL     1       7.845  22.303  53.050  1.00  0.00     0.033 A 
HETATM   25  C   UNL     1       8.955  21.752  53.699  1.00  0.00     0.002 A 
HETATM   26  C   UNL     1       9.411  22.293  54.898  1.00  0.00     0.002 A 
ENDBRANCH  17  18
ENDBRANCH  14  17
ENDBRANCH  13  14
ENDBRANCH  10  13
ENDBRANCH   1   9
BRANCH   5  27
HETATM   27  C   UNL     1       4.650  31.044  47.807  1.00  0.00    -0.016 A 
HETATM   28  C   UNL     1       4.335  30.793  46.458  1.00  0.00     0.010 A 
HETATM   29  C   UNL     1       4.779  31.644  45.441  1.00  0.00     0.001 A 
HETATM   30  C   UNL     1       5.535  32.770  45.750  1.00  0.00     0.000 A 
HETATM   31  C   UNL     1       5.839  33.054  47.076  1.00  0.00     0.001 A 
HETATM   32  C   UNL     1       5.395  32.206  48.094  1.00  0.00     0.010 A 
ENDBRANCH   5  27
BRANCH   5  33
HETATM   33  C   UNL     1       3.975  28.679  48.481  1.00  0.00    -0.016 A 
HETATM   34  C   UNL     1       2.733  28.016  48.539  1.00  0.00     0.010 A 
HETATM   35  C   UNL     1       2.599  26.691  48.110  1.00  0.00     0.001 A 
HETATM   36  C   UNL     1       3.695  26.003  47.604  1.00  0.00     0.000 A 
HETATM   37  C   UNL     1       4.926  26.640  47.514  1.00  0.00     0.001 A 
HETATM   38  C   UNL     1       5.062  27.964  47.939  1.00  0.00     0.010 A 
ENDBRANCH   5  33
TORSDOF 7
ENDMDL
MODEL 9
REMARK VINA RESULT:      -8.8      3.739      6.062
REMARK  7 active torsions:
REMARK  status: ('A' for Active; 'I' for Inactive)
REMARK    1  A    between atoms: N_2  and  C_4 
REMARK    2  A    between atoms: N_2  and  C_27 
REMARK    3  A    between atoms: C_4  and  C_5 
REMARK       I    between atoms: C_5  and  N_6 
REMARK    4  A    between atoms: N_6  and  N_7 
REMARK    5  A    between atoms: C_11  and  C_12 
REMARK    6  A    between atoms: C_11  and  C_18 
REMARK    7  A    between atoms: C_27  and  C_28 
ROOT
HETATM    1  N   UNL     1       6.206  24.946  51.982  1.00  0.00    -0.167 N 
HETATM    2  C   UNL     1       5.081  24.465  52.586  1.00  0.00     0.346 C 
HETATM    3  O   UNL     1       3.931  24.631  52.219  1.00  0.00    -0.245 OA
HETATM    4  N   UNL     1       5.449  23.806  53.727  1.00  0.00    -0.315 N 
HETATM    5  C   UNL     1       6.865  23.940  54.066  1.00  0.00     0.173 C 
HETATM    6  C   UNL     1       7.288  24.811  52.821  1.00  0.00     0.285 C 
HETATM    7  O   UNL     1       8.392  25.294  52.579  1.00  0.00    -0.267 OA
HETATM    8  H   UNL     1       4.741  23.418  54.336  1.00  0.00     0.166 HD
ENDROOT
BRANCH   1   9
HETATM    9  N   UNL     1       6.117  25.949  51.020  1.00  0.00    -0.255 N 
HETATM   10  C   UNL     1       5.520  27.163  51.211  1.00  0.00     0.262 C 
HETATM   11  O   UNL     1       5.652  28.042  50.356  1.00  0.00    -0.270 OA
HETATM   12  H   UNL     1       6.742  25.854  50.220  1.00  0.00     0.191 HD
BRANCH  10  13
HETATM   13  C   UNL     1       4.696  27.414  52.479  1.00  0.00     0.338 C 
BRANCH  13  14
HETATM   14  N   UNL     1       5.301  28.434  53.457  1.00  0.00    -0.061 N 
HETATM   15  C   UNL     1       4.988  29.852  53.099  1.00  0.00     0.270 C 
HETATM   16  H   UNL     1       4.844  28.227  54.359  1.00  0.00     0.280 HD
BRANCH  14  17
HETATM   17  C   UNL     1       6.780  28.205  53.747  1.00  0.00     0.301 C 
BRANCH  17  18
HETATM   18  C   UNL     1       7.164  28.802  55.070  1.00  0.00     0.102 A 
HETATM   19  S   UNL     1       5.978  29.376  56.156  1.00  0.00    -0.071 SA
HETATM   20  C   UNL     1       7.218  29.833  57.261  1.00  0.00     0.035 A 
HETATM   21  C   UNL     1       8.462  29.504  56.713  1.00  0.00     0.074 A 
HETATM   22  C   UNL     1       7.100  30.439  58.522  1.00  0.00     0.021 A 
HETATM   23  N   UNL     1       8.419  28.915  55.455  1.00  0.00    -0.243 NA
HETATM   24  C   UNL     1       9.626  29.792  57.452  1.00  0.00     0.033 A 
HETATM   25  C   UNL     1       9.519  30.395  58.709  1.00  0.00     0.002 A 
HETATM   26  C   UNL     1       8.270  30.713  59.235  1.00  0.00     0.002 A 
ENDBRANCH  17  18
ENDBRANCH  14  17
ENDBRANCH  13  14
ENDBRANCH  10  13
ENDBRANCH   1   9
BRANCH   5  27
HETATM   27  C   UNL     1       7.538  22.561  54.081  1.00  0.00    -0.016 A 
HETATM   28  C   UNL     1       7.987  21.943  52.899  1.00  0.00     0.010 A 
HETATM   29  C   UNL     1       8.623  20.697  52.929  1.00  0.00     0.001 A 
HETATM   30  C   UNL     1       8.837  20.050  54.141  1.00  0.00     0.000 A 
HETATM   31  C   UNL     1       8.426  20.650  55.326  1.00  0.00     0.001 A 
HETATM   32  C   UNL     1       7.792  21.895  55.298  1.00  0.00     0.010 A 
ENDBRANCH   5  27
BRANCH   5  33
HETATM   33  C   UNL     1       7.075  24.706  55.379  1.00  0.00    -0.016 A 
HETATM   34  C   UNL     1       8.359  24.973  55.894  1.00  0.00     0.010 A 
HETATM   35  C   UNL     1       8.528  25.681  57.088  1.00  0.00     0.001 A 
HETATM   36  C   UNL     1       7.422  26.149  57.788  1.00  0.00     0.000 A 
HETATM   37  C   UNL     1       6.145  25.921  57.291  1.00  0.00     0.001 A 
HETATM   38  C   UNL     1       5.975  25.216  56.097  1.00  0.00     0.010 A 
ENDBRANCH   5  33
TORSDOF 7
ENDMDL
MODEL 10
REMARK VINA RESULT:      -8.7      2.647      5.321
REMARK  7 active torsions:
REMARK  status: ('A' for Active; 'I' for Inactive)
REMARK    1  A    between atoms: N_2  and  C_4 
REMARK    2  A    between atoms: N_2  and  C_27 
REMARK    3  A    between atoms: C_4  and  C_5 
REMARK       I    between atoms: C_5  and  N_6 
REMARK    4  A    between atoms: N_6  and  N_7 
REMARK    5  A    between atoms: C_11  and  C_12 
REMARK    6  A    between atoms: C_11  and  C_18 
REMARK    7  A    between atoms: C_27  and  C_28 
ROOT
HETATM    1  N   UNL     1       5.614  28.333  54.327  1.00  0.00    -0.167 N 
HETATM    2  C   UNL     1       6.717  28.174  53.540  1.00  0.00     0.346 C 
HETATM    3  O   UNL     1       6.766  28.277  52.326  1.00  0.00    -0.245 OA
HETATM    4  N   UNL     1       7.770  27.810  54.335  1.00  0.00    -0.315 N 
HETATM    5  C   UNL     1       7.403  27.534  55.723  1.00  0.00     0.173 C 
HETATM    6  C   UNL     1       5.866  27.862  55.595  1.00  0.00     0.285 C 
HETATM    7  O   UNL     1       4.997  27.755  56.458  1.00  0.00    -0.267 OA
HETATM    8  H   UNL     1       8.667  27.602  53.919  1.00  0.00     0.166 HD
ENDROOT
BRANCH   1   9
HETATM    9  N   UNL     1       4.341  28.343  53.764  1.00  0.00    -0.255 N 
HETATM   10  C   UNL     1       3.702  29.458  53.299  1.00  0.00     0.262 C 
HETATM   11  O   UNL     1       2.654  29.332  52.660  1.00  0.00    -0.270 OA
HETATM   12  H   UNL     1       3.979  27.438  53.467  1.00  0.00     0.191 HD
BRANCH  10  13
HETATM   13  C   UNL     1       4.291  30.845  53.581  1.00  0.00     0.338 C 
BRANCH  13  14
HETATM   14  N   UNL     1       3.426  31.751  54.472  1.00  0.00    -0.061 N 
HETATM   15  C   UNL     1       4.043  33.088  54.731  1.00  0.00     0.270 C 
HETATM   16  H   UNL     1       2.563  31.901  53.925  1.00  0.00     0.280 HD
BRANCH  14  17
HETATM   17  C   UNL     1       2.927  31.069  55.742  1.00  0.00     0.301 C 
BRANCH  17  18
HETATM   18  C   UNL     1       3.644  31.598  56.949  1.00  0.00     0.102 A 
HETATM   19  S   UNL     1       5.287  31.231  57.231  1.00  0.00    -0.071 SA
HETATM   20  C   UNL     1       5.242  32.158  58.682  1.00  0.00     0.035 A 
HETATM   21  C   UNL     1       3.958  32.690  58.844  1.00  0.00     0.074 A 
HETATM   22  C   UNL     1       6.266  32.397  59.612  1.00  0.00     0.021 A 
HETATM   23  N   UNL     1       3.049  32.361  57.845  1.00  0.00    -0.243 NA
HETATM   24  C   UNL     1       3.692  33.488  59.973  1.00  0.00     0.033 A 
HETATM   25  C   UNL     1       4.706  33.733  60.905  1.00  0.00     0.002 A 
HETATM   26  C   UNL     1       5.976  33.192  60.723  1.00  0.00     0.002 A 
ENDBRANCH  17  18
ENDBRANCH  14  17
ENDBRANCH  13  14
ENDBRANCH  10  13
ENDBRANCH   1   9
BRANCH   5  27
HETATM   27  C   UNL     1       8.138  28.496  56.666  1.00  0.00    -0.016 A 
HETATM   28  C   UNL     1       9.269  29.222  56.250  1.00  0.00     0.010 A 
HETATM   29  C   UNL     1       9.914  30.115  57.112  1.00  0.00     0.001 A 
HETATM   30  C   UNL     1       9.435  30.312  58.402  1.00  0.00     0.000 A 
HETATM   31  C   UNL     1       8.304  29.626  58.830  1.00  0.00     0.001 A 
HETATM   32  C   UNL     1       7.657  28.735  57.971  1.00  0.00     0.010 A 
ENDBRANCH   5  27
BRANCH   5  33
HETATM   33  C   UNL     1       7.629  26.062  56.098  1.00  0.00    -0.016 A 
HETATM   34  C   UNL     1       7.009  25.007  55.401  1.00  0.00     0.010 A 
HETATM   35  C   UNL     1       7.236  23.673  55.754  1.00  0.00     0.001 A 
HETATM   36  C   UNL     1       8.095  23.361  56.802  1.00  0.00     0.000 A 
HETATM   37  C   UNL     1       8.738  24.382  57.492  1.00  0.00     0.001 A 
HETATM   38  C   UNL     1       8.514  25.715  57.139  1.00  0.00     0.010 A 
ENDBRANCH   5  33
TORSDOF 7
ENDMDL
