MODEL 1
REMARK VINA RESULT:      -9.5      0.000      0.000
REMARK  5 active torsions:
REMARK  status: ('A' for Active; 'I' for Inactive)
REMARK    1  A    between atoms: C_2  and  N_3 
REMARK    2  A    between atoms: C_14  and  C_17 
REMARK       I    between atoms: C_17  and  N_19 
REMARK    3  A    between atoms: N_19  and  C_20 
REMARK    4  A    between atoms: C_20  and  C_22 
REMARK    5  A    between atoms: C_26  and  O_27 
ROOT
HETATM    1  N   UNL     1       7.016  23.441  55.807  1.00  0.00    -0.008 N 
HETATM    2  H   UNL     1       6.058  23.247  56.069  1.00  0.00     0.293 HD
HETATM    3  C   UNL     1       7.656  22.233  55.496  1.00  0.00     0.169 A 
HETATM    4  C   UNL     1       7.917  21.090  56.293  1.00  0.00     0.154 A 
HETATM    5  N   UNL     1       8.561  19.987  55.827  1.00  0.00    -0.271 NA
HETATM    6  C   UNL     1       8.963  19.963  54.542  1.00  0.00     0.117 A 
HETATM    7  C   UNL     1       8.757  20.999  53.664  1.00  0.00     0.034 A 
HETATM    8  C   UNL     1       8.095  22.144  54.138  1.00  0.00     0.014 A 
HETATM    9  C   UNL     1       7.690  23.401  53.537  1.00  0.00     0.012 A 
HETATM   10  C   UNL     1       7.808  23.953  52.247  1.00  0.00     0.016 A 
HETATM   11  C   UNL     1       7.288  25.213  51.988  1.00  0.00     0.018 A 
HETATM   12  C   UNL     1       6.637  25.920  53.005  1.00  0.00     0.034 A 
HETATM   13  C   UNL     1       6.483  25.370  54.283  1.00  0.00     0.055 A 
HETATM   14  C   UNL     1       7.040  24.113  54.591  1.00  0.00     0.152 A 
ENDROOT
BRANCH  12  15
HETATM   15  C   UNL     1       6.101  27.273  52.667  1.00  0.00     0.252 C 
HETATM   16  O   UNL     1       6.616  28.276  53.151  1.00  0.00    -0.268 OA
HETATM   17  N   UNL     1       5.009  27.324  51.828  1.00  0.00    -0.349 N 
HETATM   18  H   UNL     1       4.527  26.477  51.571  1.00  0.00     0.163 HD
BRANCH  17  19
HETATM   19  C   UNL     1       4.367  28.580  51.474  1.00  0.00     0.114 C 
HETATM   20  C   UNL     1       3.199  28.882  52.416  1.00  0.00     0.037 C 
BRANCH  19  21
HETATM   21  C   UNL     1       3.942  28.537  50.016  1.00  0.00    -0.033 A 
HETATM   22  C   UNL     1       3.461  29.705  49.404  1.00  0.00     0.009 A 
HETATM   23  C   UNL     1       3.090  29.700  48.061  1.00  0.00     0.003 A 
HETATM   24  C   UNL     1       3.206  28.530  47.312  1.00  0.00     0.037 A 
HETATM   25  C   UNL     1       3.693  27.359  47.894  1.00  0.00     0.068 A 
HETATM   26  C   UNL     1       4.053  27.363  49.244  1.00  0.00     0.046 A 
BRANCH  25  27
HETATM   27  O   UNL     1       3.770  26.290  47.044  1.00  0.00    -0.356 OA
HETATM   28  C   UNL     1       2.973  25.155  47.357  1.00  0.00     0.210 C 
ENDBRANCH  25  27
ENDBRANCH  19  21
ENDBRANCH  17  19
ENDBRANCH  12  15
BRANCH   1  29
HETATM   29  C   UNL     1       7.611  24.170  56.955  1.00  0.00     0.244 C 
HETATM   30  C   UNL     1       9.105  24.460  56.831  1.00  0.00     0.035 C 
ENDBRANCH   1  29
TORSDOF 5
ENDMDL
MODEL 2
REMARK VINA RESULT:      -9.4      9.163     11.972
REMARK  5 active torsions:
REMARK  status: ('A' for Active; 'I' for Inactive)
REMARK    1  A    between atoms: C_2  and  N_3 
REMARK    2  A    between atoms: C_14  and  C_17 
REMARK       I    between atoms: C_17  and  N_19 
REMARK    3  A    between atoms: N_19  and  C_20 
REMARK    4  A    between atoms: C_20  and  C_22 
REMARK    5  A    between atoms: C_26  and  O_27 
ROOT
HETATM    1  N   UNL     1       4.662  33.124  62.948  1.00  0.00    -0.008 N 
HETATM    2  H   UNL     1       4.036  32.331  63.015  1.00  0.00     0.293 HD
HETATM    3  C   UNL     1       5.078  33.485  64.237  1.00  0.00     0.169 A 
HETATM    4  C   UNL     1       4.335  33.937  65.358  1.00  0.00     0.154 A 
HETATM    5  N   UNL     1       4.905  34.250  66.553  1.00  0.00    -0.271 NA
HETATM    6  C   UNL     1       6.237  34.115  66.693  1.00  0.00     0.117 A 
HETATM    7  C   UNL     1       7.065  33.672  65.689  1.00  0.00     0.034 A 
HETATM    8  C   UNL     1       6.485  33.350  64.451  1.00  0.00     0.014 A 
HETATM    9  C   UNL     1       7.002  32.852  63.190  1.00  0.00     0.012 A 
HETATM   10  C   UNL     1       8.285  32.504  62.726  1.00  0.00     0.016 A 
HETATM   11  C   UNL     1       8.445  32.035  61.431  1.00  0.00     0.018 A 
HETATM   12  C   UNL     1       7.329  31.897  60.598  1.00  0.00     0.034 A 
HETATM   13  C   UNL     1       6.042  32.206  61.056  1.00  0.00     0.055 A 
HETATM   14  C   UNL     1       5.852  32.729  62.351  1.00  0.00     0.152 A 
ENDROOT
BRANCH  12  15
HETATM   15  C   UNL     1       7.564  31.390  59.212  1.00  0.00     0.252 C 
HETATM   16  O   UNL     1       8.593  31.689  58.616  1.00  0.00    -0.268 OA
HETATM   17  N   UNL     1       6.571  30.616  58.651  1.00  0.00    -0.349 N 
HETATM   18  H   UNL     1       5.682  30.516  59.115  1.00  0.00     0.163 HD
BRANCH  17  19
HETATM   19  C   UNL     1       6.664  30.113  57.289  1.00  0.00     0.114 C 
HETATM   20  C   UNL     1       5.624  30.783  56.387  1.00  0.00     0.037 C 
BRANCH  19  21
HETATM   21  C   UNL     1       6.536  28.600  57.299  1.00  0.00    -0.033 A 
HETATM   22  C   UNL     1       5.343  28.006  56.857  1.00  0.00     0.009 A 
HETATM   23  C   UNL     1       5.209  26.619  56.830  1.00  0.00     0.003 A 
HETATM   24  C   UNL     1       6.270  25.811  57.234  1.00  0.00     0.037 A 
HETATM   25  C   UNL     1       7.471  26.376  57.665  1.00  0.00     0.068 A 
HETATM   26  C   UNL     1       7.598  27.767  57.703  1.00  0.00     0.046 A 
BRANCH  25  27
HETATM   27  O   UNL     1       8.433  25.469  58.017  1.00  0.00    -0.356 OA
HETATM   28  C   UNL     1       8.576  24.323  57.190  1.00  0.00     0.210 C 
ENDBRANCH  25  27
ENDBRANCH  19  21
ENDBRANCH  17  19
ENDBRANCH  12  15
BRANCH   1  29
HETATM   29  C   UNL     1       3.904  34.180  62.232  1.00  0.00     0.244 C 
HETATM   30  C   UNL     1       4.677  35.473  61.983  1.00  0.00     0.035 C 
ENDBRANCH   1  29
TORSDOF 5
ENDMDL
MODEL 3
REMARK VINA RESULT:      -9.4      5.465      8.800
REMARK  5 active torsions:
REMARK  status: ('A' for Active; 'I' for Inactive)
REMARK    1  A    between atoms: C_2  and  N_3 
REMARK    2  A    between atoms: C_14  and  C_17 
REMARK       I    between atoms: C_17  and  N_19 
REMARK    3  A    between atoms: N_19  and  C_20 
REMARK    4  A    between atoms: C_20  and  C_22 
REMARK    5  A    between atoms: C_26  and  O_27 
ROOT
HETATM    1  N   UNL     1       7.557  25.227  53.739  1.00  0.00    -0.008 N 
HETATM    2  H   UNL     1       8.351  25.488  53.167  1.00  0.00     0.293 HD
HETATM    3  C   UNL     1       7.643  23.861  54.039  1.00  0.00     0.169 A 
HETATM    4  C   UNL     1       7.635  22.723  53.192  1.00  0.00     0.154 A 
HETATM    5  N   UNL     1       7.726  21.448  53.655  1.00  0.00    -0.271 NA
HETATM    6  C   UNL     1       7.844  21.245  54.981  1.00  0.00     0.117 A 
HETATM    7  C   UNL     1       7.879  22.262  55.904  1.00  0.00     0.034 A 
HETATM    8  C   UNL     1       7.782  23.582  55.434  1.00  0.00     0.014 A 
HETATM    9  C   UNL     1       7.795  24.886  56.070  1.00  0.00     0.012 A 
HETATM   10  C   UNL     1       7.907  25.325  57.404  1.00  0.00     0.016 A 
HETATM   11  C   UNL     1       7.895  26.683  57.684  1.00  0.00     0.018 A 
HETATM   12  C   UNL     1       7.788  27.609  56.640  1.00  0.00     0.034 A 
HETATM   13  C   UNL     1       7.710  27.189  55.307  1.00  0.00     0.055 A 
HETATM   14  C   UNL     1       7.671  25.816  54.992  1.00  0.00     0.152 A 
ENDROOT
BRANCH  12  15
HETATM   15  C   UNL     1       7.778  29.058  57.004  1.00  0.00     0.252 C 
HETATM   16  O   UNL     1       7.006  29.827  56.441  1.00  0.00    -0.268 OA
HETATM   17  N   UNL     1       8.681  29.471  57.959  1.00  0.00    -0.349 N 
HETATM   18  H   UNL     1       9.395  28.841  58.289  1.00  0.00     0.163 HD
BRANCH  17  19
HETATM   19  C   UNL     1       8.801  30.866  58.354  1.00  0.00     0.114 C 
HETATM   20  C   UNL     1      10.218  31.387  58.096  1.00  0.00     0.037 C 
BRANCH  19  21
HETATM   21  C   UNL     1       8.381  31.019  59.805  1.00  0.00    -0.033 A 
HETATM   22  C   UNL     1       9.218  30.529  60.820  1.00  0.00     0.009 A 
HETATM   23  C   UNL     1       8.870  30.680  62.161  1.00  0.00     0.003 A 
HETATM   24  C   UNL     1       7.687  31.333  62.502  1.00  0.00     0.037 A 
HETATM   25  C   UNL     1       6.844  31.840  61.513  1.00  0.00     0.068 A 
HETATM   26  C   UNL     1       7.189  31.676  60.168  1.00  0.00     0.046 A 
BRANCH  25  27
HETATM   27  O   UNL     1       5.725  32.470  61.985  1.00  0.00    -0.356 OA
HETATM   28  C   UNL     1       5.468  32.374  63.379  1.00  0.00     0.210 C 
ENDBRANCH  25  27
ENDBRANCH  19  21
ENDBRANCH  17  19
ENDBRANCH  12  15
BRANCH   1  29
HETATM   29  C   UNL     1       6.353  25.608  52.959  1.00  0.00     0.244 C 
HETATM   30  C   UNL     1       5.022  25.194  53.583  1.00  0.00     0.035 C 
ENDBRANCH   1  29
TORSDOF 5
ENDMDL
MODEL 4
REMARK VINA RESULT:      -9.3      5.489      8.838
REMARK  5 active torsions:
REMARK  status: ('A' for Active; 'I' for Inactive)
REMARK    1  A    between atoms: C_2  and  N_3 
REMARK    2  A    between atoms: C_14  and  C_17 
REMARK       I    between atoms: C_17  and  N_19 
REMARK    3  A    between atoms: N_19  and  C_20 
REMARK    4  A    between atoms: C_20  and  C_22 
REMARK    5  A    between atoms: C_26  and  O_27 
ROOT
HETATM    1  N   UNL     1       6.200  30.952  58.597  1.00  0.00    -0.008 N 
HETATM    2  H   UNL     1       5.532  30.317  59.017  1.00  0.00     0.293 HD
HETATM    3  C   UNL     1       7.016  31.486  59.604  1.00  0.00     0.169 A 
HETATM    4  C   UNL     1       6.695  32.284  60.732  1.00  0.00     0.154 A 
HETATM    5  N   UNL     1       7.623  32.724  61.623  1.00  0.00    -0.271 NA
HETATM    6  C   UNL     1       8.912  32.379  61.441  1.00  0.00     0.117 A 
HETATM    7  C   UNL     1       9.350  31.599  60.399  1.00  0.00     0.034 A 
HETATM    8  C   UNL     1       8.398  31.143  59.472  1.00  0.00     0.014 A 
HETATM    9  C   UNL     1       8.458  30.313  58.284  1.00  0.00     0.012 A 
HETATM   10  C   UNL     1       9.498  29.650  57.603  1.00  0.00     0.016 A 
HETATM   11  C   UNL     1       9.213  28.907  56.468  1.00  0.00     0.018 A 
HETATM   12  C   UNL     1       7.894  28.808  56.013  1.00  0.00     0.034 A 
HETATM   13  C   UNL     1       6.844  29.433  56.698  1.00  0.00     0.055 A 
HETATM   14  C   UNL     1       7.107  30.234  57.828  1.00  0.00     0.152 A 
ENDROOT
BRANCH  12  15
HETATM   15  C   UNL     1       7.649  27.996  54.783  1.00  0.00     0.252 C 
HETATM   16  O   UNL     1       8.050  28.395  53.695  1.00  0.00    -0.268 OA
HETATM   17  N   UNL     1       6.941  26.823  54.936  1.00  0.00    -0.349 N 
HETATM   18  H   UNL     1       6.504  26.606  55.818  1.00  0.00     0.163 HD
BRANCH  17  19
HETATM   19  C   UNL     1       6.595  25.979  53.804  1.00  0.00     0.114 C 
HETATM   20  C   UNL     1       5.080  25.954  53.583  1.00  0.00     0.037 C 
BRANCH  19  21
HETATM   21  C   UNL     1       7.175  24.591  54.011  1.00  0.00    -0.033 A 
HETATM   22  C   UNL     1       7.422  23.774  52.897  1.00  0.00     0.009 A 
HETATM   23  C   UNL     1       7.979  22.507  53.056  1.00  0.00     0.003 A 
HETATM   24  C   UNL     1       8.305  22.047  54.332  1.00  0.00     0.037 A 
HETATM   25  C   UNL     1       8.081  22.845  55.454  1.00  0.00     0.068 A 
HETATM   26  C   UNL     1       7.511  24.111  55.292  1.00  0.00     0.046 A 
BRANCH  25  27
HETATM   27  O   UNL     1       8.461  22.279  56.640  1.00  0.00    -0.356 OA
HETATM   28  C   UNL     1       8.421  20.861  56.723  1.00  0.00     0.210 C 
ENDBRANCH  25  27
ENDBRANCH  19  21
ENDBRANCH  17  19
ENDBRANCH  12  15
BRANCH   1  29
HETATM   29  C   UNL     1       5.394  31.960  57.864  1.00  0.00     0.244 C 
HETATM   30  C   UNL     1       3.900  31.655  57.781  1.00  0.00     0.035 C 
ENDBRANCH   1  29
TORSDOF 5
ENDMDL
MODEL 5
REMARK VINA RESULT:      -9.0      5.189      8.530
REMARK  5 active torsions:
REMARK  status: ('A' for Active; 'I' for Inactive)
REMARK    1  A    between atoms: C_2  and  N_3 
REMARK    2  A    between atoms: C_14  and  C_17 
REMARK       I    between atoms: C_17  and  N_19 
REMARK    3  A    between atoms: N_19  and  C_20 
REMARK    4  A    between atoms: C_20  and  C_22 
REMARK    5  A    between atoms: C_26  and  O_27 
ROOT
HETATM    1  N   UNL     1       8.996  30.509  57.613  1.00  0.00    -0.008 N 
HETATM    2  H   UNL     1       9.399  31.168  56.959  1.00  0.00     0.293 HD
HETATM    3  C   UNL     1       8.444  31.217  58.690  1.00  0.00     0.169 A 
HETATM    4  C   UNL     1       9.050  32.072  59.646  1.00  0.00     0.154 A 
HETATM    5  N   UNL     1       8.358  32.687  60.641  1.00  0.00    -0.271 NA
HETATM    6  C   UNL     1       7.028  32.493  60.723  1.00  0.00     0.117 A 
HETATM    7  C   UNL     1       6.321  31.702  59.850  1.00  0.00     0.034 A 
HETATM    8  C   UNL     1       7.029  31.060  58.821  1.00  0.00     0.014 A 
HETATM    9  C   UNL     1       6.654  30.184  57.728  1.00  0.00     0.012 A 
HETATM   10  C   UNL     1       5.433  29.640  57.283  1.00  0.00     0.016 A 
HETATM   11  C   UNL     1       5.412  28.822  56.163  1.00  0.00     0.018 A 
HETATM   12  C   UNL     1       6.600  28.554  55.474  1.00  0.00     0.034 A 
HETATM   13  C   UNL     1       7.816  29.114  55.884  1.00  0.00     0.055 A 
HETATM   14  C   UNL     1       7.879  29.911  57.045  1.00  0.00     0.152 A 
ENDROOT
BRANCH  12  15
HETATM   15  C   UNL     1       6.515  27.663  54.277  1.00  0.00     0.252 C 
HETATM   16  O   UNL     1       6.606  28.140  53.151  1.00  0.00    -0.268 OA
HETATM   17  N   UNL     1       6.305  26.321  54.508  1.00  0.00    -0.349 N 
HETATM   18  H   UNL     1       6.089  25.994  55.436  1.00  0.00     0.163 HD
BRANCH  17  19
HETATM   19  C   UNL     1       6.150  25.368  53.421  1.00  0.00     0.114 C 
HETATM   20  C   UNL     1       4.670  25.122  53.115  1.00  0.00     0.037 C 
BRANCH  19  21
HETATM   21  C   UNL     1       6.893  24.088  53.761  1.00  0.00    -0.033 A 
HETATM   22  C   UNL     1       7.380  23.277  52.723  1.00  0.00     0.009 A 
HETATM   23  C   UNL     1       8.089  22.112  53.006  1.00  0.00     0.003 A 
HETATM   24  C   UNL     1       8.328  21.749  54.331  1.00  0.00     0.037 A 
HETATM   25  C   UNL     1       7.865  22.544  55.381  1.00  0.00     0.068 A 
HETATM   26  C   UNL     1       7.144  23.706  55.093  1.00  0.00     0.046 A 
BRANCH  25  27
HETATM   27  O   UNL     1       8.182  22.081  56.628  1.00  0.00    -0.356 OA
HETATM   28  C   UNL     1       8.755  20.783  56.711  1.00  0.00     0.210 C 
ENDBRANCH  25  27
ENDBRANCH  19  21
ENDBRANCH  17  19
ENDBRANCH  12  15
BRANCH   1  29
HETATM   29  C   UNL     1      10.097  29.586  57.988  1.00  0.00     0.244 C 
HETATM   30  C   UNL     1      11.333  29.660  57.095  1.00  0.00     0.035 C 
ENDBRANCH   1  29
TORSDOF 5
ENDMDL
MODEL 6
REMARK VINA RESULT:      -8.9      3.951      6.532
REMARK  5 active torsions:
REMARK  status: ('A' for Active; 'I' for Inactive)
REMARK    1  A    between atoms: C_2  and  N_3 
REMARK    2  A    between atoms: C_14  and  C_17 
REMARK       I    between atoms: C_17  and  N_19 
REMARK    3  A    between atoms: N_19  and  C_20 
REMARK    4  A    between atoms: C_20  and  C_22 
REMARK    5  A    between atoms: C_26  and  O_27 
ROOT
HETATM    1  N   UNL     1       7.351  22.861  56.206  1.00  0.00    -0.008 N 
HETATM    2  H   UNL     1       6.584  22.445  56.719  1.00  0.00     0.293 HD
HETATM    3  C   UNL     1       7.769  21.966  55.210  1.00  0.00     0.169 A 
HETATM    4  C   UNL     1       8.304  20.656  55.306  1.00  0.00     0.154 A 
HETATM    5  N   UNL     1       8.664  19.917  54.223  1.00  0.00    -0.271 NA
HETATM    6  C   UNL     1       8.494  20.440  52.994  1.00  0.00     0.117 A 
HETATM    7  C   UNL     1       7.971  21.690  52.766  1.00  0.00     0.034 A 
HETATM    8  C   UNL     1       7.601  22.462  53.880  1.00  0.00     0.014 A 
HETATM    9  C   UNL     1       7.018  23.780  54.050  1.00  0.00     0.012 A 
HETATM   10  C   UNL     1       6.605  24.790  53.160  1.00  0.00     0.016 A 
HETATM   11  C   UNL     1       6.061  25.965  53.657  1.00  0.00     0.018 A 
HETATM   12  C   UNL     1       5.913  26.134  55.039  1.00  0.00     0.034 A 
HETATM   13  C   UNL     1       6.289  25.124  55.934  1.00  0.00     0.055 A 
HETATM   14  C   UNL     1       6.887  23.939  55.463  1.00  0.00     0.152 A 
ENDROOT
BRANCH  12  15
HETATM   15  C   UNL     1       5.325  27.421  55.516  1.00  0.00     0.252 C 
HETATM   16  O   UNL     1       4.183  27.731  55.191  1.00  0.00    -0.268 OA
HETATM   17  N   UNL     1       6.127  28.228  56.292  1.00  0.00    -0.349 N 
HETATM   18  H   UNL     1       7.103  28.008  56.413  1.00  0.00     0.163 HD
BRANCH  17  19
HETATM   19  C   UNL     1       5.682  29.529  56.767  1.00  0.00     0.114 C 
HETATM   20  C   UNL     1       5.187  30.395  55.606  1.00  0.00     0.037 C 
BRANCH  19  21
HETATM   21  C   UNL     1       6.802  30.191  57.550  1.00  0.00    -0.033 A 
HETATM   22  C   UNL     1       6.490  31.180  58.498  1.00  0.00     0.009 A 
HETATM   23  C   UNL     1       7.495  31.785  59.249  1.00  0.00     0.003 A 
HETATM   24  C   UNL     1       8.823  31.400  59.070  1.00  0.00     0.037 A 
HETATM   25  C   UNL     1       9.159  30.412  58.144  1.00  0.00     0.068 A 
HETATM   26  C   UNL     1       8.149  29.815  57.383  1.00  0.00     0.046 A 
BRANCH  25  27
HETATM   27  O   UNL     1      10.494  30.120  58.080  1.00  0.00    -0.356 OA
HETATM   28  C   UNL     1      10.988  29.617  56.846  1.00  0.00     0.210 C 
ENDBRANCH  25  27
ENDBRANCH  19  21
ENDBRANCH  17  19
ENDBRANCH  12  15
BRANCH   1  29
HETATM   29  C   UNL     1       8.390  23.178  57.217  1.00  0.00     0.244 C 
HETATM   30  C   UNL     1       9.267  24.384  56.884  1.00  0.00     0.035 C 
ENDBRANCH   1  29
TORSDOF 5
ENDMDL
MODEL 7
REMARK VINA RESULT:      -8.6      6.551      9.843
REMARK  5 active torsions:
REMARK  status: ('A' for Active; 'I' for Inactive)
REMARK    1  A    between atoms: C_2  and  N_3 
REMARK    2  A    between atoms: C_14  and  C_17 
REMARK       I    between atoms: C_17  and  N_19 
REMARK    3  A    between atoms: N_19  and  C_20 
REMARK    4  A    between atoms: C_20  and  C_22 
REMARK    5  A    between atoms: C_26  and  O_27 
ROOT
HETATM    1  N   UNL     1       6.460  28.510  53.987  1.00  0.00    -0.008 N 
HETATM    2  H   UNL     1       7.080  28.996  53.350  1.00  0.00     0.293 HD
HETATM    3  C   UNL     1       6.325  27.181  53.564  1.00  0.00     0.169 A 
HETATM    4  C   UNL     1       5.808  26.638  52.360  1.00  0.00     0.154 A 
HETATM    5  N   UNL     1       5.748  25.303  52.108  1.00  0.00    -0.271 NA
HETATM    6  C   UNL     1       6.215  24.446  53.036  1.00  0.00     0.117 A 
HETATM    7  C   UNL     1       6.754  24.845  54.235  1.00  0.00     0.034 A 
HETATM    8  C   UNL     1       6.816  26.222  54.504  1.00  0.00     0.014 A 
HETATM    9  C   UNL     1       7.311  27.015  55.613  1.00  0.00     0.012 A 
HETATM   10  C   UNL     1       7.918  26.705  56.846  1.00  0.00     0.016 A 
HETATM   11  C   UNL     1       8.295  27.728  57.703  1.00  0.00     0.018 A 
HETATM   12  C   UNL     1       8.085  29.061  57.333  1.00  0.00     0.034 A 
HETATM   13  C   UNL     1       7.514  29.386  56.096  1.00  0.00     0.055 A 
HETATM   14  C   UNL     1       7.077  28.370  55.223  1.00  0.00     0.152 A 
ENDROOT
BRANCH  12  15
HETATM   15  C   UNL     1       8.510  30.119  58.299  1.00  0.00     0.252 C 
HETATM   16  O   UNL     1       9.395  30.910  57.991  1.00  0.00    -0.268 OA
HETATM   17  N   UNL     1       7.887  30.132  59.528  1.00  0.00    -0.349 N 
HETATM   18  H   UNL     1       7.274  29.378  59.794  1.00  0.00     0.163 HD
BRANCH  17  19
HETATM   19  C   UNL     1       8.256  31.079  60.568  1.00  0.00     0.114 C 
HETATM   20  C   UNL     1       9.060  30.391  61.674  1.00  0.00     0.037 C 
BRANCH  19  21
HETATM   21  C   UNL     1       7.006  31.761  61.097  1.00  0.00    -0.033 A 
HETATM   22  C   UNL     1       6.151  32.423  60.202  1.00  0.00     0.009 A 
HETATM   23  C   UNL     1       4.984  33.034  60.656  1.00  0.00     0.003 A 
HETATM   24  C   UNL     1       4.654  32.980  62.010  1.00  0.00     0.037 A 
HETATM   25  C   UNL     1       5.480  32.318  62.918  1.00  0.00     0.068 A 
HETATM   26  C   UNL     1       6.657  31.716  62.461  1.00  0.00     0.046 A 
BRANCH  25  27
HETATM   27  O   UNL     1       5.031  32.328  64.210  1.00  0.00    -0.356 OA
HETATM   28  C   UNL     1       5.133  33.554  64.921  1.00  0.00     0.210 C 
ENDBRANCH  25  27
ENDBRANCH  19  21
ENDBRANCH  17  19
ENDBRANCH  12  15
BRANCH   1  29
HETATM   29  C   UNL     1       5.193  29.283  53.986  1.00  0.00     0.244 C 
HETATM   30  C   UNL     1       4.037  28.628  54.741  1.00  0.00     0.035 C 
ENDBRANCH   1  29
TORSDOF 5
ENDMDL
MODEL 8
REMARK VINA RESULT:      -8.5      4.348      6.745
REMARK  5 active torsions:
REMARK  status: ('A' for Active; 'I' for Inactive)
REMARK    1  A    between atoms: C_2  and  N_3 
REMARK    2  A    between atoms: C_14  and  C_17 
REMARK       I    between atoms: C_17  and  N_19 
REMARK    3  A    between atoms: N_19  and  C_20 
REMARK    4  A    between atoms: C_20  and  C_22 
REMARK    5  A    between atoms: C_26  and  O_27 
ROOT
HETATM    1  N   UNL     1       7.630  24.557  53.544  1.00  0.00    -0.008 N 
HETATM    2  H   UNL     1       8.449  24.756  52.983  1.00  0.00     0.293 HD
HETATM    3  C   UNL     1       7.656  23.207  53.922  1.00  0.00     0.169 A 
HETATM    4  C   UNL     1       7.631  22.024  53.140  1.00  0.00     0.154 A 
HETATM    5  N   UNL     1       7.662  20.775  53.677  1.00  0.00    -0.271 NA
HETATM    6  C   UNL     1       7.733  20.644  55.015  1.00  0.00     0.117 A 
HETATM    7  C   UNL     1       7.779  21.710  55.880  1.00  0.00     0.034 A 
HETATM    8  C   UNL     1       7.745  23.004  55.335  1.00  0.00     0.014 A 
HETATM    9  C   UNL     1       7.787  24.341  55.896  1.00  0.00     0.012 A 
HETATM   10  C   UNL     1       7.876  24.851  57.206  1.00  0.00     0.016 A 
HETATM   11  C   UNL     1       7.907  26.223  57.409  1.00  0.00     0.018 A 
HETATM   12  C   UNL     1       7.864  27.091  56.313  1.00  0.00     0.034 A 
HETATM   13  C   UNL     1       7.809  26.598  55.003  1.00  0.00     0.055 A 
HETATM   14  C   UNL     1       7.729  25.211  54.765  1.00  0.00     0.152 A 
ENDROOT
BRANCH  12  15
HETATM   15  C   UNL     1       7.897  28.558  56.594  1.00  0.00     0.252 C 
HETATM   16  O   UNL     1       8.180  29.348  55.699  1.00  0.00    -0.268 OA
HETATM   17  N   UNL     1       7.629  28.954  57.886  1.00  0.00    -0.349 N 
HETATM   18  H   UNL     1       7.547  28.269  58.621  1.00  0.00     0.163 HD
BRANCH  17  19
HETATM   19  C   UNL     1       7.686  30.350  58.291  1.00  0.00     0.114 C 
HETATM   20  C   UNL     1       8.489  30.512  59.585  1.00  0.00     0.037 C 
BRANCH  19  21
HETATM   21  C   UNL     1       6.276  30.901  58.410  1.00  0.00    -0.033 A 
HETATM   22  C   UNL     1       6.016  31.942  59.315  1.00  0.00     0.009 A 
HETATM   23  C   UNL     1       4.737  32.484  59.425  1.00  0.00     0.003 A 
HETATM   24  C   UNL     1       3.706  31.998  58.622  1.00  0.00     0.037 A 
HETATM   25  C   UNL     1       3.940  30.972  57.707  1.00  0.00     0.068 A 
HETATM   26  C   UNL     1       5.221  30.422  57.607  1.00  0.00     0.046 A 
BRANCH  25  27
HETATM   27  O   UNL     1       2.846  30.602  56.974  1.00  0.00    -0.356 OA
HETATM   28  C   UNL     1       2.634  31.276  55.741  1.00  0.00     0.210 C 
ENDBRANCH  25  27
ENDBRANCH  19  21
ENDBRANCH  17  19
ENDBRANCH  12  15
BRANCH   1  29
HETATM   29  C   UNL     1       6.464  24.935  52.706  1.00  0.00     0.244 C 
HETATM   30  C   UNL     1       5.115  24.887  53.419  1.00  0.00     0.035 C 
ENDBRANCH   1  29
TORSDOF 5
ENDMDL
MODEL 9
REMARK VINA RESULT:      -8.5      7.014     10.670
REMARK  5 active torsions:
REMARK  status: ('A' for Active; 'I' for Inactive)
REMARK    1  A    between atoms: C_2  and  N_3 
REMARK    2  A    between atoms: C_14  and  C_17 
REMARK       I    between atoms: C_17  and  N_19 
REMARK    3  A    between atoms: N_19  and  C_20 
REMARK    4  A    between atoms: C_20  and  C_22 
REMARK    5  A    between atoms: C_26  and  O_27 
ROOT
HETATM    1  N   UNL     1       4.971  29.832  55.739  1.00  0.00    -0.008 N 
HETATM    2  H   UNL     1       4.990  30.700  55.219  1.00  0.00     0.293 HD
HETATM    3  C   UNL     1       4.966  28.760  54.835  1.00  0.00     0.169 A 
HETATM    4  C   UNL     1       4.027  28.393  53.838  1.00  0.00     0.154 A 
HETATM    5  N   UNL     1       4.177  27.305  53.036  1.00  0.00    -0.271 NA
HETATM    6  C   UNL     1       5.276  26.539  53.180  1.00  0.00     0.117 A 
HETATM    7  C   UNL     1       6.266  26.797  54.098  1.00  0.00     0.034 A 
HETATM    8  C   UNL     1       6.116  27.917  54.932  1.00  0.00     0.014 A 
HETATM    9  C   UNL     1       6.921  28.512  55.981  1.00  0.00     0.012 A 
HETATM   10  C   UNL     1       8.161  28.190  56.567  1.00  0.00     0.016 A 
HETATM   11  C   UNL     1       8.677  28.994  57.572  1.00  0.00     0.018 A 
HETATM   12  C   UNL     1       7.969  30.127  57.989  1.00  0.00     0.034 A 
HETATM   13  C   UNL     1       6.751  30.479  57.394  1.00  0.00     0.055 A 
HETATM   14  C   UNL     1       6.179  29.658  56.402  1.00  0.00     0.152 A 
ENDROOT
BRANCH  12  15
HETATM   15  C   UNL     1       8.573  30.953  59.079  1.00  0.00     0.252 C 
HETATM   16  O   UNL     1       9.287  31.910  58.798  1.00  0.00    -0.268 OA
HETATM   17  N   UNL     1       8.312  30.568  60.375  1.00  0.00    -0.349 N 
HETATM   18  H   UNL     1       7.845  29.694  60.561  1.00  0.00     0.163 HD
BRANCH  17  19
HETATM   19  C   UNL     1       8.889  31.261  61.516  1.00  0.00     0.114 C 
HETATM   20  C   UNL     1       9.817  30.334  62.307  1.00  0.00     0.037 C 
BRANCH  19  21
HETATM   21  C   UNL     1       7.777  31.839  62.373  1.00  0.00    -0.033 A 
HETATM   22  C   UNL     1       8.104  32.611  63.499  1.00  0.00     0.009 A 
HETATM   23  C   UNL     1       7.104  33.175  64.287  1.00  0.00     0.003 A 
HETATM   24  C   UNL     1       5.764  32.984  63.952  1.00  0.00     0.037 A 
HETATM   25  C   UNL     1       5.412  32.231  62.831  1.00  0.00     0.068 A 
HETATM   26  C   UNL     1       6.418  31.656  62.049  1.00  0.00     0.046 A 
BRANCH  25  27
HETATM   27  O   UNL     1       4.066  32.135  62.609  1.00  0.00    -0.356 OA
HETATM   28  C   UNL     1       3.634  32.100  61.255  1.00  0.00     0.210 C 
ENDBRANCH  25  27
ENDBRANCH  19  21
ENDBRANCH  17  19
ENDBRANCH  12  15
BRANCH   1  29
HETATM   29  C   UNL     1       3.768  29.906  56.606  1.00  0.00     0.244 C 
HETATM   30  C   UNL     1       2.859  31.106  56.346  1.00  0.00     0.035 C 
ENDBRANCH   1  29
TORSDOF 5
ENDMDL
MODEL 10
REMARK VINA RESULT:      -8.5      5.361      8.896
REMARK  5 active torsions:
REMARK  status: ('A' for Active; 'I' for Inactive)
REMARK    1  A    between atoms: C_2  and  N_3 
REMARK    2  A    between atoms: C_14  and  C_17 
REMARK       I    between atoms: C_17  and  N_19 
REMARK    3  A    between atoms: N_19  and  C_20 
REMARK    4  A    between atoms: C_20  and  C_22 
REMARK    5  A    between atoms: C_26  and  O_27 
ROOT
HETATM    1  N   UNL     1       7.326  30.964  58.387  1.00  0.00    -0.008 N 
HETATM    2  H   UNL     1       7.934  31.613  57.903  1.00  0.00     0.293 HD
HETATM    3  C   UNL     1       6.332  31.688  59.061  1.00  0.00     0.169 A 
HETATM    4  C   UNL     1       6.429  32.651  60.098  1.00  0.00     0.154 A 
HETATM    5  N   UNL     1       5.348  33.266  60.648  1.00  0.00    -0.271 NA
HETATM    6  C   UNL     1       4.121  32.962  60.183  1.00  0.00     0.117 A 
HETATM    7  C   UNL     1       3.895  32.058  59.173  1.00  0.00     0.034 A 
HETATM    8  C   UNL     1       5.006  31.417  58.601  1.00  0.00     0.014 A 
HETATM    9  C   UNL     1       5.177  30.444  57.539  1.00  0.00     0.012 A 
HETATM   10  C   UNL     1       4.292  29.768  56.677  1.00  0.00     0.016 A 
HETATM   11  C   UNL     1       4.792  28.882  55.735  1.00  0.00     0.018 A 
HETATM   12  C   UNL     1       6.172  28.675  55.636  1.00  0.00     0.034 A 
HETATM   13  C   UNL     1       7.067  29.365  56.463  1.00  0.00     0.055 A 
HETATM   14  C   UNL     1       6.589  30.236  57.462  1.00  0.00     0.152 A 
ENDROOT
BRANCH  12  15
HETATM   15  C   UNL     1       6.651  27.707  54.604  1.00  0.00     0.252 C 
HETATM   16  O   UNL     1       7.217  28.115  53.595  1.00  0.00    -0.268 OA
HETATM   17  N   UNL     1       6.399  26.371  54.832  1.00  0.00    -0.349 N 
HETATM   18  H   UNL     1       5.804  26.091  55.595  1.00  0.00     0.163 HD
BRANCH  17  19
HETATM   19  C   UNL     1       6.768  25.343  53.872  1.00  0.00     0.114 C 
HETATM   20  C   UNL     1       5.575  24.964  52.991  1.00  0.00     0.037 C 
BRANCH  19  21
HETATM   21  C   UNL     1       7.348  24.148  54.609  1.00  0.00    -0.033 A 
HETATM   22  C   UNL     1       7.792  24.304  55.932  1.00  0.00     0.009 A 
HETATM   23  C   UNL     1       8.304  23.219  56.640  1.00  0.00     0.003 A 
HETATM   24  C   UNL     1       8.366  21.963  56.038  1.00  0.00     0.037 A 
HETATM   25  C   UNL     1       7.920  21.779  54.729  1.00  0.00     0.068 A 
HETATM   26  C   UNL     1       7.418  22.872  54.017  1.00  0.00     0.046 A 
BRANCH  25  27
HETATM   27  O   UNL     1       8.023  20.496  54.267  1.00  0.00    -0.356 OA
HETATM   28  C   UNL     1       8.382  20.327  52.902  1.00  0.00     0.210 C 
ENDBRANCH  25  27
ENDBRANCH  19  21
ENDBRANCH  17  19
ENDBRANCH  12  15
BRANCH   1  29
HETATM   29  C   UNL     1       8.209  30.167  59.274  1.00  0.00     0.244 C 
HETATM   30  C   UNL     1       9.496  30.868  59.702  1.00  0.00     0.035 C 
ENDBRANCH   1  29
TORSDOF 5
ENDMDL
