MODEL 1
REMARK VINA RESULT:      -8.1      0.000      0.000
REMARK  3 active torsions:
REMARK  status: ('A' for Active; 'I' for Inactive)
REMARK       I    between atoms: C_2  and  N_3 
REMARK    1  A    between atoms: N_3  and  C_4 
REMARK    2  A    between atoms: C_7  and  N_8 
REMARK       I    between atoms: N_8  and  C_9 
REMARK    3  A    between atoms: C_9  and  C_10 
ROOT
HETATM    1  C   UNL     1       7.627  29.773  58.056  1.00  0.00     0.034 A 
HETATM    2  C   UNL     1       6.397  29.283  57.604  1.00  0.00     0.032 A 
HETATM    3  C   UNL     1       6.329  28.130  56.811  1.00  0.00     0.032 A 
HETATM    4  C   UNL     1       7.490  27.449  56.451  1.00  0.00     0.035 A 
HETATM    5  C   UNL     1       8.721  27.950  56.889  1.00  0.00     0.032 A 
HETATM    6  C   UNL     1       8.789  29.100  57.684  1.00  0.00     0.032 A 
ENDROOT
BRANCH   4   7
HETATM    7  N   UNL     1       7.509  26.258  55.695  1.00  0.00    -0.323 N 
HETATM    8  C   UNL     1       7.188  24.985  56.132  1.00  0.00     0.257 C 
HETATM    9  O   UNL     1       6.704  24.681  57.215  1.00  0.00    -0.267 OA
HETATM   10  H   UNL     1       7.755  26.371  54.721  1.00  0.00     0.169 HD
BRANCH   8  11
HETATM   11  C   UNL     1       7.442  23.896  55.156  1.00  0.00     0.050 A 
HETATM   12  C   UNL     1       7.553  22.590  55.622  1.00  0.00     0.135 A 
HETATM   13  N   UNL     1       7.797  21.520  54.825  1.00  0.00    -0.248 NA
HETATM   14  C   UNL     1       7.959  21.774  53.511  1.00  0.00     0.125 A 
HETATM   15 CL   UNL     1       8.278  20.397  52.543  1.00  0.00    -0.063 Cl
HETATM   16  C   UNL     1       7.889  23.039  52.948  1.00  0.00     0.045 A 
HETATM   17  C   UNL     1       7.629  24.121  53.788  1.00  0.00     0.022 A 
ENDBRANCH   8  11
ENDBRANCH   4   7
BRANCH   1  18
HETATM   18  N   UNL     1       7.603  30.919  58.876  1.00  0.00    -0.328 N 
HETATM   19  C   UNL     1       8.185  31.075  60.122  1.00  0.00     0.218 C 
HETATM   20  C   UNL     1       7.906  32.438  60.705  1.00  0.00     0.117 C 
HETATM   21  O   UNL     1       8.855  30.252  60.734  1.00  0.00    -0.274 OA
HETATM   22  H   UNL     1       7.085  31.710  58.516  1.00  0.00     0.169 HD
ENDBRANCH   1  18
TORSDOF 3
ENDMDL
MODEL 2
REMARK VINA RESULT:      -8.0      4.925      7.679
REMARK  3 active torsions:
REMARK  status: ('A' for Active; 'I' for Inactive)
REMARK       I    between atoms: C_2  and  N_3 
REMARK    1  A    between atoms: N_3  and  C_4 
REMARK    2  A    between atoms: C_7  and  N_8 
REMARK       I    between atoms: N_8  and  C_9 
REMARK    3  A    between atoms: C_9  and  C_10 
ROOT
HETATM    1  C   UNL     1       6.667  33.832  64.106  1.00  0.00     0.034 A 
HETATM    2  C   UNL     1       5.919  34.064  62.948  1.00  0.00     0.032 A 
HETATM    3  C   UNL     1       6.161  33.339  61.775  1.00  0.00     0.032 A 
HETATM    4  C   UNL     1       7.163  32.370  61.737  1.00  0.00     0.035 A 
HETATM    5  C   UNL     1       7.923  32.150  62.891  1.00  0.00     0.032 A 
HETATM    6  C   UNL     1       7.679  32.874  64.064  1.00  0.00     0.032 A 
ENDROOT
BRANCH   4   7
HETATM    7  N   UNL     1       7.444  31.563  60.615  1.00  0.00    -0.323 N 
HETATM    8  C   UNL     1       8.377  31.808  59.622  1.00  0.00     0.257 C 
HETATM    9  O   UNL     1       9.216  32.700  59.607  1.00  0.00    -0.267 OA
HETATM   10  H   UNL     1       6.922  30.700  60.563  1.00  0.00     0.169 HD
BRANCH   8  11
HETATM   11  C   UNL     1       8.352  30.860  58.480  1.00  0.00     0.050 A 
HETATM   12  C   UNL     1       7.130  30.545  57.896  1.00  0.00     0.135 A 
HETATM   13  N   UNL     1       6.986  29.684  56.858  1.00  0.00    -0.248 NA
HETATM   14  C   UNL     1       8.111  29.098  56.404  1.00  0.00     0.125 A 
HETATM   15 CL   UNL     1       7.883  28.007  55.102  1.00  0.00    -0.063 Cl
HETATM   16  C   UNL     1       9.374  29.325  56.928  1.00  0.00     0.045 A 
HETATM   17  C   UNL     1       9.496  30.221  57.990  1.00  0.00     0.022 A 
ENDBRANCH   8  11
ENDBRANCH   4   7
BRANCH   1  18
HETATM   18  N   UNL     1       6.336  34.583  65.252  1.00  0.00    -0.328 N 
HETATM   19  C   UNL     1       5.286  34.365  66.127  1.00  0.00     0.218 C 
HETATM   20  C   UNL     1       5.236  35.410  67.213  1.00  0.00     0.117 C 
HETATM   21  O   UNL     1       4.463  33.458  66.085  1.00  0.00    -0.274 OA
HETATM   22  H   UNL     1       6.925  35.384  65.442  1.00  0.00     0.169 HD
ENDBRANCH   1  18
TORSDOF 3
ENDMDL
MODEL 3
REMARK VINA RESULT:      -7.9      6.173      8.147
REMARK  3 active torsions:
REMARK  status: ('A' for Active; 'I' for Inactive)
REMARK       I    between atoms: C_2  and  N_3 
REMARK    1  A    between atoms: N_3  and  C_4 
REMARK    2  A    between atoms: C_7  and  N_8 
REMARK       I    between atoms: N_8  and  C_9 
REMARK    3  A    between atoms: C_9  and  C_10 
ROOT
HETATM    1  C   UNL     1       6.914  25.115  54.225  1.00  0.00     0.034 A 
HETATM    2  C   UNL     1       7.564  25.130  52.987  1.00  0.00     0.032 A 
HETATM    3  C   UNL     1       6.846  25.316  51.799  1.00  0.00     0.032 A 
HETATM    4  C   UNL     1       5.463  25.485  51.827  1.00  0.00     0.035 A 
HETATM    5  C   UNL     1       4.811  25.451  53.064  1.00  0.00     0.032 A 
HETATM    6  C   UNL     1       5.529  25.268  54.252  1.00  0.00     0.032 A 
ENDROOT
BRANCH   4   7
HETATM    7  N   UNL     1       4.669  25.722  50.685  1.00  0.00    -0.323 N 
HETATM    8  C   UNL     1       4.638  26.869  49.913  1.00  0.00     0.257 C 
HETATM    9  O   UNL     1       5.384  27.836  50.003  1.00  0.00    -0.267 OA
HETATM   10  H   UNL     1       4.092  24.945  50.394  1.00  0.00     0.169 HD
BRANCH   8  11
HETATM   11  C   UNL     1       3.595  26.895  48.856  1.00  0.00     0.050 A 
HETATM   12  C   UNL     1       2.623  27.890  48.896  1.00  0.00     0.135 A 
HETATM   13  N   UNL     1       1.617  28.002  47.993  1.00  0.00    -0.248 NA
HETATM   14  C   UNL     1       1.573  27.066  47.025  1.00  0.00     0.125 A 
HETATM   15 CL   UNL     1       0.279  27.238  45.914  1.00  0.00    -0.063 Cl
HETATM   16  C   UNL     1       2.478  26.023  46.906  1.00  0.00     0.045 A 
HETATM   17  C   UNL     1       3.507  25.934  47.843  1.00  0.00     0.022 A 
ENDBRANCH   8  11
ENDBRANCH   4   7
BRANCH   1  18
HETATM   18  N   UNL     1       7.715  24.955  55.374  1.00  0.00    -0.328 N 
HETATM   19  C   UNL     1       7.976  23.782  56.061  1.00  0.00     0.218 C 
HETATM   20  C   UNL     1       8.849  24.022  57.268  1.00  0.00     0.117 C 
HETATM   21  O   UNL     1       7.582  22.656  55.781  1.00  0.00    -0.274 OA
HETATM   22  H   UNL     1       8.129  25.800  55.747  1.00  0.00     0.169 HD
ENDBRANCH   1  18
TORSDOF 3
ENDMDL
MODEL 4
REMARK VINA RESULT:      -7.7      4.956      9.709
REMARK  3 active torsions:
REMARK  status: ('A' for Active; 'I' for Inactive)
REMARK       I    between atoms: C_2  and  N_3 
REMARK    1  A    between atoms: N_3  and  C_4 
REMARK    2  A    between atoms: C_7  and  N_8 
REMARK       I    between atoms: N_8  and  C_9 
REMARK    3  A    between atoms: C_9  and  C_10 
ROOT
HETATM    1  C   UNL     1       7.529  28.809  55.959  1.00  0.00     0.034 A 
HETATM    2  C   UNL     1       8.506  28.660  56.948  1.00  0.00     0.032 A 
HETATM    3  C   UNL     1       8.429  29.375  58.150  1.00  0.00     0.032 A 
HETATM    4  C   UNL     1       7.376  30.258  58.382  1.00  0.00     0.035 A 
HETATM    5  C   UNL     1       6.409  30.421  57.384  1.00  0.00     0.032 A 
HETATM    6  C   UNL     1       6.484  29.703  56.184  1.00  0.00     0.032 A 
ENDROOT
BRANCH   4   7
HETATM    7  N   UNL     1       7.197  30.983  59.579  1.00  0.00    -0.323 N 
HETATM    8  C   UNL     1       7.978  32.023  60.050  1.00  0.00     0.257 C 
HETATM    9  O   UNL     1       8.886  32.589  59.454  1.00  0.00    -0.267 OA
HETATM   10  H   UNL     1       6.386  30.722  60.122  1.00  0.00     0.169 HD
BRANCH   8  11
HETATM   11  C   UNL     1       7.642  32.501  61.415  1.00  0.00     0.050 A 
HETATM   12  C   UNL     1       6.556  33.355  61.578  1.00  0.00     0.135 A 
HETATM   13  N   UNL     1       6.165  33.863  62.773  1.00  0.00    -0.248 NA
HETATM   14  C   UNL     1       6.907  33.518  63.844  1.00  0.00     0.125 A 
HETATM   15 CL   UNL     1       6.387  34.192  65.331  1.00  0.00    -0.063 Cl
HETATM   16  C   UNL     1       8.018  32.691  63.788  1.00  0.00     0.045 A 
HETATM   17  C   UNL     1       8.394  32.175  62.548  1.00  0.00     0.022 A 
ENDBRANCH   8  11
ENDBRANCH   4   7
BRANCH   1  18
HETATM   18  N   UNL     1       7.664  28.028  54.793  1.00  0.00    -0.328 N 
HETATM   19  C   UNL     1       7.307  26.702  54.623  1.00  0.00     0.218 C 
HETATM   20  C   UNL     1       7.647  26.203  53.240  1.00  0.00     0.117 C 
HETATM   21  O   UNL     1       6.778  25.965  55.447  1.00  0.00    -0.274 OA
HETATM   22  H   UNL     1       8.090  28.488  53.998  1.00  0.00     0.169 HD
ENDBRANCH   1  18
TORSDOF 3
ENDMDL
MODEL 5
REMARK VINA RESULT:      -7.6      3.873      8.465
REMARK  3 active torsions:
REMARK  status: ('A' for Active; 'I' for Inactive)
REMARK       I    between atoms: C_2  and  N_3 
REMARK    1  A    between atoms: N_3  and  C_4 
REMARK    2  A    between atoms: C_7  and  N_8 
REMARK       I    between atoms: N_8  and  C_9 
REMARK    3  A    between atoms: C_9  and  C_10 
ROOT
HETATM    1  C   UNL     1       7.609  23.540  55.544  1.00  0.00     0.034 A 
HETATM    2  C   UNL     1       6.470  24.313  55.302  1.00  0.00     0.032 A 
HETATM    3  C   UNL     1       6.288  25.548  55.938  1.00  0.00     0.032 A 
HETATM    4  C   UNL     1       7.242  26.029  56.833  1.00  0.00     0.035 A 
HETATM    5  C   UNL     1       8.373  25.246  57.090  1.00  0.00     0.032 A 
HETATM    6  C   UNL     1       8.555  24.013  56.452  1.00  0.00     0.032 A 
ENDROOT
BRANCH   4   7
HETATM    7  N   UNL     1       7.161  27.279  57.482  1.00  0.00    -0.323 N 
HETATM    8  C   UNL     1       7.421  28.523  56.935  1.00  0.00     0.257 C 
HETATM    9  O   UNL     1       7.641  28.776  55.757  1.00  0.00    -0.267 OA
HETATM   10  H   UNL     1       6.845  27.246  58.442  1.00  0.00     0.169 HD
BRANCH   8  11
HETATM   11  C   UNL     1       7.399  29.655  57.895  1.00  0.00     0.050 A 
HETATM   12  C   UNL     1       8.363  29.703  58.898  1.00  0.00     0.135 A 
HETATM   13  N   UNL     1       8.432  30.680  59.836  1.00  0.00    -0.248 NA
HETATM   14  C   UNL     1       7.484  31.635  59.778  1.00  0.00     0.125 A 
HETATM   15 CL   UNL     1       7.600  32.843  60.989  1.00  0.00    -0.063 Cl
HETATM   16  C   UNL     1       6.469  31.670  58.835  1.00  0.00     0.045 A 
HETATM   17  C   UNL     1       6.424  30.658  57.877  1.00  0.00     0.022 A 
ENDBRANCH   8  11
ENDBRANCH   4   7
BRANCH   1  18
HETATM   18  N   UNL     1       7.728  22.325  54.838  1.00  0.00    -0.328 N 
HETATM   19  C   UNL     1       7.887  22.157  53.474  1.00  0.00     0.218 C 
HETATM   20  C   UNL     1       7.936  20.699  53.090  1.00  0.00     0.117 C 
HETATM   21  O   UNL     1       7.984  23.036  52.626  1.00  0.00    -0.274 OA
HETATM   22  H   UNL     1       7.671  21.482  55.395  1.00  0.00     0.169 HD
ENDBRANCH   1  18
TORSDOF 3
ENDMDL
MODEL 6
REMARK VINA RESULT:      -7.5      3.726      8.424
REMARK  3 active torsions:
REMARK  status: ('A' for Active; 'I' for Inactive)
REMARK       I    between atoms: C_2  and  N_3 
REMARK    1  A    between atoms: N_3  and  C_4 
REMARK    2  A    between atoms: C_7  and  N_8 
REMARK       I    between atoms: N_8  and  C_9 
REMARK    3  A    between atoms: C_9  and  C_10 
ROOT
HETATM    1  C   UNL     1       7.353  23.710  54.153  1.00  0.00     0.034 A 
HETATM    2  C   UNL     1       7.645  24.872  53.432  1.00  0.00     0.032 A 
HETATM    3  C   UNL     1       7.485  26.138  54.010  1.00  0.00     0.032 A 
HETATM    4  C   UNL     1       7.023  26.265  55.319  1.00  0.00     0.035 A 
HETATM    5  C   UNL     1       6.713  25.103  56.033  1.00  0.00     0.032 A 
HETATM    6  C   UNL     1       6.876  23.837  55.457  1.00  0.00     0.032 A 
ENDROOT
BRANCH   4   7
HETATM    7  N   UNL     1       6.875  27.496  55.992  1.00  0.00    -0.323 N 
HETATM    8  C   UNL     1       7.486  27.883  57.171  1.00  0.00     0.257 C 
HETATM    9  O   UNL     1       8.364  27.279  57.775  1.00  0.00    -0.267 OA
HETATM   10  H   UNL     1       6.280  28.170  55.530  1.00  0.00     0.169 HD
BRANCH   8  11
HETATM   11  C   UNL     1       7.028  29.180  57.727  1.00  0.00     0.050 A 
HETATM   12  C   UNL     1       5.758  29.641  57.397  1.00  0.00     0.135 A 
HETATM   13  N   UNL     1       5.241  30.816  57.835  1.00  0.00    -0.248 NA
HETATM   14  C   UNL     1       6.039  31.568  58.618  1.00  0.00     0.125 A 
HETATM   15 CL   UNL     1       5.351  33.049  59.138  1.00  0.00    -0.063 Cl
HETATM   16  C   UNL     1       7.326  31.212  58.990  1.00  0.00     0.045 A 
HETATM   17  C   UNL     1       7.831  29.995  58.532  1.00  0.00     0.022 A 
ENDBRANCH   8  11
ENDBRANCH   4   7
BRANCH   1  18
HETATM   18  N   UNL     1       7.573  22.477  53.508  1.00  0.00    -0.328 N 
HETATM   19  C   UNL     1       8.518  21.517  53.826  1.00  0.00     0.218 C 
HETATM   20  C   UNL     1       8.471  20.347  52.876  1.00  0.00     0.117 C 
HETATM   21  O   UNL     1       9.323  21.548  54.750  1.00  0.00    -0.274 OA
HETATM   22  H   UNL     1       6.983  22.283  52.709  1.00  0.00     0.169 HD
ENDBRANCH   1  18
TORSDOF 3
ENDMDL
MODEL 7
REMARK VINA RESULT:      -7.4      6.225      8.579
REMARK  3 active torsions:
REMARK  status: ('A' for Active; 'I' for Inactive)
REMARK       I    between atoms: C_2  and  N_3 
REMARK    1  A    between atoms: N_3  and  C_4 
REMARK    2  A    between atoms: C_7  and  N_8 
REMARK       I    between atoms: N_8  and  C_9 
REMARK    3  A    between atoms: C_9  and  C_10 
ROOT
HETATM    1  C   UNL     1       7.455  23.517  54.167  1.00  0.00     0.034 A 
HETATM    2  C   UNL     1       6.415  24.347  54.597  1.00  0.00     0.032 A 
HETATM    3  C   UNL     1       5.967  25.411  53.803  1.00  0.00     0.032 A 
HETATM    4  C   UNL     1       6.556  25.666  52.566  1.00  0.00     0.035 A 
HETATM    5  C   UNL     1       7.609  24.847  52.145  1.00  0.00     0.032 A 
HETATM    6  C   UNL     1       8.055  23.782  52.937  1.00  0.00     0.032 A 
ENDROOT
BRANCH   4   7
HETATM    7  N   UNL     1       6.139  26.686  51.685  1.00  0.00    -0.323 N 
HETATM    8  C   UNL     1       5.272  26.562  50.613  1.00  0.00     0.257 C 
HETATM    9  O   UNL     1       4.611  25.575  50.314  1.00  0.00    -0.267 OA
HETATM   10  H   UNL     1       6.495  27.608  51.894  1.00  0.00     0.169 HD
BRANCH   8  11
HETATM   11  C   UNL     1       5.130  27.774  49.768  1.00  0.00     0.050 A 
HETATM   12  C   UNL     1       5.363  29.021  50.340  1.00  0.00     0.135 A 
HETATM   13  N   UNL     1       5.250  30.194  49.669  1.00  0.00    -0.248 NA
HETATM   14  C   UNL     1       4.867  30.114  48.379  1.00  0.00     0.125 A 
HETATM   15 CL   UNL     1       4.725  31.619  47.573  1.00  0.00    -0.063 Cl
HETATM   16  C   UNL     1       4.591  28.926  47.720  1.00  0.00     0.045 A 
HETATM   17  C   UNL     1       4.722  27.732  48.431  1.00  0.00     0.022 A 
ENDBRANCH   8  11
ENDBRANCH   4   7
BRANCH   1  18
HETATM   18  N   UNL     1       7.822  22.450  55.013  1.00  0.00    -0.328 N 
HETATM   19  C   UNL     1       7.862  21.103  54.699  1.00  0.00     0.218 C 
HETATM   20  C   UNL     1       8.267  20.263  55.885  1.00  0.00     0.117 C 
HETATM   21  O   UNL     1       7.612  20.587  53.617  1.00  0.00    -0.274 OA
HETATM   22  H   UNL     1       8.066  22.702  55.962  1.00  0.00     0.169 HD
ENDBRANCH   1  18
TORSDOF 3
ENDMDL
MODEL 8
REMARK VINA RESULT:      -7.4      4.401      8.966
REMARK  3 active torsions:
REMARK  status: ('A' for Active; 'I' for Inactive)
REMARK       I    between atoms: C_2  and  N_3 
REMARK    1  A    between atoms: N_3  and  C_4 
REMARK    2  A    between atoms: C_7  and  N_8 
REMARK       I    between atoms: N_8  and  C_9 
REMARK    3  A    between atoms: C_9  and  C_10 
ROOT
HETATM    1  C   UNL     1       7.431  26.898  55.294  1.00  0.00     0.034 A 
HETATM    2  C   UNL     1       7.241  28.264  55.062  1.00  0.00     0.032 A 
HETATM    3  C   UNL     1       7.216  29.178  56.124  1.00  0.00     0.032 A 
HETATM    4  C   UNL     1       7.374  28.740  57.438  1.00  0.00     0.035 A 
HETATM    5  C   UNL     1       7.546  27.371  57.670  1.00  0.00     0.032 A 
HETATM    6  C   UNL     1       7.574  26.458  56.608  1.00  0.00     0.032 A 
ENDROOT
BRANCH   4   7
HETATM    7  N   UNL     1       7.406  29.594  58.560  1.00  0.00    -0.323 N 
HETATM    8  C   UNL     1       8.503  30.272  59.064  1.00  0.00     0.257 C 
HETATM    9  O   UNL     1       9.613  30.355  58.553  1.00  0.00    -0.267 OA
HETATM   10  H   UNL     1       6.515  29.744  59.012  1.00  0.00     0.169 HD
BRANCH   8  11
HETATM   11  C   UNL     1       8.274  30.983  60.347  1.00  0.00     0.050 A 
HETATM   12  C   UNL     1       7.330  32.004  60.389  1.00  0.00     0.135 A 
HETATM   13  N   UNL     1       7.049  32.729  61.500  1.00  0.00    -0.248 NA
HETATM   14  C   UNL     1       7.758  32.432  62.606  1.00  0.00     0.125 A 
HETATM   15 CL   UNL     1       7.380  33.380  63.983  1.00  0.00    -0.063 Cl
HETATM   16  C   UNL     1       8.734  31.449  62.667  1.00  0.00     0.045 A 
HETATM   17  C   UNL     1       8.999  30.713  61.512  1.00  0.00     0.022 A 
ENDBRANCH   8  11
ENDBRANCH   4   7
BRANCH   1  18
HETATM   18  N   UNL     1       7.476  26.052  54.167  1.00  0.00    -0.328 N 
HETATM   19  C   UNL     1       6.468  25.233  53.689  1.00  0.00     0.218 C 
HETATM   20  C   UNL     1       6.910  24.447  52.480  1.00  0.00     0.117 C 
HETATM   21  O   UNL     1       5.335  25.112  54.140  1.00  0.00    -0.274 OA
HETATM   22  H   UNL     1       8.354  26.030  53.664  1.00  0.00     0.169 HD
ENDBRANCH   1  18
TORSDOF 3
ENDMDL
MODEL 9
REMARK VINA RESULT:      -7.4      5.582      7.056
REMARK  3 active torsions:
REMARK  status: ('A' for Active; 'I' for Inactive)
REMARK       I    between atoms: C_2  and  N_3 
REMARK    1  A    between atoms: N_3  and  C_4 
REMARK    2  A    between atoms: C_7  and  N_8 
REMARK       I    between atoms: N_8  and  C_9 
REMARK    3  A    between atoms: C_9  and  C_10 
ROOT
HETATM    1  C   UNL     1       4.051  28.196  50.316  1.00  0.00     0.034 A 
HETATM    2  C   UNL     1       4.436  27.019  49.666  1.00  0.00     0.032 A 
HETATM    3  C   UNL     1       5.030  25.966  50.374  1.00  0.00     0.032 A 
HETATM    4  C   UNL     1       5.253  26.074  51.746  1.00  0.00     0.035 A 
HETATM    5  C   UNL     1       4.884  27.258  52.392  1.00  0.00     0.032 A 
HETATM    6  C   UNL     1       4.289  28.310  51.684  1.00  0.00     0.032 A 
ENDROOT
BRANCH   4   7
HETATM    7  N   UNL     1       5.802  25.048  52.543  1.00  0.00    -0.323 N 
HETATM    8  C   UNL     1       7.126  24.651  52.599  1.00  0.00     0.257 C 
HETATM    9  O   UNL     1       8.082  25.202  52.066  1.00  0.00    -0.267 OA
HETATM   10  H   UNL     1       5.148  24.585  53.159  1.00  0.00     0.169 HD
BRANCH   8  11
HETATM   11  C   UNL     1       7.392  23.441  53.418  1.00  0.00     0.050 A 
HETATM   12  C   UNL     1       7.238  23.519  54.799  1.00  0.00     0.135 A 
HETATM   13  N   UNL     1       7.465  22.484  55.646  1.00  0.00    -0.248 NA
HETATM   14  C   UNL     1       7.885  21.332  55.087  1.00  0.00     0.125 A 
HETATM   15 CL   UNL     1       8.173  20.056  56.193  1.00  0.00    -0.063 Cl
HETATM   16  C   UNL     1       8.091  21.155  53.727  1.00  0.00     0.045 A 
HETATM   17  C   UNL     1       7.842  22.233  52.877  1.00  0.00     0.022 A 
ENDBRANCH   8  11
ENDBRANCH   4   7
BRANCH   1  18
HETATM   18  N   UNL     1       3.432  29.192  49.534  1.00  0.00    -0.328 N 
HETATM   19  C   UNL     1       4.046  30.220  48.840  1.00  0.00     0.218 C 
HETATM   20  C   UNL     1       3.042  31.111  48.153  1.00  0.00     0.117 C 
HETATM   21  O   UNL     1       5.249  30.439  48.752  1.00  0.00    -0.274 OA
HETATM   22  H   UNL     1       2.421  29.160  49.495  1.00  0.00     0.169 HD
ENDBRANCH   1  18
TORSDOF 3
ENDMDL
MODEL 10
REMARK VINA RESULT:      -7.3      3.721      4.321
REMARK  3 active torsions:
REMARK  status: ('A' for Active; 'I' for Inactive)
REMARK       I    between atoms: C_2  and  N_3 
REMARK    1  A    between atoms: N_3  and  C_4 
REMARK    2  A    between atoms: C_7  and  N_8 
REMARK       I    between atoms: N_8  and  C_9 
REMARK    3  A    between atoms: C_9  and  C_10 
ROOT
HETATM    1  C   UNL     1       7.896  29.829  58.440  1.00  0.00     0.034 A 
HETATM    2  C   UNL     1       8.741  29.061  57.633  1.00  0.00     0.032 A 
HETATM    3  C   UNL     1       8.337  28.644  56.358  1.00  0.00     0.032 A 
HETATM    4  C   UNL     1       7.077  28.984  55.869  1.00  0.00     0.035 A 
HETATM    5  C   UNL     1       6.224  29.736  56.685  1.00  0.00     0.032 A 
HETATM    6  C   UNL     1       6.630  30.155  57.958  1.00  0.00     0.032 A 
ENDROOT
BRANCH   4   7
HETATM    7  N   UNL     1       6.607  28.645  54.583  1.00  0.00    -0.323 N 
HETATM    8  C   UNL     1       5.866  27.531  54.230  1.00  0.00     0.257 C 
HETATM    9  O   UNL     1       5.373  26.706  54.990  1.00  0.00    -0.267 OA
HETATM   10  H   UNL     1       6.815  29.318  53.858  1.00  0.00     0.169 HD
BRANCH   8  11
HETATM   11  C   UNL     1       5.639  27.356  52.774  1.00  0.00     0.050 A 
HETATM   12  C   UNL     1       5.612  28.483  51.958  1.00  0.00     0.135 A 
HETATM   13  N   UNL     1       5.400  28.444  50.619  1.00  0.00    -0.248 NA
HETATM   14  C   UNL     1       5.184  27.227  50.081  1.00  0.00     0.125 A 
HETATM   15 CL   UNL     1       4.907  27.225  48.390  1.00  0.00    -0.063 Cl
HETATM   16  C   UNL     1       5.169  26.046  50.805  1.00  0.00     0.045 A 
HETATM   17  C   UNL     1       5.398  26.113  52.180  1.00  0.00     0.022 A 
ENDBRANCH   8  11
ENDBRANCH   4   7
BRANCH   1  18
HETATM   18  N   UNL     1       8.393  30.233  59.696  1.00  0.00    -0.328 N 
HETATM   19  C   UNL     1       9.041  31.417  60.003  1.00  0.00     0.218 C 
HETATM   20  C   UNL     1       9.459  31.468  61.451  1.00  0.00     0.117 C 
HETATM   21  O   UNL     1       9.279  32.349  59.244  1.00  0.00    -0.274 OA
HETATM   22  H   UNL     1       8.277  29.571  60.452  1.00  0.00     0.169 HD
ENDBRANCH   1  18
TORSDOF 3
ENDMDL
