MODEL 1
REMARK VINA RESULT:     -10.7      0.000      0.000
REMARK  6 active torsions:
REMARK  status: ('A' for Active; 'I' for Inactive)
REMARK    1  A    between atoms: C_2  and  O_3 
REMARK    2  A    between atoms: C_2  and  C_4 
REMARK    3  A    between atoms: C_6  and  N_7 
REMARK       I    between atoms: N_7  and  C_8 
REMARK    4  A    between atoms: C_8  and  C_9 
REMARK    5  A    between atoms: C_12  and  C_13 
REMARK    6  A    between atoms: C_18  and  C_19 
ROOT
HETATM    1  C   UNL     1       6.819  26.499  56.168  1.00  0.00     0.096 C 
HETATM    2  C   UNL     1       7.201  25.688  55.115  1.00  0.00     0.138 C 
HETATM    3  N   UNL     1       6.037  25.361  54.455  1.00  0.00    -0.240 N 
HETATM    4  C   UNL     1       5.970  24.504  53.284  1.00  0.00     0.221 C 
HETATM    5  C   UNL     1       7.368  24.358  52.656  1.00  0.00     0.066 C 
HETATM    6  C   UNL     1       8.438  24.095  53.726  1.00  0.00     0.118 C 
HETATM    7  N   UNL     1       8.405  25.192  54.708  1.00  0.00    -0.365 N 
HETATM    8  N   UNL     1       4.929  25.751  55.103  1.00  0.00    -0.181 NA
HETATM    9  C   UNL     1       5.406  26.465  56.127  1.00  0.00     0.160 C 
HETATM   10  H   UNL     1       9.153  25.107  55.400  1.00  0.00     0.161 HD
ENDROOT
BRANCH   1  11
HETATM   11  C   UNL     1       7.635  27.208  57.138  1.00  0.00     0.261 C 
HETATM   12  N   UNL     1       7.984  28.483  56.731  1.00  0.00    -0.323 N 
HETATM   13  H   UNL     1       7.576  28.783  55.852  1.00  0.00     0.169 HD
HETATM   14  O   UNL     1       7.906  26.693  58.216  1.00  0.00    -0.267 OA
BRANCH  12  15
HETATM   15  C   UNL     1       8.698  29.455  57.460  1.00  0.00     0.035 A 
HETATM   16  C   UNL     1       8.220  30.060  58.626  1.00  0.00     0.039 A 
HETATM   17  C   UNL     1       8.969  31.049  59.291  1.00  0.00    -0.028 A 
HETATM   18  C   UNL     1      10.208  31.432  58.760  1.00  0.00     0.010 A 
HETATM   19  C   UNL     1      10.701  30.820  57.609  1.00  0.00     0.003 A 
HETATM   20  C   UNL     1       9.951  29.833  56.967  1.00  0.00     0.029 A 
BRANCH  17  21
HETATM   21  C   UNL     1       8.406  31.706  60.534  1.00  0.00     0.147 C 
HETATM   22  C   UNL     1       9.472  31.914  61.600  1.00  0.00     0.044 C 
BRANCH  21  23
HETATM   23  O   UNL     1       7.352  30.917  61.085  1.00  0.00    -0.391 OA
HETATM   24  H   UNL     1       6.618  31.527  61.271  1.00  0.00     0.210 HD
ENDBRANCH  21  23
ENDBRANCH  17  21
ENDBRANCH  12  15
ENDBRANCH   1  11
BRANCH   4  25
HETATM   25  C   UNL     1       5.008  25.045  52.248  1.00  0.00     0.409 C 
HETATM   26  F   UNL     1       4.202  26.022  52.710  1.00  0.00    -0.169 F 
HETATM   27  F   UNL     1       5.646  25.504  51.147  1.00  0.00    -0.169 F 
HETATM   28  F   UNL     1       4.186  24.045  51.826  1.00  0.00    -0.169 F 
ENDBRANCH   4  25
BRANCH   6  29
HETATM   29  C   UNL     1       8.325  22.706  54.343  1.00  0.00    -0.035 A 
HETATM   30  C   UNL     1       8.271  21.589  53.486  1.00  0.00     0.009 A 
HETATM   31  C   UNL     1       8.133  20.295  53.993  1.00  0.00     0.001 A 
HETATM   32  C   UNL     1       8.055  20.090  55.366  1.00  0.00     0.000 A 
HETATM   33  C   UNL     1       8.119  21.177  56.232  1.00  0.00     0.001 A 
HETATM   34  C   UNL     1       8.255  22.473  55.726  1.00  0.00     0.009 A 
ENDBRANCH   6  29
TORSDOF 6
ENDMDL
MODEL 2
REMARK VINA RESULT:     -10.4      4.467      8.082
REMARK  6 active torsions:
REMARK  status: ('A' for Active; 'I' for Inactive)
REMARK    1  A    between atoms: C_2  and  O_3 
REMARK    2  A    between atoms: C_2  and  C_4 
REMARK    3  A    between atoms: C_6  and  N_7 
REMARK       I    between atoms: N_7  and  C_8 
REMARK    4  A    between atoms: C_8  and  C_9 
REMARK    5  A    between atoms: C_12  and  C_13 
REMARK    6  A    between atoms: C_18  and  C_19 
ROOT
HETATM    1  C   UNL     1       5.963  27.576  53.327  1.00  0.00     0.096 C 
HETATM    2  C   UNL     1       6.039  26.584  54.288  1.00  0.00     0.138 C 
HETATM    3  N   UNL     1       7.044  26.973  55.147  1.00  0.00    -0.240 N 
HETATM    4  C   UNL     1       7.476  26.210  56.305  1.00  0.00     0.221 C 
HETATM    5  C   UNL     1       6.414  25.156  56.668  1.00  0.00     0.066 C 
HETATM    6  C   UNL     1       5.909  24.417  55.420  1.00  0.00     0.118 C 
HETATM    7  N   UNL     1       5.377  25.405  54.467  1.00  0.00    -0.365 N 
HETATM    8  N   UNL     1       7.732  28.040  54.713  1.00  0.00    -0.181 NA
HETATM    9  C   UNL     1       7.059  28.420  53.624  1.00  0.00     0.160 C 
HETATM   10  H   UNL     1       4.954  24.959  53.650  1.00  0.00     0.161 HD
ENDROOT
BRANCH   1  11
HETATM   11  C   UNL     1       5.025  27.736  52.229  1.00  0.00     0.261 C 
HETATM   12  N   UNL     1       5.613  27.604  50.985  1.00  0.00    -0.323 N 
HETATM   13  H   UNL     1       6.595  27.347  50.996  1.00  0.00     0.169 HD
HETATM   14  O   UNL     1       3.834  27.915  52.452  1.00  0.00    -0.267 OA
BRANCH  12  15
HETATM   15  C   UNL     1       4.980  27.626  49.726  1.00  0.00     0.035 A 
HETATM   16  C   UNL     1       4.117  26.625  49.271  1.00  0.00     0.039 A 
HETATM   17  C   UNL     1       3.541  26.690  47.989  1.00  0.00    -0.028 A 
HETATM   18  C   UNL     1       3.853  27.777  47.160  1.00  0.00     0.010 A 
HETATM   19  C   UNL     1       4.697  28.788  47.613  1.00  0.00     0.003 A 
HETATM   20  C   UNL     1       5.252  28.716  48.892  1.00  0.00     0.029 A 
BRANCH  17  21
HETATM   21  C   UNL     1       2.635  25.572  47.517  1.00  0.00     0.147 C 
HETATM   22  C   UNL     1       3.009  24.235  48.140  1.00  0.00     0.044 C 
BRANCH  21  23
HETATM   23  O   UNL     1       2.688  25.450  46.096  1.00  0.00    -0.391 OA
HETATM   24  H   UNL     1       3.498  24.953  45.891  1.00  0.00     0.210 HD
ENDBRANCH  21  23
ENDBRANCH  17  21
ENDBRANCH  12  15
ENDBRANCH   1  11
BRANCH   4  25
HETATM   25  C   UNL     1       7.726  27.102  57.502  1.00  0.00     0.409 C 
HETATM   26  F   UNL     1       8.918  27.732  57.472  1.00  0.00    -0.169 F 
HETATM   27  F   UNL     1       6.757  28.031  57.661  1.00  0.00    -0.169 F 
HETATM   28  F   UNL     1       7.726  26.350  58.636  1.00  0.00    -0.169 F 
ENDBRANCH   4  25
BRANCH   6  29
HETATM   29  C   UNL     1       6.957  23.482  54.825  1.00  0.00    -0.035 A 
HETATM   30  C   UNL     1       7.114  23.449  53.425  1.00  0.00     0.009 A 
HETATM   31  C   UNL     1       8.033  22.587  52.821  1.00  0.00     0.001 A 
HETATM   32  C   UNL     1       8.819  21.749  53.604  1.00  0.00     0.000 A 
HETATM   33  C   UNL     1       8.690  21.774  54.989  1.00  0.00     0.001 A 
HETATM   34  C   UNL     1       7.769  22.634  55.594  1.00  0.00     0.009 A 
ENDBRANCH   6  29
TORSDOF 6
ENDMDL
MODEL 3
REMARK VINA RESULT:      -9.8      4.676      8.066
REMARK  6 active torsions:
REMARK  status: ('A' for Active; 'I' for Inactive)
REMARK    1  A    between atoms: C_2  and  O_3 
REMARK    2  A    between atoms: C_2  and  C_4 
REMARK    3  A    between atoms: C_6  and  N_7 
REMARK       I    between atoms: N_7  and  C_8 
REMARK    4  A    between atoms: C_8  and  C_9 
REMARK    5  A    between atoms: C_12  and  C_13 
REMARK    6  A    between atoms: C_18  and  C_19 
ROOT
HETATM    1  C   UNL     1       5.760  27.632  53.170  1.00  0.00     0.096 C 
HETATM    2  C   UNL     1       5.896  26.665  54.150  1.00  0.00     0.138 C 
HETATM    3  N   UNL     1       6.938  27.085  54.947  1.00  0.00    -0.240 N 
HETATM    4  C   UNL     1       7.436  26.356  56.100  1.00  0.00     0.221 C 
HETATM    5  C   UNL     1       6.406  25.300  56.542  1.00  0.00     0.066 C 
HETATM    6  C   UNL     1       5.847  24.526  55.340  1.00  0.00     0.118 C 
HETATM    7  N   UNL     1       5.257  25.484  54.391  1.00  0.00    -0.365 N 
HETATM    8  N   UNL     1       7.591  28.148  54.454  1.00  0.00    -0.181 NA
HETATM    9  C   UNL     1       6.860  28.494  53.391  1.00  0.00     0.160 C 
HETATM   10  H   UNL     1       4.799  25.013  53.608  1.00  0.00     0.161 HD
ENDROOT
BRANCH   1  11
HETATM   11  C   UNL     1       4.767  27.755  52.118  1.00  0.00     0.261 C 
HETATM   12  N   UNL     1       5.237  27.371  50.875  1.00  0.00    -0.323 N 
HETATM   13  H   UNL     1       6.178  26.992  50.867  1.00  0.00     0.169 HD
HETATM   14  O   UNL     1       3.626  28.118  52.380  1.00  0.00    -0.267 OA
BRANCH  12  15
HETATM   15  C   UNL     1       4.516  27.296  49.667  1.00  0.00     0.035 A 
HETATM   16  C   UNL     1       4.129  28.414  48.921  1.00  0.00     0.039 A 
HETATM   17  C   UNL     1       3.381  28.273  47.737  1.00  0.00    -0.028 A 
HETATM   18  C   UNL     1       3.016  26.987  47.314  1.00  0.00     0.010 A 
HETATM   19  C   UNL     1       3.415  25.867  48.041  1.00  0.00     0.003 A 
HETATM   20  C   UNL     1       4.166  26.022  49.208  1.00  0.00     0.029 A 
BRANCH  17  21
HETATM   21  C   UNL     1       2.951  29.507  46.971  1.00  0.00     0.147 C 
HETATM   22  C   UNL     1       2.800  30.718  47.881  1.00  0.00     0.044 C 
BRANCH  21  23
HETATM   23  O   UNL     1       1.711  29.275  46.303  1.00  0.00    -0.391 OA
HETATM   24  H   UNL     1       1.082  28.977  46.981  1.00  0.00     0.210 HD
ENDBRANCH  21  23
ENDBRANCH  17  21
ENDBRANCH  12  15
ENDBRANCH   1  11
BRANCH   4  25
HETATM   25  C   UNL     1       7.736  27.280  57.261  1.00  0.00     0.409 C 
HETATM   26  F   UNL     1       8.981  27.798  57.237  1.00  0.00    -0.169 F 
HETATM   27  F   UNL     1       6.852  28.299  57.347  1.00  0.00    -0.169 F 
HETATM   28  F   UNL     1       7.639  26.588  58.429  1.00  0.00    -0.169 F 
ENDBRANCH   4  25
BRANCH   6  29
HETATM   29  C   UNL     1       6.874  23.587  54.715  1.00  0.00    -0.035 A 
HETATM   30  C   UNL     1       7.603  22.727  55.559  1.00  0.00     0.009 A 
HETATM   31  C   UNL     1       8.582  21.871  55.048  1.00  0.00     0.001 A 
HETATM   32  C   UNL     1       8.843  21.849  53.683  1.00  0.00     0.000 A 
HETATM   33  C   UNL     1       8.126  22.681  52.829  1.00  0.00     0.001 A 
HETATM   34  C   UNL     1       7.149  23.540  53.339  1.00  0.00     0.009 A 
ENDBRANCH   6  29
TORSDOF 6
ENDMDL
MODEL 4
REMARK VINA RESULT:      -9.7      5.070      8.173
REMARK  6 active torsions:
REMARK  status: ('A' for Active; 'I' for Inactive)
REMARK    1  A    between atoms: C_2  and  O_3 
REMARK    2  A    between atoms: C_2  and  C_4 
REMARK    3  A    between atoms: C_6  and  N_7 
REMARK       I    between atoms: N_7  and  C_8 
REMARK    4  A    between atoms: C_8  and  C_9 
REMARK    5  A    between atoms: C_12  and  C_13 
REMARK    6  A    between atoms: C_18  and  C_19 
ROOT
HETATM    1  C   UNL     1       5.568  26.673  52.572  1.00  0.00     0.096 C 
HETATM    2  C   UNL     1       5.387  27.448  51.441  1.00  0.00     0.138 C 
HETATM    3  N   UNL     1       4.398  28.352  51.762  1.00  0.00    -0.240 N 
HETATM    4  C   UNL     1       3.877  29.358  50.853  1.00  0.00     0.221 C 
HETATM    5  C   UNL     1       4.839  29.543  49.665  1.00  0.00     0.066 C 
HETATM    6  C   UNL     1       5.310  28.191  49.109  1.00  0.00     0.118 C 
HETATM    7  N   UNL     1       5.944  27.427  50.196  1.00  0.00    -0.365 N 
HETATM    8  N   UNL     1       3.811  28.102  52.943  1.00  0.00    -0.181 NA
HETATM    9  C   UNL     1       4.539  27.100  53.444  1.00  0.00     0.160 C 
HETATM   10  H   UNL     1       6.348  26.550  49.861  1.00  0.00     0.161 HD
ENDROOT
BRANCH   1  11
HETATM   11  C   UNL     1       6.541  25.627  52.836  1.00  0.00     0.261 C 
HETATM   12  N   UNL     1       6.507  25.166  54.139  1.00  0.00    -0.323 N 
HETATM   13  H   UNL     1       5.773  25.560  54.718  1.00  0.00     0.169 HD
HETATM   14  O   UNL     1       7.254  25.201  51.936  1.00  0.00    -0.267 OA
BRANCH  12  15
HETATM   15  C   UNL     1       7.257  24.114  54.701  1.00  0.00     0.035 A 
HETATM   16  C   UNL     1       7.690  22.996  53.981  1.00  0.00     0.039 A 
HETATM   17  C   UNL     1       8.409  21.962  54.608  1.00  0.00    -0.028 A 
HETATM   18  C   UNL     1       8.683  22.062  55.979  1.00  0.00     0.010 A 
HETATM   19  C   UNL     1       8.273  23.182  56.700  1.00  0.00     0.003 A 
HETATM   20  C   UNL     1       7.569  24.205  56.061  1.00  0.00     0.029 A 
BRANCH  17  21
HETATM   21  C   UNL     1       8.834  20.750  53.805  1.00  0.00     0.147 C 
HETATM   22  C   UNL     1       7.901  20.489  52.632  1.00  0.00     0.044 C 
BRANCH  21  23
HETATM   23  O   UNL     1       8.872  19.588  54.633  1.00  0.00    -0.391 OA
HETATM   24  H   UNL     1       8.219  18.967  54.268  1.00  0.00     0.210 HD
ENDBRANCH  21  23
ENDBRANCH  17  21
ENDBRANCH  12  15
ENDBRANCH   1  11
BRANCH   4  25
HETATM   25  C   UNL     1       3.673  30.688  51.546  1.00  0.00     0.409 C 
HETATM   26  F   UNL     1       4.523  30.905  52.570  1.00  0.00    -0.169 F 
HETATM   27  F   UNL     1       3.762  31.731  50.690  1.00  0.00    -0.169 F 
HETATM   28  F   UNL     1       2.421  30.734  52.079  1.00  0.00    -0.169 F 
ENDBRANCH   4  25
BRANCH   6  29
HETATM   29  C   UNL     1       4.203  27.435  48.383  1.00  0.00    -0.035 A 
HETATM   30  C   UNL     1       4.190  26.028  48.451  1.00  0.00     0.009 A 
HETATM   31  C   UNL     1       3.222  25.280  47.776  1.00  0.00     0.001 A 
HETATM   32  C   UNL     1       2.240  25.924  47.030  1.00  0.00     0.000 A 
HETATM   33  C   UNL     1       2.226  27.313  46.960  1.00  0.00     0.001 A 
HETATM   34  C   UNL     1       3.197  28.062  47.631  1.00  0.00     0.009 A 
ENDBRANCH   6  29
TORSDOF 6
ENDMDL
MODEL 5
REMARK VINA RESULT:      -9.5      3.553      6.436
REMARK  6 active torsions:
REMARK  status: ('A' for Active; 'I' for Inactive)
REMARK    1  A    between atoms: C_2  and  O_3 
REMARK    2  A    between atoms: C_2  and  C_4 
REMARK    3  A    between atoms: C_6  and  N_7 
REMARK       I    between atoms: N_7  and  C_8 
REMARK    4  A    between atoms: C_8  and  C_9 
REMARK    5  A    between atoms: C_12  and  C_13 
REMARK    6  A    between atoms: C_18  and  C_19 
ROOT
HETATM    1  C   UNL     1       7.944  29.978  58.284  1.00  0.00     0.096 C 
HETATM    2  C   UNL     1       6.891  29.235  57.783  1.00  0.00     0.138 C 
HETATM    3  N   UNL     1       7.464  28.233  57.033  1.00  0.00    -0.240 N 
HETATM    4  C   UNL     1       6.718  27.220  56.307  1.00  0.00     0.221 C 
HETATM    5  C   UNL     1       5.265  27.172  56.813  1.00  0.00     0.066 C 
HETATM    6  C   UNL     1       4.677  28.582  56.965  1.00  0.00     0.118 C 
HETATM    7  N   UNL     1       5.535  29.357  57.877  1.00  0.00    -0.365 N 
HETATM    8  N   UNL     1       8.788  28.380  56.870  1.00  0.00    -0.181 NA
HETATM    9  C   UNL     1       9.081  29.423  57.651  1.00  0.00     0.160 C 
HETATM   10  H   UNL     1       5.144  30.280  58.076  1.00  0.00     0.161 HD
ENDROOT
BRANCH   1  11
HETATM   11  C   UNL     1       7.935  31.097  59.211  1.00  0.00     0.261 C 
HETATM   12  N   UNL     1       7.279  30.819  60.396  1.00  0.00    -0.323 N 
HETATM   13  H   UNL     1       6.954  29.864  60.497  1.00  0.00     0.169 HD
HETATM   14  O   UNL     1       8.516  32.139  58.931  1.00  0.00    -0.267 OA
BRANCH  12  15
HETATM   15  C   UNL     1       7.156  31.651  61.527  1.00  0.00     0.035 A 
HETATM   16  C   UNL     1       5.976  32.313  61.881  1.00  0.00     0.039 A 
HETATM   17  C   UNL     1       5.927  33.156  63.007  1.00  0.00    -0.028 A 
HETATM   18  C   UNL     1       7.087  33.334  63.772  1.00  0.00     0.010 A 
HETATM   19  C   UNL     1       8.262  32.663  63.438  1.00  0.00     0.003 A 
HETATM   20  C   UNL     1       8.292  31.821  62.324  1.00  0.00     0.029 A 
BRANCH  17  21
HETATM   21  C   UNL     1       4.641  33.883  63.343  1.00  0.00     0.147 C 
HETATM   22  C   UNL     1       4.823  35.394  63.335  1.00  0.00     0.044 C 
BRANCH  21  23
HETATM   23  O   UNL     1       4.160  33.483  64.626  1.00  0.00    -0.391 OA
HETATM   24  H   UNL     1       3.799  32.587  64.520  1.00  0.00     0.210 HD
ENDBRANCH  21  23
ENDBRANCH  17  21
ENDBRANCH  12  15
ENDBRANCH   1  11
BRANCH   4  25
HETATM   25  C   UNL     1       7.346  25.851  56.450  1.00  0.00     0.409 C 
HETATM   26  F   UNL     1       8.167  25.518  55.434  1.00  0.00    -0.169 F 
HETATM   27  F   UNL     1       8.028  25.718  57.610  1.00  0.00    -0.169 F 
HETATM   28  F   UNL     1       6.368  24.903  56.470  1.00  0.00    -0.169 F 
ENDBRANCH   4  25
BRANCH   6  29
HETATM   29  C   UNL     1       4.423  29.262  55.625  1.00  0.00    -0.035 A 
HETATM   30  C   UNL     1       4.455  30.669  55.564  1.00  0.00     0.009 A 
HETATM   31  C   UNL     1       4.194  31.348  54.371  1.00  0.00     0.001 A 
HETATM   32  C   UNL     1       3.906  30.634  53.213  1.00  0.00     0.000 A 
HETATM   33  C   UNL     1       3.882  29.244  53.247  1.00  0.00     0.001 A 
HETATM   34  C   UNL     1       4.139  28.564  54.440  1.00  0.00     0.009 A 
ENDBRANCH   6  29
TORSDOF 6
ENDMDL
MODEL 6
REMARK VINA RESULT:      -9.3      5.370      9.236
REMARK  6 active torsions:
REMARK  status: ('A' for Active; 'I' for Inactive)
REMARK    1  A    between atoms: C_2  and  O_3 
REMARK    2  A    between atoms: C_2  and  C_4 
REMARK    3  A    between atoms: C_6  and  N_7 
REMARK       I    between atoms: N_7  and  C_8 
REMARK    4  A    between atoms: C_8  and  C_9 
REMARK    5  A    between atoms: C_12  and  C_13 
REMARK    6  A    between atoms: C_18  and  C_19 
ROOT
HETATM    1  C   UNL     1       4.768  26.970  50.576  1.00  0.00     0.096 C 
HETATM    2  C   UNL     1       3.986  28.076  50.299  1.00  0.00     0.138 C 
HETATM    3  N   UNL     1       3.424  27.836  49.065  1.00  0.00    -0.240 N 
HETATM    4  C   UNL     1       2.534  28.753  48.375  1.00  0.00     0.221 C 
HETATM    5  C   UNL     1       1.992  29.804  49.361  1.00  0.00     0.066 C 
HETATM    6  C   UNL     1       3.110  30.362  50.254  1.00  0.00     0.118 C 
HETATM    7  N   UNL     1       3.751  29.243  50.965  1.00  0.00    -0.365 N 
HETATM    8  N   UNL     1       3.921  26.749  48.455  1.00  0.00    -0.181 NA
HETATM    9  C   UNL     1       4.716  26.210  49.384  1.00  0.00     0.160 C 
HETATM   10  H   UNL     1       4.451  29.568  51.636  1.00  0.00     0.161 HD
ENDROOT
BRANCH   1  11
HETATM   11  C   UNL     1       5.518  26.638  51.776  1.00  0.00     0.261 C 
HETATM   12  N   UNL     1       5.516  25.286  52.065  1.00  0.00    -0.323 N 
HETATM   13  H   UNL     1       5.058  24.698  51.378  1.00  0.00     0.169 HD
HETATM   14  O   UNL     1       6.117  27.510  52.394  1.00  0.00    -0.267 OA
BRANCH  12  15
HETATM   15  C   UNL     1       6.203  24.626  53.103  1.00  0.00     0.035 A 
HETATM   16  C   UNL     1       7.155  23.624  52.892  1.00  0.00     0.039 A 
HETATM   17  C   UNL     1       7.784  22.980  53.974  1.00  0.00    -0.028 A 
HETATM   18  C   UNL     1       7.435  23.352  55.280  1.00  0.00     0.010 A 
HETATM   19  C   UNL     1       6.502  24.364  55.499  1.00  0.00     0.003 A 
HETATM   20  C   UNL     1       5.895  25.001  54.415  1.00  0.00     0.029 A 
BRANCH  17  21
HETATM   21  C   UNL     1       8.786  21.876  53.710  1.00  0.00     0.147 C 
HETATM   22  C   UNL     1       8.156  20.697  52.983  1.00  0.00     0.044 C 
BRANCH  21  23
HETATM   23  O   UNL     1       9.356  21.412  54.933  1.00  0.00    -0.391 OA
HETATM   24  H   UNL     1       8.929  20.563  55.134  1.00  0.00     0.210 HD
ENDBRANCH  21  23
ENDBRANCH  17  21
ENDBRANCH  12  15
ENDBRANCH   1  11
BRANCH   4  25
HETATM   25  C   UNL     1       1.374  28.028  47.727  1.00  0.00     0.409 C 
HETATM   26  F   UNL     1       1.683  27.444  46.552  1.00  0.00    -0.169 F 
HETATM   27  F   UNL     1       0.836  27.090  48.541  1.00  0.00    -0.169 F 
HETATM   28  F   UNL     1       0.378  28.916  47.456  1.00  0.00    -0.169 F 
ENDBRANCH   4  25
BRANCH   6  29
HETATM   29  C   UNL     1       4.084  31.253  49.493  1.00  0.00    -0.035 A 
HETATM   30  C   UNL     1       5.439  31.257  49.879  1.00  0.00     0.009 A 
HETATM   31  C   UNL     1       6.371  32.079  49.241  1.00  0.00     0.001 A 
HETATM   32  C   UNL     1       5.969  32.906  48.197  1.00  0.00     0.000 A 
HETATM   33  C   UNL     1       4.639  32.909  47.791  1.00  0.00     0.001 A 
HETATM   34  C   UNL     1       3.705  32.089  48.431  1.00  0.00     0.009 A 
ENDBRANCH   6  29
TORSDOF 6
ENDMDL
MODEL 7
REMARK VINA RESULT:      -9.1      5.166      8.754
REMARK  6 active torsions:
REMARK  status: ('A' for Active; 'I' for Inactive)
REMARK    1  A    between atoms: C_2  and  O_3 
REMARK    2  A    between atoms: C_2  and  C_4 
REMARK    3  A    between atoms: C_6  and  N_7 
REMARK       I    between atoms: N_7  and  C_8 
REMARK    4  A    between atoms: C_8  and  C_9 
REMARK    5  A    between atoms: C_12  and  C_13 
REMARK    6  A    between atoms: C_18  and  C_19 
ROOT
HETATM    1  C   UNL     1       5.146  27.589  51.599  1.00  0.00     0.096 C 
HETATM    2  C   UNL     1       5.069  28.025  50.289  1.00  0.00     0.138 C 
HETATM    3  N   UNL     1       4.815  29.377  50.359  1.00  0.00    -0.240 N 
HETATM    4  C   UNL     1       4.642  30.241  49.205  1.00  0.00     0.221 C 
HETATM    5  C   UNL     1       5.177  29.546  47.940  1.00  0.00     0.066 C 
HETATM    6  C   UNL     1       4.715  28.083  47.866  1.00  0.00     0.118 C 
HETATM    7  N   UNL     1       5.155  27.386  49.086  1.00  0.00    -0.365 N 
HETATM    8  N   UNL     1       4.549  29.805  51.602  1.00  0.00    -0.181 NA
HETATM    9  C   UNL     1       4.777  28.726  52.356  1.00  0.00     0.160 C 
HETATM   10  H   UNL     1       4.942  26.387  49.052  1.00  0.00     0.161 HD
ENDROOT
BRANCH   1  11
HETATM   11  C   UNL     1       5.483  26.277  52.124  1.00  0.00     0.261 C 
HETATM   12  N   UNL     1       6.317  26.328  53.226  1.00  0.00    -0.323 N 
HETATM   13  H   UNL     1       6.530  27.260  53.565  1.00  0.00     0.169 HD
HETATM   14  O   UNL     1       4.998  25.267  51.628  1.00  0.00    -0.267 OA
BRANCH  12  15
HETATM   15  C   UNL     1       6.768  25.251  54.015  1.00  0.00     0.035 A 
HETATM   16  C   UNL     1       7.571  24.214  53.530  1.00  0.00     0.039 A 
HETATM   17  C   UNL     1       7.962  23.148  54.362  1.00  0.00    -0.028 A 
HETATM   18  C   UNL     1       7.525  23.133  55.694  1.00  0.00     0.010 A 
HETATM   19  C   UNL     1       6.740  24.172  56.190  1.00  0.00     0.003 A 
HETATM   20  C   UNL     1       6.370  25.228  55.355  1.00  0.00     0.029 A 
BRANCH  17  21
HETATM   21  C   UNL     1       8.806  22.026  53.796  1.00  0.00     0.147 C 
HETATM   22  C   UNL     1       7.979  21.055  52.965  1.00  0.00     0.044 C 
BRANCH  21  23
HETATM   23  O   UNL     1       9.448  21.303  54.846  1.00  0.00    -0.391 OA
HETATM   24  H   UNL     1       9.975  21.949  55.346  1.00  0.00     0.210 HD
ENDBRANCH  21  23
ENDBRANCH  17  21
ENDBRANCH  12  15
ENDBRANCH   1  11
BRANCH   4  25
HETATM   25  C   UNL     1       5.348  31.567  49.386  1.00  0.00     0.409 C 
HETATM   26  F   UNL     1       4.618  32.489  50.045  1.00  0.00    -0.169 F 
HETATM   27  F   UNL     1       6.536  31.433  50.019  1.00  0.00    -0.169 F 
HETATM   28  F   UNL     1       5.623  32.106  48.166  1.00  0.00    -0.169 F 
ENDBRANCH   4  25
BRANCH   6  29
HETATM   29  C   UNL     1       3.224  27.950  47.579  1.00  0.00    -0.035 A 
HETATM   30  C   UNL     1       2.568  29.003  46.911  1.00  0.00     0.009 A 
HETATM   31  C   UNL     1       1.197  28.953  46.652  1.00  0.00     0.001 A 
HETATM   32  C   UNL     1       0.454  27.845  47.046  1.00  0.00     0.000 A 
HETATM   33  C   UNL     1       1.083  26.788  47.695  1.00  0.00     0.001 A 
HETATM   34  C   UNL     1       2.455  26.838  47.958  1.00  0.00     0.009 A 
ENDBRANCH   6  29
TORSDOF 6
ENDMDL
MODEL 8
REMARK VINA RESULT:      -8.8      5.272      8.672
REMARK  6 active torsions:
REMARK  status: ('A' for Active; 'I' for Inactive)
REMARK    1  A    between atoms: C_2  and  O_3 
REMARK    2  A    between atoms: C_2  and  C_4 
REMARK    3  A    between atoms: C_6  and  N_7 
REMARK       I    between atoms: N_7  and  C_8 
REMARK    4  A    between atoms: C_8  and  C_9 
REMARK    5  A    between atoms: C_12  and  C_13 
REMARK    6  A    between atoms: C_18  and  C_19 
ROOT
HETATM    1  C   UNL     1       4.841  26.987  50.582  1.00  0.00     0.096 C 
HETATM    2  C   UNL     1       4.059  28.099  50.325  1.00  0.00     0.138 C 
HETATM    3  N   UNL     1       3.472  27.867  49.101  1.00  0.00    -0.240 N 
HETATM    4  C   UNL     1       2.574  28.791  48.432  1.00  0.00     0.221 C 
HETATM    5  C   UNL     1       2.058  29.842  49.432  1.00  0.00     0.066 C 
HETATM    6  C   UNL     1       3.195  30.390  50.306  1.00  0.00     0.118 C 
HETATM    7  N   UNL     1       3.844  29.264  50.999  1.00  0.00    -0.365 N 
HETATM    8  N   UNL     1       3.951  26.780  48.477  1.00  0.00    -0.181 NA
HETATM    9  C   UNL     1       4.761  26.233  49.388  1.00  0.00     0.160 C 
HETATM   10  H   UNL     1       4.558  29.582  51.658  1.00  0.00     0.161 HD
ENDROOT
BRANCH   1  11
HETATM   11  C   UNL     1       5.611  26.646  51.766  1.00  0.00     0.261 C 
HETATM   12  N   UNL     1       5.770  25.284  51.941  1.00  0.00    -0.323 N 
HETATM   13  H   UNL     1       5.395  24.706  51.196  1.00  0.00     0.169 HD
HETATM   14  O   UNL     1       6.093  27.528  52.468  1.00  0.00    -0.267 OA
BRANCH  12  15
HETATM   15  C   UNL     1       6.521  24.625  52.934  1.00  0.00     0.035 A 
HETATM   16  C   UNL     1       6.340  24.823  54.306  1.00  0.00     0.039 A 
HETATM   17  C   UNL     1       7.145  24.157  55.249  1.00  0.00    -0.028 A 
HETATM   18  C   UNL     1       8.148  23.291  54.792  1.00  0.00     0.010 A 
HETATM   19  C   UNL     1       8.323  23.073  53.427  1.00  0.00     0.003 A 
HETATM   20  C   UNL     1       7.508  23.733  52.504  1.00  0.00     0.029 A 
BRANCH  17  21
HETATM   21  C   UNL     1       6.942  24.420  56.726  1.00  0.00     0.147 C 
HETATM   22  C   UNL     1       6.959  25.907  57.048  1.00  0.00     0.044 C 
BRANCH  21  23
HETATM   23  O   UNL     1       7.955  23.771  57.495  1.00  0.00    -0.391 OA
HETATM   24  H   UNL     1       8.786  24.241  57.312  1.00  0.00     0.210 HD
ENDBRANCH  21  23
ENDBRANCH  17  21
ENDBRANCH  12  15
ENDBRANCH   1  11
BRANCH   4  25
HETATM   25  C   UNL     1       1.397  28.076  47.804  1.00  0.00     0.409 C 
HETATM   26  F   UNL     1       0.882  27.095  48.573  1.00  0.00    -0.169 F 
HETATM   27  F   UNL     1       0.399  28.925  47.470  1.00  0.00    -0.169 F 
HETATM   28  F   UNL     1       1.795  27.478  46.647  1.00  0.00    -0.169 F 
ENDBRANCH   4  25
BRANCH   6  29
HETATM   29  C   UNL     1       4.160  31.278  49.529  1.00  0.00    -0.035 A 
HETATM   30  C   UNL     1       5.513  31.310  49.920  1.00  0.00     0.009 A 
HETATM   31  C   UNL     1       6.435  32.132  49.268  1.00  0.00     0.001 A 
HETATM   32  C   UNL     1       6.027  32.931  48.205  1.00  0.00     0.000 A 
HETATM   33  C   UNL     1       4.698  32.905  47.793  1.00  0.00     0.001 A 
HETATM   34  C   UNL     1       3.774  32.085  48.447  1.00  0.00     0.009 A 
ENDBRANCH   6  29
TORSDOF 6
ENDMDL
MODEL 9
REMARK VINA RESULT:      -8.6      7.067     12.065
REMARK  6 active torsions:
REMARK  status: ('A' for Active; 'I' for Inactive)
REMARK    1  A    between atoms: C_2  and  O_3 
REMARK    2  A    between atoms: C_2  and  C_4 
REMARK    3  A    between atoms: C_6  and  N_7 
REMARK       I    between atoms: N_7  and  C_8 
REMARK    4  A    between atoms: C_8  and  C_9 
REMARK    5  A    between atoms: C_12  and  C_13 
REMARK    6  A    between atoms: C_18  and  C_19 
ROOT
HETATM    1  C   UNL     1       6.402  32.409  62.574  1.00  0.00     0.096 C 
HETATM    2  C   UNL     1       6.032  33.736  62.699  1.00  0.00     0.138 C 
HETATM    3  N   UNL     1       4.969  33.746  63.576  1.00  0.00    -0.240 N 
HETATM    4  C   UNL     1       4.254  34.942  63.986  1.00  0.00     0.221 C 
HETATM    5  C   UNL     1       5.083  36.195  63.646  1.00  0.00     0.066 C 
HETATM    6  C   UNL     1       5.669  36.111  62.230  1.00  0.00     0.118 C 
HETATM    7  N   UNL     1       6.482  34.888  62.124  1.00  0.00    -0.365 N 
HETATM    8  N   UNL     1       4.519  32.520  63.881  1.00  0.00    -0.181 NA
HETATM    9  C   UNL     1       5.405  31.710  63.295  1.00  0.00     0.160 C 
HETATM   10  H   UNL     1       6.961  34.825  61.223  1.00  0.00     0.161 HD
ENDROOT
BRANCH   1  11
HETATM   11  C   UNL     1       7.515  31.819  61.852  1.00  0.00     0.261 C 
HETATM   12  N   UNL     1       7.245  31.601  60.513  1.00  0.00    -0.323 N 
HETATM   13  H   UNL     1       6.343  31.939  60.194  1.00  0.00     0.169 HD
HETATM   14  O   UNL     1       8.581  31.610  62.419  1.00  0.00    -0.267 OA
BRANCH  12  15
HETATM   15  C   UNL     1       8.125  31.118  59.524  1.00  0.00     0.035 A 
HETATM   16  C   UNL     1       7.929  29.923  58.825  1.00  0.00     0.039 A 
HETATM   17  C   UNL     1       8.863  29.479  57.870  1.00  0.00    -0.028 A 
HETATM   18  C   UNL     1      10.008  30.252  57.632  1.00  0.00     0.010 A 
HETATM   19  C   UNL     1      10.201  31.454  58.311  1.00  0.00     0.003 A 
HETATM   20  C   UNL     1       9.260  31.886  59.247  1.00  0.00     0.029 A 
BRANCH  17  21
HETATM   21  C   UNL     1       8.636  28.165  57.154  1.00  0.00     0.147 C 
HETATM   22  C   UNL     1       7.756  28.331  55.923  1.00  0.00     0.044 C 
BRANCH  21  23
HETATM   23  O   UNL     1       8.028  27.215  58.030  1.00  0.00    -0.391 OA
HETATM   24  H   UNL     1       8.216  27.514  58.936  1.00  0.00     0.210 HD
ENDBRANCH  21  23
ENDBRANCH  17  21
ENDBRANCH  12  15
ENDBRANCH   1  11
BRANCH   4  25
HETATM   25  C   UNL     1       3.946  34.930  65.468  1.00  0.00     0.409 C 
HETATM   26  F   UNL     1       2.702  34.502  65.763  1.00  0.00    -0.169 F 
HETATM   27  F   UNL     1       4.831  34.187  66.170  1.00  0.00    -0.169 F 
HETATM   28  F   UNL     1       4.035  36.197  65.959  1.00  0.00    -0.169 F 
ENDBRANCH   4  25
BRANCH   6  29
HETATM   29  C   UNL     1       4.607  36.246  61.144  1.00  0.00    -0.035 A 
HETATM   30  C   UNL     1       3.867  37.443  61.068  1.00  0.00     0.009 A 
HETATM   31  C   UNL     1       2.857  37.609  60.117  1.00  0.00     0.001 A 
HETATM   32  C   UNL     1       2.574  36.588  59.216  1.00  0.00     0.000 A 
HETATM   33  C   UNL     1       3.300  35.403  59.265  1.00  0.00     0.001 A 
HETATM   34  C   UNL     1       4.309  35.234  60.218  1.00  0.00     0.009 A 
ENDBRANCH   6  29
TORSDOF 6
ENDMDL
MODEL 10
REMARK VINA RESULT:      -8.4      5.008      9.125
REMARK  6 active torsions:
REMARK  status: ('A' for Active; 'I' for Inactive)
REMARK    1  A    between atoms: C_2  and  O_3 
REMARK    2  A    between atoms: C_2  and  C_4 
REMARK    3  A    between atoms: C_6  and  N_7 
REMARK       I    between atoms: N_7  and  C_8 
REMARK    4  A    between atoms: C_8  and  C_9 
REMARK    5  A    between atoms: C_12  and  C_13 
REMARK    6  A    between atoms: C_18  and  C_19 
ROOT
HETATM    1  C   UNL     1       5.043  29.077  53.421  1.00  0.00     0.096 C 
HETATM    2  C   UNL     1       5.359  28.892  54.755  1.00  0.00     0.138 C 
HETATM    3  N   UNL     1       4.832  29.979  55.417  1.00  0.00    -0.240 N 
HETATM    4  C   UNL     1       4.943  30.202  56.848  1.00  0.00     0.221 C 
HETATM    5  C   UNL     1       5.352  28.897  57.555  1.00  0.00     0.066 C 
HETATM    6  C   UNL     1       6.491  28.188  56.808  1.00  0.00     0.118 C 
HETATM    7  N   UNL     1       6.063  27.934  55.422  1.00  0.00    -0.365 N 
HETATM    8  N   UNL     1       4.360  30.928  54.594  1.00  0.00    -0.181 NA
HETATM    9  C   UNL     1       4.464  30.368  53.386  1.00  0.00     0.160 C 
HETATM   10  H   UNL     1       6.756  27.391  54.902  1.00  0.00     0.161 HD
ENDROOT
BRANCH   1  11
HETATM   11  C   UNL     1       5.266  28.203  52.283  1.00  0.00     0.261 C 
HETATM   12  N   UNL     1       4.661  28.650  51.123  1.00  0.00    -0.323 N 
HETATM   13  H   UNL     1       4.203  29.553  51.194  1.00  0.00     0.169 HD
HETATM   14  O   UNL     1       5.976  27.210  52.392  1.00  0.00    -0.267 OA
BRANCH  12  15
HETATM   15  C   UNL     1       4.742  28.085  49.835  1.00  0.00     0.035 A 
HETATM   16  C   UNL     1       4.070  26.919  49.453  1.00  0.00     0.039 A 
HETATM   17  C   UNL     1       4.219  26.386  48.159  1.00  0.00    -0.028 A 
HETATM   18  C   UNL     1       5.065  27.038  47.250  1.00  0.00     0.010 A 
HETATM   19  C   UNL     1       5.723  28.211  47.617  1.00  0.00     0.003 A 
HETATM   20  C   UNL     1       5.556  28.733  48.901  1.00  0.00     0.029 A 
BRANCH  17  21
HETATM   21  C   UNL     1       3.502  25.106  47.789  1.00  0.00     0.147 C 
HETATM   22  C   UNL     1       2.411  25.343  46.754  1.00  0.00     0.044 C 
BRANCH  21  23
HETATM   23  O   UNL     1       2.918  24.505  48.945  1.00  0.00    -0.391 OA
HETATM   24  H   UNL     1       3.044  25.133  49.676  1.00  0.00     0.210 HD
ENDBRANCH  21  23
ENDBRANCH  17  21
ENDBRANCH  12  15
ENDBRANCH   1  11
BRANCH   4  25
HETATM   25  C   UNL     1       3.646  30.709  57.439  1.00  0.00     0.409 C 
HETATM   26  F   UNL     1       3.462  32.036  57.295  1.00  0.00    -0.169 F 
HETATM   27  F   UNL     1       2.567  30.071  56.931  1.00  0.00    -0.169 F 
HETATM   28  F   UNL     1       3.634  30.470  58.780  1.00  0.00    -0.169 F 
ENDBRANCH   4  25
BRANCH   6  29
HETATM   29  C   UNL     1       7.819  28.927  56.921  1.00  0.00    -0.035 A 
HETATM   30  C   UNL     1       8.663  28.977  55.794  1.00  0.00     0.009 A 
HETATM   31  C   UNL     1       9.907  29.609  55.849  1.00  0.00     0.001 A 
HETATM   32  C   UNL     1      10.330  30.213  57.029  1.00  0.00     0.000 A 
HETATM   33  C   UNL     1       9.508  30.187  58.150  1.00  0.00     0.001 A 
HETATM   34  C   UNL     1       8.264  29.552  58.097  1.00  0.00     0.009 A 
ENDBRANCH   6  29
TORSDOF 6
ENDMDL
