MODEL 1
REMARK VINA RESULT:     -10.1      0.000      0.000
REMARK  5 active torsions:
REMARK  status: ('A' for Active; 'I' for Inactive)
REMARK       I    between atoms: C_2  and  N_3 
REMARK    1  A    between atoms: N_3  and  C_4 
REMARK    2  A    between atoms: N_7  and  C_8 
REMARK    3  A    between atoms: C_8  and  C_9 
REMARK       I    between atoms: C_9  and  N_10 
REMARK    4  A    between atoms: C_13  and  O_14 
REMARK    5  A    between atoms: C_13  and  C_15 
ROOT
HETATM    1  C   UNL     1       5.329  27.923  54.669  1.00  0.00     0.238 C 
HETATM    2  N   UNL     1       6.095  27.024  55.425  1.00  0.00    -0.350 N 
HETATM    3  C   UNL     1       7.491  26.727  55.114  1.00  0.00     0.129 C 
HETATM    4  C   UNL     1       8.216  26.077  56.282  1.00  0.00     0.063 C 
HETATM    5  C   UNL     1       7.512  24.780  56.712  1.00  0.00     0.088 C 
HETATM    6  C   UNL     1       6.088  25.170  57.142  1.00  0.00     0.063 C 
HETATM    7  C   UNL     1       5.324  25.985  56.103  1.00  0.00     0.129 C 
HETATM    8  O   UNL     1       4.135  28.119  54.920  1.00  0.00    -0.272 OA
ENDROOT
BRANCH   1   9
HETATM    9  C   UNL     1       5.963  28.610  53.469  1.00  0.00     0.231 C 
BRANCH   9  10
HETATM   10  N   UNL     1       5.551  27.989  52.213  1.00  0.00    -0.347 N 
HETATM   11  C   UNL     1       5.347  28.634  51.007  1.00  0.00     0.047 A 
HETATM   12  C   UNL     1       4.970  27.658  50.072  1.00  0.00     0.019 A 
HETATM   13  C   UNL     1       5.456  29.987  50.651  1.00  0.00     0.031 A 
HETATM   14  C   UNL     1       4.671  28.035  48.734  1.00  0.00     0.047 A 
HETATM   15  C   UNL     1       4.942  26.413  50.768  1.00  0.00     0.033 A 
HETATM   16  C   UNL     1       4.805  29.384  48.385  1.00  0.00     0.030 A 
HETATM   17  C   UNL     1       5.186  30.339  49.328  1.00  0.00     0.005 A 
HETATM   18  C   UNL     1       5.277  26.650  52.078  1.00  0.00     0.092 A 
BRANCH  14  19
HETATM   19  N   UNL     1       4.305  27.014  47.836  1.00  0.00    -0.327 N 
HETATM   20  C   UNL     1       3.108  26.555  47.376  1.00  0.00     0.218 C 
HETATM   21  C   UNL     1       1.813  27.002  47.988  1.00  0.00     0.117 C 
HETATM   22  O   UNL     1       3.110  25.716  46.471  1.00  0.00    -0.274 OA
HETATM   23  H   UNL     1       5.071  26.479  47.445  1.00  0.00     0.169 HD
ENDBRANCH  14  19
ENDBRANCH   9  10
ENDBRANCH   1   9
BRANCH   5  24
HETATM   24  O   UNL     1       8.174  24.308  57.898  1.00  0.00    -0.385 OA
HETATM   25  H   UNL     1       8.824  23.637  57.623  1.00  0.00     0.211 HD
ENDBRANCH   5  24
BRANCH   5  26
HETATM   26  C   UNL     1       7.664  23.675  55.661  1.00  0.00    -0.024 A 
HETATM   27  C   UNL     1       7.770  22.335  56.093  1.00  0.00     0.012 A 
HETATM   28  C   UNL     1       7.965  21.287  55.190  1.00  0.00     0.024 A 
HETATM   29  C   UNL     1       8.045  21.560  53.830  1.00  0.00     0.034 A 
HETATM   30 CL   UNL     1       8.304  20.279  52.713  1.00  0.00    -0.084 Cl
HETATM   31  C   UNL     1       7.907  22.866  53.371  1.00  0.00     0.024 A 
HETATM   32  C   UNL     1       7.704  23.914  54.280  1.00  0.00     0.012 A 
ENDBRANCH   5  26
TORSDOF 5
ENDMDL
MODEL 2
REMARK VINA RESULT:     -10.0      5.019      8.668
REMARK  5 active torsions:
REMARK  status: ('A' for Active; 'I' for Inactive)
REMARK       I    between atoms: C_2  and  N_3 
REMARK    1  A    between atoms: N_3  and  C_4 
REMARK    2  A    between atoms: N_7  and  C_8 
REMARK    3  A    between atoms: C_8  and  C_9 
REMARK       I    between atoms: C_9  and  N_10 
REMARK    4  A    between atoms: C_13  and  O_14 
REMARK    5  A    between atoms: C_13  and  C_15 
ROOT
HETATM    1  C   UNL     1       8.388  28.945  56.110  1.00  0.00     0.238 C 
HETATM    2  N   UNL     1       7.512  28.120  55.389  1.00  0.00    -0.350 N 
HETATM    3  C   UNL     1       6.636  27.147  56.039  1.00  0.00     0.129 C 
HETATM    4  C   UNL     1       5.509  26.689  55.126  1.00  0.00     0.063 C 
HETATM    5  C   UNL     1       6.066  26.075  53.832  1.00  0.00     0.088 C 
HETATM    6  C   UNL     1       6.878  27.178  53.132  1.00  0.00     0.063 C 
HETATM    7  C   UNL     1       7.931  27.834  54.019  1.00  0.00     0.129 C 
HETATM    8  O   UNL     1       9.156  29.723  55.536  1.00  0.00    -0.272 OA
ENDROOT
BRANCH   1   9
HETATM    9  C   UNL     1       8.445  28.821  57.625  1.00  0.00     0.231 C 
BRANCH   9  10
HETATM   10  N   UNL     1       7.737  29.916  58.282  1.00  0.00    -0.347 N 
HETATM   11  C   UNL     1       8.131  30.573  59.435  1.00  0.00     0.047 A 
HETATM   12  C   UNL     1       7.165  31.555  59.703  1.00  0.00     0.019 A 
HETATM   13  C   UNL     1       9.244  30.392  60.268  1.00  0.00     0.031 A 
HETATM   14  C   UNL     1       7.296  32.382  60.851  1.00  0.00     0.047 A 
HETATM   15  C   UNL     1       6.177  31.448  58.680  1.00  0.00     0.033 A 
HETATM   16  C   UNL     1       8.422  32.209  61.663  1.00  0.00     0.030 A 
HETATM   17  C   UNL     1       9.374  31.229  61.377  1.00  0.00     0.005 A 
HETATM   18  C   UNL     1       6.540  30.424  57.841  1.00  0.00     0.092 A 
BRANCH  14  19
HETATM   19  N   UNL     1       6.302  33.357  61.069  1.00  0.00    -0.327 N 
HETATM   20  C   UNL     1       5.154  33.377  61.802  1.00  0.00     0.218 C 
HETATM   21  C   UNL     1       4.600  32.128  62.421  1.00  0.00     0.117 C 
HETATM   22  O   UNL     1       4.545  34.445  61.906  1.00  0.00    -0.274 OA
HETATM   23  H   UNL     1       6.431  34.232  60.576  1.00  0.00     0.169 HD
ENDBRANCH  14  19
ENDBRANCH   9  10
ENDBRANCH   1   9
BRANCH   5  24
HETATM   24  O   UNL     1       4.945  25.797  52.975  1.00  0.00    -0.385 OA
HETATM   25  H   UNL     1       4.444  25.065  53.376  1.00  0.00     0.211 HD
ENDBRANCH   5  24
BRANCH   5  26
HETATM   26  C   UNL     1       6.757  24.732  54.091  1.00  0.00    -0.024 A 
HETATM   27  C   UNL     1       7.397  24.078  53.016  1.00  0.00     0.012 A 
HETATM   28  C   UNL     1       7.998  22.826  53.173  1.00  0.00     0.024 A 
HETATM   29  C   UNL     1       7.982  22.209  54.417  1.00  0.00     0.034 A 
HETATM   30 CL   UNL     1       8.702  20.661  54.615  1.00  0.00    -0.084 Cl
HETATM   31  C   UNL     1       7.392  22.846  55.504  1.00  0.00     0.024 A 
HETATM   32  C   UNL     1       6.796  24.104  55.344  1.00  0.00     0.012 A 
ENDBRANCH   5  26
TORSDOF 5
ENDMDL
MODEL 3
REMARK VINA RESULT:      -9.8      2.939      8.044
REMARK  5 active torsions:
REMARK  status: ('A' for Active; 'I' for Inactive)
REMARK       I    between atoms: C_2  and  N_3 
REMARK    1  A    between atoms: N_3  and  C_4 
REMARK    2  A    between atoms: N_7  and  C_8 
REMARK    3  A    between atoms: C_8  and  C_9 
REMARK       I    between atoms: C_9  and  N_10 
REMARK    4  A    between atoms: C_13  and  O_14 
REMARK    5  A    between atoms: C_13  and  C_15 
ROOT
HETATM    1  C   UNL     1       5.907  27.952  53.874  1.00  0.00     0.238 C 
HETATM    2  N   UNL     1       5.066  28.594  52.955  1.00  0.00    -0.350 N 
HETATM    3  C   UNL     1       3.677  28.190  52.746  1.00  0.00     0.129 C 
HETATM    4  C   UNL     1       2.865  29.264  52.040  1.00  0.00     0.063 C 
HETATM    5  C   UNL     1       3.490  29.624  50.684  1.00  0.00     0.088 C 
HETATM    6  C   UNL     1       4.904  30.156  50.975  1.00  0.00     0.063 C 
HETATM    7  C   UNL     1       5.756  29.225  51.832  1.00  0.00     0.129 C 
HETATM    8  O   UNL     1       7.092  28.278  53.997  1.00  0.00    -0.272 OA
ENDROOT
BRANCH   1   9
HETATM    9  C   UNL     1       5.368  26.780  54.680  1.00  0.00     0.231 C 
BRANCH   9  10
HETATM   10  N   UNL     1       6.081  25.543  54.375  1.00  0.00    -0.347 N 
HETATM   11  C   UNL     1       7.080  24.963  55.137  1.00  0.00     0.047 A 
HETATM   12  C   UNL     1       7.475  23.788  54.478  1.00  0.00     0.019 A 
HETATM   13  C   UNL     1       7.676  25.364  56.341  1.00  0.00     0.031 A 
HETATM   14  C   UNL     1       8.513  22.985  55.023  1.00  0.00     0.047 A 
HETATM   15  C   UNL     1       6.687  23.699  53.292  1.00  0.00     0.033 A 
HETATM   16  C   UNL     1       9.085  23.382  56.237  1.00  0.00     0.030 A 
HETATM   17  C   UNL     1       8.675  24.552  56.879  1.00  0.00     0.005 A 
HETATM   18  C   UNL     1       5.863  24.795  53.245  1.00  0.00     0.092 A 
BRANCH  14  19
HETATM   19  N   UNL     1       8.865  21.813  54.326  1.00  0.00    -0.327 N 
HETATM   20  C   UNL     1       8.656  20.487  54.556  1.00  0.00     0.218 C 
HETATM   21  C   UNL     1       8.113  19.997  55.866  1.00  0.00     0.117 C 
HETATM   22  O   UNL     1       8.974  19.682  53.676  1.00  0.00    -0.274 OA
HETATM   23  H   UNL     1       9.401  21.952  53.478  1.00  0.00     0.169 HD
ENDBRANCH  14  19
ENDBRANCH   9  10
ENDBRANCH   1   9
BRANCH   5  24
HETATM   24  O   UNL     1       2.747  30.733  50.151  1.00  0.00    -0.385 OA
HETATM   25  H   UNL     1       3.161  30.986  49.307  1.00  0.00     0.211 HD
ENDBRANCH   5  24
BRANCH   5  26
HETATM   26  C   UNL     1       3.351  28.482  49.671  1.00  0.00    -0.024 A 
HETATM   27  C   UNL     1       2.086  28.235  49.094  1.00  0.00     0.012 A 
HETATM   28  C   UNL     1       1.880  27.176  48.206  1.00  0.00     0.024 A 
HETATM   29  C   UNL     1       2.943  26.348  47.868  1.00  0.00     0.034 A 
HETATM   30 CL   UNL     1       2.695  25.030  46.792  1.00  0.00    -0.084 Cl
HETATM   31  C   UNL     1       4.209  26.589  48.392  1.00  0.00     0.024 A 
HETATM   32  C   UNL     1       4.414  27.656  49.277  1.00  0.00     0.012 A 
ENDBRANCH   5  26
TORSDOF 5
ENDMDL
MODEL 4
REMARK VINA RESULT:      -9.5      1.335      2.069
REMARK  5 active torsions:
REMARK  status: ('A' for Active; 'I' for Inactive)
REMARK       I    between atoms: C_2  and  N_3 
REMARK    1  A    between atoms: N_3  and  C_4 
REMARK    2  A    between atoms: N_7  and  C_8 
REMARK    3  A    between atoms: C_8  and  C_9 
REMARK       I    between atoms: C_9  and  N_10 
REMARK    4  A    between atoms: C_13  and  O_14 
REMARK    5  A    between atoms: C_13  and  C_15 
ROOT
HETATM    1  C   UNL     1       5.050  28.607  55.465  1.00  0.00     0.238 C 
HETATM    2  N   UNL     1       5.887  27.714  56.148  1.00  0.00    -0.350 N 
HETATM    3  C   UNL     1       7.292  27.526  55.792  1.00  0.00     0.129 C 
HETATM    4  C   UNL     1       8.083  26.853  56.904  1.00  0.00     0.063 C 
HETATM    5  C   UNL     1       7.472  25.490  57.264  1.00  0.00     0.088 C 
HETATM    6  C   UNL     1       6.036  25.761  57.746  1.00  0.00     0.063 C 
HETATM    7  C   UNL     1       5.199  26.588  56.775  1.00  0.00     0.129 C 
HETATM    8  O   UNL     1       3.852  28.711  55.751  1.00  0.00    -0.272 OA
ENDROOT
BRANCH   1   9
HETATM    9  C   UNL     1       5.611  29.406  54.299  1.00  0.00     0.231 C 
BRANCH   9  10
HETATM   10  N   UNL     1       4.922  29.093  53.050  1.00  0.00    -0.347 N 
HETATM   11  C   UNL     1       5.112  27.968  52.268  1.00  0.00     0.047 A 
HETATM   12  C   UNL     1       4.242  28.072  51.172  1.00  0.00     0.019 A 
HETATM   13  C   UNL     1       5.971  26.870  52.420  1.00  0.00     0.031 A 
HETATM   14  C   UNL     1       4.231  27.058  50.176  1.00  0.00     0.047 A 
HETATM   15  C   UNL     1       3.540  29.305  51.322  1.00  0.00     0.033 A 
HETATM   16  C   UNL     1       5.076  25.956  50.349  1.00  0.00     0.030 A 
HETATM   17  C   UNL     1       5.931  25.868  51.449  1.00  0.00     0.005 A 
HETATM   18  C   UNL     1       3.993  29.917  52.464  1.00  0.00     0.092 A 
BRANCH  14  19
HETATM   19  N   UNL     1       3.333  27.210  49.101  1.00  0.00    -0.327 N 
HETATM   20  C   UNL     1       3.451  27.728  47.847  1.00  0.00     0.218 C 
HETATM   21  C   UNL     1       4.671  28.497  47.431  1.00  0.00     0.117 C 
HETATM   22  O   UNL     1       2.503  27.597  47.068  1.00  0.00    -0.274 OA
HETATM   23  H   UNL     1       2.387  26.890  49.273  1.00  0.00     0.169 HD
ENDBRANCH  14  19
ENDBRANCH   9  10
ENDBRANCH   1   9
BRANCH   5  24
HETATM   24  O   UNL     1       8.189  24.989  58.405  1.00  0.00    -0.385 OA
HETATM   25  H   UNL     1       8.327  25.735  59.015  1.00  0.00     0.211 HD
ENDBRANCH   5  24
BRANCH   5  26
HETATM   26  C   UNL     1       7.668  24.464  56.144  1.00  0.00    -0.024 A 
HETATM   27  C   UNL     1       8.809  23.633  56.174  1.00  0.00     0.012 A 
HETATM   28  C   UNL     1       9.074  22.715  55.154  1.00  0.00     0.024 A 
HETATM   29  C   UNL     1       8.193  22.602  54.087  1.00  0.00     0.034 A 
HETATM   30 CL   UNL     1       8.521  21.489  52.818  1.00  0.00    -0.084 Cl
HETATM   31  C   UNL     1       7.041  23.381  54.048  1.00  0.00     0.024 A 
HETATM   32  C   UNL     1       6.774  24.295  55.076  1.00  0.00     0.012 A 
ENDBRANCH   5  26
TORSDOF 5
ENDMDL
MODEL 5
REMARK VINA RESULT:      -9.5      1.980      2.894
REMARK  5 active torsions:
REMARK  status: ('A' for Active; 'I' for Inactive)
REMARK       I    between atoms: C_2  and  N_3 
REMARK    1  A    between atoms: N_3  and  C_4 
REMARK    2  A    between atoms: N_7  and  C_8 
REMARK    3  A    between atoms: C_8  and  C_9 
REMARK       I    between atoms: C_9  and  N_10 
REMARK    4  A    between atoms: C_13  and  O_14 
REMARK    5  A    between atoms: C_13  and  C_15 
ROOT
HETATM    1  C   UNL     1       4.370  28.814  52.880  1.00  0.00     0.238 C 
HETATM    2  N   UNL     1       5.377  28.290  53.702  1.00  0.00    -0.350 N 
HETATM    3  C   UNL     1       6.729  28.022  53.214  1.00  0.00     0.129 C 
HETATM    4  C   UNL     1       7.730  27.867  54.348  1.00  0.00     0.063 C 
HETATM    5  C   UNL     1       7.309  26.738  55.302  1.00  0.00     0.088 C 
HETATM    6  C   UNL     1       5.938  27.131  55.876  1.00  0.00     0.063 C 
HETATM    7  C   UNL     1       4.896  27.481  54.819  1.00  0.00     0.129 C 
HETATM    8  O   UNL     1       3.221  28.985  53.301  1.00  0.00    -0.272 OA
ENDROOT
BRANCH   1   9
HETATM    9  C   UNL     1       4.681  29.106  51.419  1.00  0.00     0.231 C 
BRANCH   9  10
HETATM   10  N   UNL     1       3.540  28.812  50.557  1.00  0.00    -0.347 N 
HETATM   11  C   UNL     1       3.514  27.908  49.510  1.00  0.00     0.047 A 
HETATM   12  C   UNL     1       2.221  27.941  48.964  1.00  0.00     0.019 A 
HETATM   13  C   UNL     1       4.508  27.066  48.990  1.00  0.00     0.031 A 
HETATM   14  C   UNL     1       1.902  27.121  47.848  1.00  0.00     0.047 A 
HETATM   15  C   UNL     1       1.486  28.907  49.713  1.00  0.00     0.033 A 
HETATM   16  C   UNL     1       2.895  26.269  47.352  1.00  0.00     0.030 A 
HETATM   17  C   UNL     1       4.173  26.247  47.911  1.00  0.00     0.005 A 
HETATM   18  C   UNL     1       2.323  29.439  50.661  1.00  0.00     0.092 A 
BRANCH  14  19
HETATM   19  N   UNL     1       0.588  27.189  47.345  1.00  0.00    -0.327 N 
HETATM   20  C   UNL     1      -0.054  28.056  46.514  1.00  0.00     0.218 C 
HETATM   21  C   UNL     1       0.574  29.357  46.106  1.00  0.00     0.117 C 
HETATM   22  O   UNL     1      -1.195  27.773  46.140  1.00  0.00    -0.274 OA
HETATM   23  H   UNL     1      -0.041  26.461  47.664  1.00  0.00     0.169 HD
ENDBRANCH  14  19
ENDBRANCH   9  10
ENDBRANCH   1   9
BRANCH   5  24
HETATM   24  O   UNL     1       8.226  26.750  56.409  1.00  0.00    -0.385 OA
HETATM   25  H   UNL     1       8.631  27.635  56.445  1.00  0.00     0.211 HD
ENDBRANCH   5  24
BRANCH   5  26
HETATM   26  C   UNL     1       7.440  25.359  54.645  1.00  0.00    -0.024 A 
HETATM   27  C   UNL     1       7.188  24.208  55.423  1.00  0.00     0.012 A 
HETATM   28  C   UNL     1       7.344  22.922  54.899  1.00  0.00     0.024 A 
HETATM   29  C   UNL     1       7.743  22.763  53.579  1.00  0.00     0.034 A 
HETATM   30 CL   UNL     1       7.955  21.184  52.932  1.00  0.00    -0.084 Cl
HETATM   31  C   UNL     1       7.963  23.878  52.777  1.00  0.00     0.024 A 
HETATM   32  C   UNL     1       7.800  25.167  53.303  1.00  0.00     0.012 A 
ENDBRANCH   5  26
TORSDOF 5
ENDMDL
MODEL 6
REMARK VINA RESULT:      -9.5      6.588     10.002
REMARK  5 active torsions:
REMARK  status: ('A' for Active; 'I' for Inactive)
REMARK       I    between atoms: C_2  and  N_3 
REMARK    1  A    between atoms: N_3  and  C_4 
REMARK    2  A    between atoms: N_7  and  C_8 
REMARK    3  A    between atoms: C_8  and  C_9 
REMARK       I    between atoms: C_9  and  N_10 
REMARK    4  A    between atoms: C_13  and  O_14 
REMARK    5  A    between atoms: C_13  and  C_15 
ROOT
HETATM    1  C   UNL     1       8.868  30.399  58.456  1.00  0.00     0.238 C 
HETATM    2  N   UNL     1       8.183  29.668  57.475  1.00  0.00    -0.350 N 
HETATM    3  C   UNL     1       7.027  28.828  57.785  1.00  0.00     0.129 C 
HETATM    4  C   UNL     1       6.216  28.485  56.546  1.00  0.00     0.063 C 
HETATM    5  C   UNL     1       7.086  27.772  55.499  1.00  0.00     0.088 C 
HETATM    6  C   UNL     1       8.214  28.748  55.122  1.00  0.00     0.063 C 
HETATM    7  C   UNL     1       8.990  29.295  56.316  1.00  0.00     0.129 C 
HETATM    8  O   UNL     1       9.873  31.061  58.178  1.00  0.00    -0.272 OA
ENDROOT
BRANCH   1   9
HETATM    9  C   UNL     1       8.408  30.311  59.903  1.00  0.00     0.231 C 
BRANCH   9  10
HETATM   10  N   UNL     1       7.535  31.426  60.260  1.00  0.00    -0.347 N 
HETATM   11  C   UNL     1       7.483  32.068  61.484  1.00  0.00     0.047 A 
HETATM   12  C   UNL     1       6.515  33.080  61.382  1.00  0.00     0.019 A 
HETATM   13  C   UNL     1       8.195  31.852  62.673  1.00  0.00     0.031 A 
HETATM   14  C   UNL     1       6.227  33.901  62.505  1.00  0.00     0.047 A 
HETATM   15  C   UNL     1       5.984  33.005  60.060  1.00  0.00     0.033 A 
HETATM   16  C   UNL     1       6.959  33.691  63.680  1.00  0.00     0.030 A 
HETATM   17  C   UNL     1       7.921  32.683  63.760  1.00  0.00     0.005 A 
HETATM   18  C   UNL     1       6.608  31.972  59.407  1.00  0.00     0.092 A 
BRANCH  14  19
HETATM   19  N   UNL     1       5.252  34.905  62.346  1.00  0.00    -0.327 N 
HETATM   20  C   UNL     1       3.911  34.955  62.580  1.00  0.00     0.218 C 
HETATM   21  C   UNL     1       3.128  33.717  62.907  1.00  0.00     0.117 C 
HETATM   22  O   UNL     1       3.337  36.041  62.465  1.00  0.00    -0.274 OA
HETATM   23  H   UNL     1       5.585  35.781  61.961  1.00  0.00     0.169 HD
ENDBRANCH  14  19
ENDBRANCH   9  10
ENDBRANCH   1   9
BRANCH   5  24
HETATM   24  O   UNL     1       6.284  27.610  54.317  1.00  0.00    -0.385 OA
HETATM   25  H   UNL     1       6.870  27.289  53.608  1.00  0.00     0.211 HD
ENDBRANCH   5  24
BRANCH   5  26
HETATM   26  C   UNL     1       7.481  26.363  55.952  1.00  0.00    -0.024 A 
HETATM   27  C   UNL     1       6.980  25.253  55.238  1.00  0.00     0.012 A 
HETATM   28  C   UNL     1       7.258  23.942  55.633  1.00  0.00     0.024 A 
HETATM   29  C   UNL     1       8.057  23.715  56.746  1.00  0.00     0.034 A 
HETATM   30 CL   UNL     1       8.389  22.105  57.250  1.00  0.00    -0.084 Cl
HETATM   31  C   UNL     1       8.596  24.788  57.448  1.00  0.00     0.024 A 
HETATM   32  C   UNL     1       8.321  26.102  57.045  1.00  0.00     0.012 A 
ENDBRANCH   5  26
TORSDOF 5
ENDMDL
MODEL 7
REMARK VINA RESULT:      -9.1      4.217      7.370
REMARK  5 active torsions:
REMARK  status: ('A' for Active; 'I' for Inactive)
REMARK       I    between atoms: C_2  and  N_3 
REMARK    1  A    between atoms: N_3  and  C_4 
REMARK    2  A    between atoms: N_7  and  C_8 
REMARK    3  A    between atoms: C_8  and  C_9 
REMARK       I    between atoms: C_9  and  N_10 
REMARK    4  A    between atoms: C_13  and  O_14 
REMARK    5  A    between atoms: C_13  and  C_15 
ROOT
HETATM    1  C   UNL     1       7.805  28.220  55.581  1.00  0.00     0.238 C 
HETATM    2  N   UNL     1       7.161  27.238  54.817  1.00  0.00    -0.350 N 
HETATM    3  C   UNL     1       6.282  26.231  55.411  1.00  0.00     0.129 C 
HETATM    4  C   UNL     1       5.390  25.564  54.377  1.00  0.00     0.063 C 
HETATM    5  C   UNL     1       6.229  24.904  53.271  1.00  0.00     0.088 C 
HETATM    6  C   UNL     1       7.041  26.027  52.602  1.00  0.00     0.063 C 
HETATM    7  C   UNL     1       7.846  26.880  53.577  1.00  0.00     0.129 C 
HETATM    8  O   UNL     1       8.583  29.028  55.064  1.00  0.00    -0.272 OA
ENDROOT
BRANCH   1   9
HETATM    9  C   UNL     1       7.600  28.241  57.088  1.00  0.00     0.231 C 
BRANCH   9  10
HETATM   10  N   UNL     1       6.628  29.256  57.485  1.00  0.00    -0.347 N 
HETATM   11  C   UNL     1       6.859  30.328  58.329  1.00  0.00     0.047 A 
HETATM   12  C   UNL     1       5.657  31.046  58.426  1.00  0.00     0.019 A 
HETATM   13  C   UNL     1       8.012  30.731  59.017  1.00  0.00     0.031 A 
HETATM   14  C   UNL     1       5.586  32.201  59.252  1.00  0.00     0.047 A 
HETATM   15  C   UNL     1       4.700  30.354  57.625  1.00  0.00     0.033 A 
HETATM   16  C   UNL     1       6.749  32.607  59.916  1.00  0.00     0.030 A 
HETATM   17  C   UNL     1       7.936  31.882  59.803  1.00  0.00     0.005 A 
HETATM   18  C   UNL     1       5.315  29.254  57.083  1.00  0.00     0.092 A 
BRANCH  14  19
HETATM   19  N   UNL     1       4.358  32.887  59.308  1.00  0.00    -0.327 N 
HETATM   20  C   UNL     1       3.781  33.841  58.526  1.00  0.00     0.218 C 
HETATM   21  C   UNL     1       4.555  34.540  57.447  1.00  0.00     0.117 C 
HETATM   22  O   UNL     1       2.612  34.161  58.757  1.00  0.00    -0.274 OA
HETATM   23  H   UNL     1       3.763  32.656  60.094  1.00  0.00     0.169 HD
ENDBRANCH  14  19
ENDBRANCH   9  10
ENDBRANCH   1   9
BRANCH   5  24
HETATM   24  O   UNL     1       5.315  24.421  52.272  1.00  0.00    -0.385 OA
HETATM   25  H   UNL     1       5.554  24.843  51.427  1.00  0.00     0.211 HD
ENDBRANCH   5  24
BRANCH   5  26
HETATM   26  C   UNL     1       6.992  23.681  53.788  1.00  0.00    -0.024 A 
HETATM   27  C   UNL     1       6.980  23.406  55.173  1.00  0.00     0.012 A 
HETATM   28  C   UNL     1       7.700  22.338  55.715  1.00  0.00     0.024 A 
HETATM   29  C   UNL     1       8.439  21.514  54.876  1.00  0.00     0.034 A 
HETATM   30 CL   UNL     1       9.343  20.209  55.536  1.00  0.00    -0.084 Cl
HETATM   31  C   UNL     1       8.441  21.737  53.503  1.00  0.00     0.024 A 
HETATM   32  C   UNL     1       7.712  22.804  52.962  1.00  0.00     0.012 A 
ENDBRANCH   5  26
TORSDOF 5
ENDMDL
MODEL 8
REMARK VINA RESULT:      -8.9      8.027     10.860
REMARK  5 active torsions:
REMARK  status: ('A' for Active; 'I' for Inactive)
REMARK       I    between atoms: C_2  and  N_3 
REMARK    1  A    between atoms: N_3  and  C_4 
REMARK    2  A    between atoms: N_7  and  C_8 
REMARK    3  A    between atoms: C_8  and  C_9 
REMARK       I    between atoms: C_9  and  N_10 
REMARK    4  A    between atoms: C_13  and  O_14 
REMARK    5  A    between atoms: C_13  and  C_15 
ROOT
HETATM    1  C   UNL     1       7.975  31.182  60.464  1.00  0.00     0.238 C 
HETATM    2  N   UNL     1       6.751  31.633  60.977  1.00  0.00    -0.350 N 
HETATM    3  C   UNL     1       5.819  32.441  60.192  1.00  0.00     0.129 C 
HETATM    4  C   UNL     1       4.420  32.448  60.787  1.00  0.00     0.063 C 
HETATM    5  C   UNL     1       4.441  32.972  62.232  1.00  0.00     0.088 C 
HETATM    6  C   UNL     1       5.338  32.016  63.037  1.00  0.00     0.063 C 
HETATM    7  C   UNL     1       6.719  31.797  62.429  1.00  0.00     0.129 C 
HETATM    8  O   UNL     1       8.768  30.544  61.163  1.00  0.00    -0.272 OA
ENDROOT
BRANCH   1   9
HETATM    9  C   UNL     1       8.364  31.553  59.041  1.00  0.00     0.231 C 
BRANCH   9  10
HETATM   10  N   UNL     1       8.390  30.384  58.167  1.00  0.00    -0.347 N 
HETATM   11  C   UNL     1       7.293  29.757  57.603  1.00  0.00     0.047 A 
HETATM   12  C   UNL     1       7.776  28.688  56.833  1.00  0.00     0.019 A 
HETATM   13  C   UNL     1       5.920  30.030  57.701  1.00  0.00     0.031 A 
HETATM   14  C   UNL     1       6.864  27.842  56.145  1.00  0.00     0.047 A 
HETATM   15  C   UNL     1       9.195  28.691  56.973  1.00  0.00     0.033 A 
HETATM   16  C   UNL     1       5.499  28.137  56.231  1.00  0.00     0.030 A 
HETATM   17  C   UNL     1       5.038  29.208  56.998  1.00  0.00     0.005 A 
HETATM   18  C   UNL     1       9.539  29.722  57.811  1.00  0.00     0.092 A 
BRANCH  14  19
HETATM   19  N   UNL     1       7.403  26.788  55.382  1.00  0.00    -0.327 N 
HETATM   20  C   UNL     1       7.518  25.446  55.586  1.00  0.00     0.218 C 
HETATM   21  C   UNL     1       7.220  24.831  56.922  1.00  0.00     0.117 C 
HETATM   22  O   UNL     1       7.925  24.744  54.656  1.00  0.00    -0.274 OA
HETATM   23  H   UNL     1       7.815  27.055  54.496  1.00  0.00     0.169 HD
ENDBRANCH  14  19
ENDBRANCH   9  10
ENDBRANCH   1   9
BRANCH   5  24
HETATM   24  O   UNL     1       3.113  32.818  62.762  1.00  0.00    -0.385 OA
HETATM   25  H   UNL     1       2.688  33.694  62.745  1.00  0.00     0.211 HD
ENDBRANCH   5  24
BRANCH   5  26
HETATM   26  C   UNL     1       4.760  34.470  62.290  1.00  0.00    -0.024 A 
HETATM   27  C   UNL     1       5.506  34.966  63.381  1.00  0.00     0.012 A 
HETATM   28  C   UNL     1       5.783  36.328  63.520  1.00  0.00     0.024 A 
HETATM   29  C   UNL     1       5.327  37.223  62.561  1.00  0.00     0.034 A 
HETATM   30 CL   UNL     1       5.647  38.903  62.734  1.00  0.00    -0.084 Cl
HETATM   31  C   UNL     1       4.622  36.760  61.455  1.00  0.00     0.024 A 
HETATM   32  C   UNL     1       4.351  35.392  61.314  1.00  0.00     0.012 A 
ENDBRANCH   5  26
TORSDOF 5
ENDMDL
MODEL 9
REMARK VINA RESULT:      -8.9      3.543      8.308
REMARK  5 active torsions:
REMARK  status: ('A' for Active; 'I' for Inactive)
REMARK       I    between atoms: C_2  and  N_3 
REMARK    1  A    between atoms: N_3  and  C_4 
REMARK    2  A    between atoms: N_7  and  C_8 
REMARK    3  A    between atoms: C_8  and  C_9 
REMARK       I    between atoms: C_9  and  N_10 
REMARK    4  A    between atoms: C_13  and  O_14 
REMARK    5  A    between atoms: C_13  and  C_15 
ROOT
HETATM    1  C   UNL     1       5.051  28.164  54.637  1.00  0.00     0.238 C 
HETATM    2  N   UNL     1       4.686  28.390  53.303  1.00  0.00    -0.350 N 
HETATM    3  C   UNL     1       5.653  28.360  52.207  1.00  0.00     0.129 C 
HETATM    4  C   UNL     1       4.983  28.211  50.851  1.00  0.00     0.063 C 
HETATM    5  C   UNL     1       3.983  29.352  50.604  1.00  0.00     0.088 C 
HETATM    6  C   UNL     1       2.923  29.260  51.715  1.00  0.00     0.063 C 
HETATM    7  C   UNL     1       3.501  29.225  53.126  1.00  0.00     0.129 C 
HETATM    8  O   UNL     1       4.225  28.245  55.552  1.00  0.00    -0.272 OA
ENDROOT
BRANCH   1   9
HETATM    9  C   UNL     1       6.510  27.890  54.971  1.00  0.00     0.231 C 
BRANCH   9  10
HETATM   10  N   UNL     1       6.755  26.468  55.189  1.00  0.00    -0.347 N 
HETATM   11  C   UNL     1       7.173  25.552  54.241  1.00  0.00     0.047 A 
HETATM   12  C   UNL     1       7.287  24.310  54.884  1.00  0.00     0.019 A 
HETATM   13  C   UNL     1       7.459  25.699  52.876  1.00  0.00     0.031 A 
HETATM   14  C   UNL     1       7.683  23.162  54.145  1.00  0.00     0.047 A 
HETATM   15  C   UNL     1       6.906  24.516  56.243  1.00  0.00     0.033 A 
HETATM   16  C   UNL     1       7.988  23.325  52.789  1.00  0.00     0.030 A 
HETATM   17  C   UNL     1       7.874  24.570  52.168  1.00  0.00     0.005 A 
HETATM   18  C   UNL     1       6.564  25.837  56.394  1.00  0.00     0.092 A 
BRANCH  14  19
HETATM   19  N   UNL     1       7.788  21.942  54.842  1.00  0.00    -0.327 N 
HETATM   20  C   UNL     1       8.241  20.704  54.501  1.00  0.00     0.218 C 
HETATM   21  C   UNL     1       8.564  20.355  53.078  1.00  0.00     0.117 C 
HETATM   22  O   UNL     1       8.334  19.850  55.387  1.00  0.00    -0.274 OA
HETATM   23  H   UNL     1       7.445  21.952  55.795  1.00  0.00     0.169 HD
ENDBRANCH  14  19
ENDBRANCH   9  10
ENDBRANCH   1   9
BRANCH   5  24
HETATM   24  O   UNL     1       3.300  29.062  49.373  1.00  0.00    -0.385 OA
HETATM   25  H   UNL     1       3.787  29.506  48.656  1.00  0.00     0.211 HD
ENDBRANCH   5  24
BRANCH   5  26
HETATM   26  C   UNL     1       4.692  30.695  50.401  1.00  0.00    -0.024 A 
HETATM   27  C   UNL     1       4.263  31.811  51.152  1.00  0.00     0.012 A 
HETATM   28  C   UNL     1       4.830  33.076  50.974  1.00  0.00     0.024 A 
HETATM   29  C   UNL     1       5.851  33.246  50.047  1.00  0.00     0.034 A 
HETATM   30 CL   UNL     1       6.542  34.801  49.808  1.00  0.00    -0.084 Cl
HETATM   31  C   UNL     1       6.320  32.157  49.319  1.00  0.00     0.024 A 
HETATM   32  C   UNL     1       5.753  30.889  49.504  1.00  0.00     0.012 A 
ENDBRANCH   5  26
TORSDOF 5
ENDMDL
MODEL 10
REMARK VINA RESULT:      -8.8      5.264      8.457
REMARK  5 active torsions:
REMARK  status: ('A' for Active; 'I' for Inactive)
REMARK       I    between atoms: C_2  and  N_3 
REMARK    1  A    between atoms: N_3  and  C_4 
REMARK    2  A    between atoms: N_7  and  C_8 
REMARK    3  A    between atoms: C_8  and  C_9 
REMARK       I    between atoms: C_9  and  N_10 
REMARK    4  A    between atoms: C_13  and  O_14 
REMARK    5  A    between atoms: C_13  and  C_15 
ROOT
HETATM    1  C   UNL     1       5.782  27.973  56.287  1.00  0.00     0.238 C 
HETATM    2  N   UNL     1       5.460  29.291  56.641  1.00  0.00    -0.350 N 
HETATM    3  C   UNL     1       6.436  30.378  56.596  1.00  0.00     0.129 C 
HETATM    4  C   UNL     1       5.774  31.747  56.610  1.00  0.00     0.063 C 
HETATM    5  C   UNL     1       4.893  31.918  57.857  1.00  0.00     0.088 C 
HETATM    6  C   UNL     1       3.813  30.825  57.790  1.00  0.00     0.063 C 
HETATM    7  C   UNL     1       4.363  29.416  57.599  1.00  0.00     0.129 C 
HETATM    8  O   UNL     1       4.954  27.062  56.383  1.00  0.00    -0.272 OA
ENDROOT
BRANCH   1   9
HETATM    9  C   UNL     1       7.203  27.649  55.850  1.00  0.00     0.231 C 
BRANCH   9  10
HETATM   10  N   UNL     1       7.446  26.210  55.833  1.00  0.00    -0.347 N 
HETATM   11  C   UNL     1       7.573  25.412  54.710  1.00  0.00     0.047 A 
HETATM   12  C   UNL     1       7.806  24.102  55.155  1.00  0.00     0.019 A 
HETATM   13  C   UNL     1       7.501  25.720  53.344  1.00  0.00     0.031 A 
HETATM   14  C   UNL     1       7.957  23.049  54.212  1.00  0.00     0.047 A 
HETATM   15  C   UNL     1       7.797  24.146  56.581  1.00  0.00     0.033 A 
HETATM   16  C   UNL     1       7.907  23.372  52.851  1.00  0.00     0.030 A 
HETATM   17  C   UNL     1       7.679  24.682  52.428  1.00  0.00     0.005 A 
HETATM   18  C   UNL     1       7.552  25.440  56.965  1.00  0.00     0.092 A 
BRANCH  14  19
HETATM   19  N   UNL     1       8.196  21.755  54.713  1.00  0.00    -0.327 N 
HETATM   20  C   UNL     1       8.455  20.554  54.124  1.00  0.00     0.218 C 
HETATM   21  C   UNL     1       8.315  20.365  52.642  1.00  0.00     0.117 C 
HETATM   22  O   UNL     1       8.760  19.601  54.846  1.00  0.00    -0.274 OA
HETATM   23  H   UNL     1       8.157  21.662  55.721  1.00  0.00     0.169 HD
ENDBRANCH  14  19
ENDBRANCH   9  10
ENDBRANCH   1   9
BRANCH   5  24
HETATM   24  O   UNL     1       4.203  33.173  57.724  1.00  0.00    -0.385 OA
HETATM   25  H   UNL     1       4.352  33.494  56.817  1.00  0.00     0.211 HD
ENDBRANCH   5  24
BRANCH   5  26
HETATM   26  C   UNL     1       5.730  32.018  59.137  1.00  0.00    -0.024 A 
HETATM   27  C   UNL     1       5.098  32.414  60.335  1.00  0.00     0.012 A 
HETATM   28  C   UNL     1       5.815  32.577  61.523  1.00  0.00     0.024 A 
HETATM   29  C   UNL     1       7.182  32.334  61.538  1.00  0.00     0.034 A 
HETATM   30 CL   UNL     1       8.077  32.550  62.990  1.00  0.00    -0.084 Cl
HETATM   31  C   UNL     1       7.827  31.907  60.381  1.00  0.00     0.024 A 
HETATM   32  C   UNL     1       7.104  31.737  59.193  1.00  0.00     0.012 A 
ENDBRANCH   5  26
TORSDOF 5
ENDMDL
