MODEL 1
REMARK VINA RESULT:      -8.7      0.000      0.000
REMARK  6 active torsions:
REMARK  status: ('A' for Active; 'I' for Inactive)
REMARK    1  A    between atoms: C_6  and  O_7 
REMARK    2  A    between atoms: C_8  and  C_9 
REMARK    3  A    between atoms: C_9  and  N_10 
REMARK    4  A    between atoms: N_10  and  C_12 
REMARK    5  A    between atoms: C_12  and  C_13 
REMARK    6  A    between atoms: C_12  and  C_16 
REMARK       I    between atoms: C_13  and  N_14 
ROOT
HETATM    1  N   UNL     1       6.196  25.987  54.593  1.00  0.00    -0.054 N 
HETATM    2  H   UNL     1       6.088  25.565  55.526  1.00  0.00     0.281 HD
HETATM    3  C   UNL     1       5.140  25.438  53.676  1.00  0.00     0.271 C 
ENDROOT
BRANCH   1   4
HETATM    4  C   UNL     1       7.584  25.514  54.185  1.00  0.00     0.277 C 
BRANCH   4   5
HETATM    5  C   UNL     1       7.837  24.088  54.594  1.00  0.00     0.001 A 
HETATM    6  C   UNL     1       7.943  23.738  55.941  1.00  0.00     0.074 A 
HETATM    7  C   UNL     1       8.130  22.415  56.332  1.00  0.00     0.044 A 
HETATM    8  C   UNL     1       8.200  21.400  55.366  1.00  0.00    -0.053 A 
HETATM    9  C   UNL     1       8.121  21.735  53.999  1.00  0.00    -0.055 A 
HETATM   10  C   UNL     1       8.377  19.971  55.812  1.00  0.00     0.049 C 
HETATM   11  C   UNL     1       8.175  20.681  52.924  1.00  0.00     0.049 C 
HETATM   12  C   UNL     1       7.938  23.078  53.627  1.00  0.00     0.019 A 
BRANCH   6  13
HETATM   13  O   UNL     1       7.804  24.728  56.878  1.00  0.00    -0.360 OA
HETATM   14  H   UNL     1       6.847  24.825  57.062  1.00  0.00     0.217 HD
ENDBRANCH   6  13
ENDBRANCH   4   5
ENDBRANCH   1   4
BRANCH   1  15
HETATM   15  C   UNL     1       6.147  27.512  54.778  1.00  0.00     0.312 C 
BRANCH  15  16
HETATM   16  C   UNL     1       4.710  27.949  55.200  1.00  0.00     0.251 C 
HETATM   17  N   UNL     1       4.197  27.463  56.371  1.00  0.00    -0.368 N 
HETATM   18  H   UNL     1       4.780  27.166  57.146  1.00  0.00     0.159 HD
HETATM   19  H   UNL     1       3.274  27.803  56.627  1.00  0.00     0.159 HD
HETATM   20  O   UNL     1       3.984  28.577  54.432  1.00  0.00    -0.271 OA
ENDBRANCH  15  16
BRANCH  15  21
HETATM   21  C   UNL     1       7.264  28.116  55.636  1.00  0.00    -0.016 A 
HETATM   22  C   UNL     1       8.364  28.802  55.096  1.00  0.00     0.052 A 
HETATM   23  C   UNL     1       9.344  29.343  55.930  1.00  0.00     0.117 A 
HETATM   24  F   UNL     1      10.388  29.972  55.379  1.00  0.00    -0.206 F 
HETATM   25  C   UNL     1       9.255  29.237  57.309  1.00  0.00     0.042 A 
HETATM   26  C   UNL     1       8.155  28.598  57.869  1.00  0.00     0.004 A 
HETATM   27  C   UNL     1       7.164  28.056  57.043  1.00  0.00     0.010 A 
ENDBRANCH  15  21
ENDBRANCH   1  15
TORSDOF 6
ENDMDL
MODEL 2
REMARK VINA RESULT:      -8.3      1.782      2.549
REMARK  6 active torsions:
REMARK  status: ('A' for Active; 'I' for Inactive)
REMARK    1  A    between atoms: C_6  and  O_7 
REMARK    2  A    between atoms: C_8  and  C_9 
REMARK    3  A    between atoms: C_9  and  N_10 
REMARK    4  A    between atoms: N_10  and  C_12 
REMARK    5  A    between atoms: C_12  and  C_13 
REMARK    6  A    between atoms: C_12  and  C_16 
REMARK       I    between atoms: C_13  and  N_14 
ROOT
HETATM    1  N   UNL     1       7.734  26.241  56.272  1.00  0.00    -0.054 N 
HETATM    2  H   UNL     1       8.548  25.684  55.979  1.00  0.00     0.281 HD
HETATM    3  C   UNL     1       7.573  26.136  57.762  1.00  0.00     0.271 C 
ENDROOT
BRANCH   1   4
HETATM    4  C   UNL     1       6.591  25.550  55.542  1.00  0.00     0.277 C 
BRANCH   4   5
HETATM    5  C   UNL     1       7.042  24.292  54.851  1.00  0.00     0.001 A 
HETATM    6  C   UNL     1       7.372  24.299  53.495  1.00  0.00     0.074 A 
HETATM    7  C   UNL     1       7.836  23.153  52.857  1.00  0.00     0.044 A 
HETATM    8  C   UNL     1       7.993  21.960  53.581  1.00  0.00    -0.053 A 
HETATM    9  C   UNL     1       7.640  21.924  54.945  1.00  0.00    -0.055 A 
HETATM   10  C   UNL     1       8.520  20.737  52.877  1.00  0.00     0.049 C 
HETATM   11  C   UNL     1       7.805  20.674  55.769  1.00  0.00     0.049 C 
HETATM   12  C   UNL     1       7.170  23.093  55.567  1.00  0.00     0.019 A 
BRANCH   6  13
HETATM   13  O   UNL     1       7.281  25.485  52.815  1.00  0.00    -0.360 OA
HETATM   14  H   UNL     1       6.720  25.329  52.027  1.00  0.00     0.217 HD
ENDBRANCH   6  13
ENDBRANCH   4   5
ENDBRANCH   1   4
BRANCH   1  15
HETATM   15  C   UNL     1       7.955  27.672  55.757  1.00  0.00     0.312 C 
BRANCH  15  16
HETATM   16  C   UNL     1       6.656  28.193  55.068  1.00  0.00     0.251 C 
HETATM   17  N   UNL     1       6.705  28.514  53.739  1.00  0.00    -0.368 N 
HETATM   18  H   UNL     1       7.373  28.101  53.097  1.00  0.00     0.159 HD
HETATM   19  H   UNL     1       5.828  28.812  53.321  1.00  0.00     0.159 HD
HETATM   20  O   UNL     1       5.654  28.471  55.724  1.00  0.00    -0.271 OA
ENDBRANCH  15  16
BRANCH  15  21
HETATM   21  C   UNL     1       8.572  28.653  56.758  1.00  0.00    -0.016 A 
HETATM   22  C   UNL     1       9.891  29.127  56.660  1.00  0.00     0.052 A 
HETATM   23  C   UNL     1      10.394  30.032  57.596  1.00  0.00     0.117 A 
HETATM   24  F   UNL     1      11.661  30.445  57.481  1.00  0.00    -0.206 F 
HETATM   25  C   UNL     1       9.609  30.504  58.635  1.00  0.00     0.042 A 
HETATM   26  C   UNL     1       8.288  30.082  58.731  1.00  0.00     0.004 A 
HETATM   27  C   UNL     1       7.771  29.178  57.796  1.00  0.00     0.010 A 
ENDBRANCH  15  21
ENDBRANCH   1  15
TORSDOF 6
ENDMDL
MODEL 3
REMARK VINA RESULT:      -8.1      2.697      6.416
REMARK  6 active torsions:
REMARK  status: ('A' for Active; 'I' for Inactive)
REMARK    1  A    between atoms: C_6  and  O_7 
REMARK    2  A    between atoms: C_8  and  C_9 
REMARK    3  A    between atoms: C_9  and  N_10 
REMARK    4  A    between atoms: N_10  and  C_12 
REMARK    5  A    between atoms: C_12  and  C_13 
REMARK    6  A    between atoms: C_12  and  C_16 
REMARK       I    between atoms: C_13  and  N_14 
ROOT
HETATM    1  N   UNL     1       6.619  27.093  54.973  1.00  0.00    -0.054 N 
HETATM    2  H   UNL     1       7.636  27.068  54.816  1.00  0.00     0.281 HD
HETATM    3  C   UNL     1       6.039  28.287  54.269  1.00  0.00     0.271 C 
ENDROOT
BRANCH   1   4
HETATM    4  C   UNL     1       6.531  27.244  56.485  1.00  0.00     0.277 C 
BRANCH   4   5
HETATM    5  C   UNL     1       7.377  28.382  56.989  1.00  0.00     0.001 A 
HETATM    6  C   UNL     1       6.816  29.408  57.750  1.00  0.00     0.074 A 
HETATM    7  C   UNL     1       7.598  30.440  58.261  1.00  0.00     0.044 A 
HETATM    8  C   UNL     1       8.981  30.457  58.026  1.00  0.00    -0.053 A 
HETATM    9  C   UNL     1       9.564  29.444  57.238  1.00  0.00    -0.055 A 
HETATM   10  C   UNL     1       9.813  31.569  58.610  1.00  0.00     0.049 C 
HETATM   11  C   UNL     1      11.046  29.407  56.971  1.00  0.00     0.049 C 
HETATM   12  C   UNL     1       8.754  28.414  56.729  1.00  0.00     0.019 A 
BRANCH   6  13
HETATM   13  O   UNL     1       5.476  29.346  58.030  1.00  0.00    -0.360 OA
HETATM   14  H   UNL     1       5.171  30.260  58.210  1.00  0.00     0.217 HD
ENDBRANCH   6  13
ENDBRANCH   4   5
ENDBRANCH   1   4
BRANCH   1  15
HETATM   15  C   UNL     1       6.056  25.742  54.503  1.00  0.00     0.312 C 
BRANCH  15  16
HETATM   16  C   UNL     1       5.310  25.923  53.145  1.00  0.00     0.251 C 
HETATM   17  N   UNL     1       3.996  25.547  53.066  1.00  0.00    -0.368 N 
HETATM   18  H   UNL     1       3.382  25.521  53.873  1.00  0.00     0.159 HD
HETATM   19  H   UNL     1       3.538  25.718  52.176  1.00  0.00     0.159 HD
HETATM   20  O   UNL     1       5.915  26.238  52.122  1.00  0.00    -0.271 OA
ENDBRANCH  15  16
BRANCH  15  21
HETATM   21  C   UNL     1       7.037  24.566  54.529  1.00  0.00    -0.016 A 
HETATM   22  C   UNL     1       7.101  23.593  53.517  1.00  0.00     0.052 A 
HETATM   23  C   UNL     1       8.027  22.552  53.590  1.00  0.00     0.117 A 
HETATM   24  F   UNL     1       8.045  21.633  52.617  1.00  0.00    -0.206 F 
HETATM   25  C   UNL     1       8.919  22.453  54.645  1.00  0.00     0.042 A 
HETATM   26  C   UNL     1       8.903  23.425  55.639  1.00  0.00     0.004 A 
HETATM   27  C   UNL     1       7.982  24.477  55.574  1.00  0.00     0.010 A 
ENDBRANCH  15  21
ENDBRANCH   1  15
TORSDOF 6
ENDMDL
MODEL 4
REMARK VINA RESULT:      -8.0      2.653      4.146
REMARK  6 active torsions:
REMARK  status: ('A' for Active; 'I' for Inactive)
REMARK    1  A    between atoms: C_6  and  O_7 
REMARK    2  A    between atoms: C_8  and  C_9 
REMARK    3  A    between atoms: C_9  and  N_10 
REMARK    4  A    between atoms: N_10  and  C_12 
REMARK    5  A    between atoms: C_12  and  C_13 
REMARK    6  A    between atoms: C_12  and  C_16 
REMARK       I    between atoms: C_13  and  N_14 
ROOT
HETATM    1  N   UNL     1       7.083  26.790  54.369  1.00  0.00    -0.054 N 
HETATM    2  H   UNL     1       7.311  26.373  53.456  1.00  0.00     0.281 HD
HETATM    3  C   UNL     1       7.800  28.103  54.507  1.00  0.00     0.271 C 
ENDROOT
BRANCH   1   4
HETATM    4  C   UNL     1       7.631  25.755  55.342  1.00  0.00     0.277 C 
BRANCH   4   5
HETATM    5  C   UNL     1       7.714  24.386  54.722  1.00  0.00     0.001 A 
HETATM    6  C   UNL     1       7.962  24.234  53.357  1.00  0.00     0.074 A 
HETATM    7  C   UNL     1       8.088  22.973  52.782  1.00  0.00     0.044 A 
HETATM    8  C   UNL     1       7.980  21.822  53.578  1.00  0.00    -0.053 A 
HETATM    9  C   UNL     1       7.704  21.954  54.954  1.00  0.00    -0.055 A 
HETATM   10  C   UNL     1       8.145  20.468  52.939  1.00  0.00     0.049 C 
HETATM   11  C   UNL     1       7.594  20.751  55.854  1.00  0.00     0.049 C 
HETATM   12  C   UNL     1       7.576  23.237  55.512  1.00  0.00     0.019 A 
BRANCH   6  13
HETATM   13  O   UNL     1       8.134  25.364  52.601  1.00  0.00    -0.360 OA
HETATM   14  H   UNL     1       7.363  25.436  52.001  1.00  0.00     0.217 HD
ENDBRANCH   6  13
ENDBRANCH   4   5
ENDBRANCH   1   4
BRANCH   1  15
HETATM   15  C   UNL     1       5.551  26.891  54.450  1.00  0.00     0.312 C 
BRANCH  15  16
HETATM   16  C   UNL     1       5.133  27.518  55.815  1.00  0.00     0.251 C 
HETATM   17  N   UNL     1       4.432  26.747  56.701  1.00  0.00    -0.368 N 
HETATM   18  H   UNL     1       4.489  25.734  56.714  1.00  0.00     0.159 HD
HETATM   19  H   UNL     1       4.214  27.181  57.594  1.00  0.00     0.159 HD
HETATM   20  O   UNL     1       5.276  28.720  56.035  1.00  0.00    -0.271 OA
ENDBRANCH  15  16
BRANCH  15  21
HETATM   21  C   UNL     1       4.860  27.515  53.233  1.00  0.00    -0.016 A 
HETATM   22  C   UNL     1       5.283  27.297  51.911  1.00  0.00     0.052 A 
HETATM   23  C   UNL     1       4.603  27.882  50.842  1.00  0.00     0.117 A 
HETATM   24  F   UNL     1       5.048  27.668  49.598  1.00  0.00    -0.206 F 
HETATM   25  C   UNL     1       3.486  28.675  51.045  1.00  0.00     0.042 A 
HETATM   26  C   UNL     1       3.023  28.873  52.341  1.00  0.00     0.004 A 
HETATM   27  C   UNL     1       3.693  28.288  53.421  1.00  0.00     0.010 A 
ENDBRANCH  15  21
ENDBRANCH   1  15
TORSDOF 6
ENDMDL
MODEL 5
REMARK VINA RESULT:      -8.0      2.242      3.578
REMARK  6 active torsions:
REMARK  status: ('A' for Active; 'I' for Inactive)
REMARK    1  A    between atoms: C_6  and  O_7 
REMARK    2  A    between atoms: C_8  and  C_9 
REMARK    3  A    between atoms: C_9  and  N_10 
REMARK    4  A    between atoms: N_10  and  C_12 
REMARK    5  A    between atoms: C_12  and  C_13 
REMARK    6  A    between atoms: C_12  and  C_16 
REMARK       I    between atoms: C_13  and  N_14 
ROOT
HETATM    1  N   UNL     1       7.547  25.901  56.267  1.00  0.00    -0.054 N 
HETATM    2  H   UNL     1       8.016  25.951  55.353  1.00  0.00     0.281 HD
HETATM    3  C   UNL     1       8.531  25.438  57.304  1.00  0.00     0.271 C 
ENDROOT
BRANCH   1   4
HETATM    4  C   UNL     1       6.471  24.853  56.019  1.00  0.00     0.277 C 
BRANCH   4   5
HETATM    5  C   UNL     1       6.988  23.693  55.211  1.00  0.00     0.001 A 
HETATM    6  C   UNL     1       7.117  23.788  53.825  1.00  0.00     0.074 A 
HETATM    7  C   UNL     1       7.639  22.739  53.074  1.00  0.00     0.044 A 
HETATM    8  C   UNL     1       8.061  21.561  53.709  1.00  0.00    -0.053 A 
HETATM    9  C   UNL     1       7.915  21.435  55.105  1.00  0.00    -0.055 A 
HETATM   10  C   UNL     1       8.647  20.448  52.880  1.00  0.00     0.049 C 
HETATM   11  C   UNL     1       8.367  20.198  55.836  1.00  0.00     0.049 C 
HETATM   12  C   UNL     1       7.381  22.505  55.843  1.00  0.00     0.019 A 
BRANCH   6  13
HETATM   13  O   UNL     1       6.767  24.968  53.223  1.00  0.00    -0.360 OA
HETATM   14  H   UNL     1       7.461  25.625  53.439  1.00  0.00     0.217 HD
ENDBRANCH   6  13
ENDBRANCH   4   5
ENDBRANCH   1   4
BRANCH   1  15
HETATM   15  C   UNL     1       6.939  27.286  56.541  1.00  0.00     0.312 C 
BRANCH  15  16
HETATM   16  C   UNL     1       8.043  28.254  57.067  1.00  0.00     0.251 C 
HETATM   17  N   UNL     1       7.832  28.902  58.253  1.00  0.00    -0.368 N 
HETATM   18  H   UNL     1       7.225  28.538  58.980  1.00  0.00     0.159 HD
HETATM   19  H   UNL     1       8.593  29.493  58.578  1.00  0.00     0.159 HD
HETATM   20  O   UNL     1       9.006  28.563  56.367  1.00  0.00    -0.271 OA
ENDBRANCH  15  16
BRANCH  15  21
HETATM   21  C   UNL     1       6.075  27.868  55.418  1.00  0.00    -0.016 A 
HETATM   22  C   UNL     1       6.545  28.066  54.109  1.00  0.00     0.052 A 
HETATM   23  C   UNL     1       5.705  28.587  53.123  1.00  0.00     0.117 A 
HETATM   24  F   UNL     1       6.194  28.780  51.893  1.00  0.00    -0.206 F 
HETATM   25  C   UNL     1       4.385  28.907  53.397  1.00  0.00     0.042 A 
HETATM   26  C   UNL     1       3.885  28.684  54.674  1.00  0.00     0.004 A 
HETATM   27  C   UNL     1       4.716  28.156  55.669  1.00  0.00     0.010 A 
ENDBRANCH  15  21
ENDBRANCH   1  15
TORSDOF 6
ENDMDL
MODEL 6
REMARK VINA RESULT:      -7.9      2.734      3.979
REMARK  6 active torsions:
REMARK  status: ('A' for Active; 'I' for Inactive)
REMARK    1  A    between atoms: C_6  and  O_7 
REMARK    2  A    between atoms: C_8  and  C_9 
REMARK    3  A    between atoms: C_9  and  N_10 
REMARK    4  A    between atoms: N_10  and  C_12 
REMARK    5  A    between atoms: C_12  and  C_13 
REMARK    6  A    between atoms: C_12  and  C_16 
REMARK       I    between atoms: C_13  and  N_14 
ROOT
HETATM    1  N   UNL     1       5.557  25.594  53.952  1.00  0.00    -0.054 N 
HETATM    2  H   UNL     1       5.515  25.227  54.913  1.00  0.00     0.281 HD
HETATM    3  C   UNL     1       4.551  24.873  53.101  1.00  0.00     0.271 C 
ENDROOT
BRANCH   1   4
HETATM    4  C   UNL     1       6.981  25.247  53.539  1.00  0.00     0.277 C 
BRANCH   4   5
HETATM    5  C   UNL     1       7.418  23.915  54.085  1.00  0.00     0.001 A 
HETATM    6  C   UNL     1       7.512  23.702  55.461  1.00  0.00     0.074 A 
HETATM    7  C   UNL     1       7.869  22.461  55.979  1.00  0.00     0.044 A 
HETATM    8  C   UNL     1       8.131  21.387  55.114  1.00  0.00    -0.053 A 
HETATM    9  C   UNL     1       8.067  21.588  53.720  1.00  0.00    -0.055 A 
HETATM   10  C   UNL     1       8.491  20.045  55.696  1.00  0.00     0.049 C 
HETATM   11  C   UNL     1       8.323  20.463  52.750  1.00  0.00     0.049 C 
HETATM   12  C   UNL     1       7.709  22.851  53.220  1.00  0.00     0.019 A 
BRANCH   6  13
HETATM   13  O   UNL     1       7.188  24.738  56.298  1.00  0.00    -0.360 OA
HETATM   14  H   UNL     1       7.996  24.974  56.800  1.00  0.00     0.217 HD
ENDBRANCH   6  13
ENDBRANCH   4   5
ENDBRANCH   1   4
BRANCH   1  15
HETATM   15  C   UNL     1       5.345  27.114  54.038  1.00  0.00     0.312 C 
BRANCH  15  16
HETATM   16  C   UNL     1       6.609  27.791  54.650  1.00  0.00     0.251 C 
HETATM   17  N   UNL     1       7.415  28.533  53.830  1.00  0.00    -0.368 N 
HETATM   18  H   UNL     1       7.078  28.980  52.984  1.00  0.00     0.159 HD
HETATM   19  H   UNL     1       8.206  28.988  54.277  1.00  0.00     0.159 HD
HETATM   20  O   UNL     1       6.975  27.540  55.797  1.00  0.00    -0.271 OA
ENDBRANCH  15  16
BRANCH  15  21
HETATM   21  C   UNL     1       4.826  27.787  52.763  1.00  0.00    -0.016 A 
HETATM   22  C   UNL     1       5.487  27.706  51.526  1.00  0.00     0.052 A 
HETATM   23  C   UNL     1       4.958  28.329  50.394  1.00  0.00     0.117 A 
HETATM   24  F   UNL     1       5.626  28.247  49.238  1.00  0.00    -0.206 F 
HETATM   25  C   UNL     1       3.762  29.027  50.450  1.00  0.00     0.042 A 
HETATM   26  C   UNL     1       3.069  29.087  51.653  1.00  0.00     0.004 A 
HETATM   27  C   UNL     1       3.587  28.462  52.792  1.00  0.00     0.010 A 
ENDBRANCH  15  21
ENDBRANCH   1  15
TORSDOF 6
ENDMDL
MODEL 7
REMARK VINA RESULT:      -7.9      1.840      2.547
REMARK  6 active torsions:
REMARK  status: ('A' for Active; 'I' for Inactive)
REMARK    1  A    between atoms: C_6  and  O_7 
REMARK    2  A    between atoms: C_8  and  C_9 
REMARK    3  A    between atoms: C_9  and  N_10 
REMARK    4  A    between atoms: N_10  and  C_12 
REMARK    5  A    between atoms: C_12  and  C_13 
REMARK    6  A    between atoms: C_12  and  C_16 
REMARK       I    between atoms: C_13  and  N_14 
ROOT
HETATM    1  N   UNL     1       6.780  26.656  56.876  1.00  0.00    -0.054 N 
HETATM    2  H   UNL     1       6.589  26.920  57.853  1.00  0.00     0.281 HD
HETATM    3  C   UNL     1       5.593  25.920  56.321  1.00  0.00     0.271 C 
ENDROOT
BRANCH   1   4
HETATM    4  C   UNL     1       7.984  25.736  57.021  1.00  0.00     0.277 C 
BRANCH   4   5
HETATM    5  C   UNL     1       8.004  24.663  55.966  1.00  0.00     0.001 A 
HETATM    6  C   UNL     1       8.091  23.315  56.319  1.00  0.00     0.074 A 
HETATM    7  C   UNL     1       8.062  22.312  55.355  1.00  0.00     0.044 A 
HETATM    8  C   UNL     1       7.930  22.645  53.998  1.00  0.00    -0.053 A 
HETATM    9  C   UNL     1       7.867  24.001  53.618  1.00  0.00    -0.055 A 
HETATM   10  C   UNL     1       7.876  21.542  52.972  1.00  0.00     0.049 C 
HETATM   11  C   UNL     1       7.709  24.410  52.177  1.00  0.00     0.049 C 
HETATM   12  C   UNL     1       7.902  24.997  54.609  1.00  0.00     0.019 A 
BRANCH   6  13
HETATM   13  O   UNL     1       8.150  22.999  57.651  1.00  0.00    -0.360 OA
HETATM   14  H   UNL     1       8.098  22.023  57.723  1.00  0.00     0.217 HD
ENDBRANCH   6  13
ENDBRANCH   4   5
ENDBRANCH   1   4
BRANCH   1  15
HETATM   15  C   UNL     1       7.138  27.946  56.121  1.00  0.00     0.312 C 
BRANCH  15  16
HETATM   16  C   UNL     1       5.835  28.689  55.695  1.00  0.00     0.251 C 
HETATM   17  N   UNL     1       5.680  29.035  54.380  1.00  0.00    -0.368 N 
HETATM   18  H   UNL     1       6.136  28.538  53.623  1.00  0.00     0.159 HD
HETATM   19  H   UNL     1       4.800  29.483  54.138  1.00  0.00     0.159 HD
HETATM   20  O   UNL     1       5.036  29.107  56.532  1.00  0.00    -0.271 OA
ENDBRANCH  15  16
BRANCH  15  21
HETATM   21  C   UNL     1       8.182  28.843  56.793  1.00  0.00    -0.016 A 
HETATM   22  C   UNL     1       8.101  29.246  58.136  1.00  0.00     0.052 A 
HETATM   23  C   UNL     1       9.092  30.053  58.697  1.00  0.00     0.117 A 
HETATM   24  F   UNL     1       8.971  30.434  59.974  1.00  0.00    -0.206 F 
HETATM   25  C   UNL     1      10.190  30.466  57.959  1.00  0.00     0.042 A 
HETATM   26  C   UNL     1      10.313  30.047  56.639  1.00  0.00     0.004 A 
HETATM   27  C   UNL     1       9.329  29.233  56.067  1.00  0.00     0.010 A 
ENDBRANCH  15  21
ENDBRANCH   1  15
TORSDOF 6
ENDMDL
MODEL 8
REMARK VINA RESULT:      -7.8      3.247      6.633
REMARK  6 active torsions:
REMARK  status: ('A' for Active; 'I' for Inactive)
REMARK    1  A    between atoms: C_6  and  O_7 
REMARK    2  A    between atoms: C_8  and  C_9 
REMARK    3  A    between atoms: C_9  and  N_10 
REMARK    4  A    between atoms: N_10  and  C_12 
REMARK    5  A    between atoms: C_12  and  C_13 
REMARK    6  A    between atoms: C_12  and  C_16 
REMARK       I    between atoms: C_13  and  N_14 
ROOT
HETATM    1  N   UNL     1       6.731  26.209  54.601  1.00  0.00    -0.054 N 
HETATM    2  H   UNL     1       6.171  26.791  55.241  1.00  0.00     0.281 HD
HETATM    3  C   UNL     1       7.595  27.098  53.752  1.00  0.00     0.271 C 
ENDROOT
BRANCH   1   4
HETATM    4  C   UNL     1       5.657  25.522  53.769  1.00  0.00     0.277 C 
BRANCH   4   5
HETATM    5  C   UNL     1       5.002  26.469  52.800  1.00  0.00     0.001 A 
HETATM    6  C   UNL     1       4.233  27.541  53.257  1.00  0.00     0.074 A 
HETATM    7  C   UNL     1       3.662  28.450  52.371  1.00  0.00     0.044 A 
HETATM    8  C   UNL     1       3.866  28.309  50.990  1.00  0.00    -0.053 A 
HETATM    9  C   UNL     1       4.617  27.219  50.507  1.00  0.00    -0.055 A 
HETATM   10  C   UNL     1       3.260  29.319  50.050  1.00  0.00     0.049 C 
HETATM   11  C   UNL     1       4.878  27.032  49.035  1.00  0.00     0.049 C 
HETATM   12  C   UNL     1       5.180  26.311  51.419  1.00  0.00     0.019 A 
BRANCH   6  13
HETATM   13  O   UNL     1       4.098  27.709  54.610  1.00  0.00    -0.360 OA
HETATM   14  H   UNL     1       3.214  28.100  54.770  1.00  0.00     0.217 HD
ENDBRANCH   6  13
ENDBRANCH   4   5
ENDBRANCH   1   4
BRANCH   1  15
HETATM   15  C   UNL     1       7.508  25.205  55.467  1.00  0.00     0.312 C 
BRANCH  15  16
HETATM   16  C   UNL     1       6.961  25.229  56.927  1.00  0.00     0.251 C 
HETATM   17  N   UNL     1       7.855  25.166  57.961  1.00  0.00    -0.368 N 
HETATM   18  H   UNL     1       8.817  25.477  57.877  1.00  0.00     0.159 HD
HETATM   19  H   UNL     1       7.460  25.223  58.895  1.00  0.00     0.159 HD
HETATM   20  O   UNL     1       5.757  25.139  57.158  1.00  0.00    -0.271 OA
ENDBRANCH  15  16
BRANCH  15  21
HETATM   21  C   UNL     1       7.666  23.800  54.877  1.00  0.00    -0.016 A 
HETATM   22  C   UNL     1       7.427  22.625  55.610  1.00  0.00     0.052 A 
HETATM   23  C   UNL     1       7.573  21.372  55.013  1.00  0.00     0.117 A 
HETATM   24  F   UNL     1       7.357  20.276  55.749  1.00  0.00    -0.206 F 
HETATM   25  C   UNL     1       7.938  21.246  53.683  1.00  0.00     0.042 A 
HETATM   26  C   UNL     1       8.141  22.393  52.925  1.00  0.00     0.004 A 
HETATM   27  C   UNL     1       7.992  23.655  53.511  1.00  0.00     0.010 A 
ENDBRANCH  15  21
ENDBRANCH   1  15
TORSDOF 6
ENDMDL
MODEL 9
REMARK VINA RESULT:      -7.8      2.861      6.700
REMARK  6 active torsions:
REMARK  status: ('A' for Active; 'I' for Inactive)
REMARK    1  A    between atoms: C_6  and  O_7 
REMARK    2  A    between atoms: C_8  and  C_9 
REMARK    3  A    between atoms: C_9  and  N_10 
REMARK    4  A    between atoms: N_10  and  C_12 
REMARK    5  A    between atoms: C_12  and  C_13 
REMARK    6  A    between atoms: C_12  and  C_16 
REMARK       I    between atoms: C_13  and  N_14 
ROOT
HETATM    1  N   UNL     1       6.814  26.115  54.889  1.00  0.00    -0.054 N 
HETATM    2  H   UNL     1       7.713  25.892  55.337  1.00  0.00     0.281 HD
HETATM    3  C   UNL     1       6.976  27.341  54.035  1.00  0.00     0.271 C 
ENDROOT
BRANCH   1   4
HETATM    4  C   UNL     1       5.917  26.391  56.088  1.00  0.00     0.277 C 
BRANCH   4   5
HETATM    5  C   UNL     1       6.337  27.628  56.834  1.00  0.00     0.001 A 
HETATM    6  C   UNL     1       7.563  27.681  57.499  1.00  0.00     0.074 A 
HETATM    7  C   UNL     1       7.982  28.837  58.152  1.00  0.00     0.044 A 
HETATM    8  C   UNL     1       7.175  29.984  58.139  1.00  0.00    -0.053 A 
HETATM    9  C   UNL     1       5.921  29.944  57.495  1.00  0.00    -0.055 A 
HETATM   10  C   UNL     1       7.659  31.233  58.830  1.00  0.00     0.049 C 
HETATM   11  C   UNL     1       5.025  31.153  57.438  1.00  0.00     0.049 C 
HETATM   12  C   UNL     1       5.517  28.765  56.846  1.00  0.00     0.019 A 
BRANCH   6  13
HETATM   13  O   UNL     1       8.374  26.578  57.447  1.00  0.00    -0.360 OA
HETATM   14  H   UNL     1       8.659  26.381  58.364  1.00  0.00     0.217 HD
ENDBRANCH   6  13
ENDBRANCH   4   5
ENDBRANCH   1   4
BRANCH   1  15
HETATM   15  C   UNL     1       6.366  24.861  54.121  1.00  0.00     0.312 C 
BRANCH  15  16
HETATM   16  C   UNL     1       5.912  25.254  52.683  1.00  0.00     0.251 C 
HETATM   17  N   UNL     1       4.572  25.269  52.402  1.00  0.00    -0.368 N 
HETATM   18  H   UNL     1       3.863  25.415  53.112  1.00  0.00     0.159 HD
HETATM   19  H   UNL     1       4.318  25.569  51.465  1.00  0.00     0.159 HD
HETATM   20  O   UNL     1       6.726  25.388  51.771  1.00  0.00    -0.271 OA
ENDBRANCH  15  16
BRANCH  15  21
HETATM   21  C   UNL     1       7.329  23.670  54.173  1.00  0.00    -0.016 A 
HETATM   22  C   UNL     1       7.330  22.638  53.220  1.00  0.00     0.052 A 
HETATM   23  C   UNL     1       8.242  21.586  53.311  1.00  0.00     0.117 A 
HETATM   24  F   UNL     1       8.199  20.610  52.397  1.00  0.00    -0.206 F 
HETATM   25  C   UNL     1       9.182  21.534  54.328  1.00  0.00     0.042 A 
HETATM   26  C   UNL     1       9.228  22.563  55.260  1.00  0.00     0.004 A 
HETATM   27  C   UNL     1       8.322  23.626  55.175  1.00  0.00     0.010 A 
ENDBRANCH  15  21
ENDBRANCH   1  15
TORSDOF 6
ENDMDL
MODEL 10
REMARK VINA RESULT:      -7.8      1.948      2.772
REMARK  6 active torsions:
REMARK  status: ('A' for Active; 'I' for Inactive)
REMARK    1  A    between atoms: C_6  and  O_7 
REMARK    2  A    between atoms: C_8  and  C_9 
REMARK    3  A    between atoms: C_9  and  N_10 
REMARK    4  A    between atoms: N_10  and  C_12 
REMARK    5  A    between atoms: C_12  and  C_13 
REMARK    6  A    between atoms: C_12  and  C_16 
REMARK       I    between atoms: C_13  and  N_14 
ROOT
HETATM    1  N   UNL     1       6.344  26.757  54.638  1.00  0.00    -0.054 N 
HETATM    2  H   UNL     1       5.767  25.934  54.413  1.00  0.00     0.281 HD
HETATM    3  C   UNL     1       6.104  27.826  53.611  1.00  0.00     0.271 C 
ENDROOT
BRANCH   1   4
HETATM    4  C   UNL     1       7.756  26.197  54.535  1.00  0.00     0.277 C 
BRANCH   4   5
HETATM    5  C   UNL     1       7.759  24.739  54.163  1.00  0.00     0.001 A 
HETATM    6  C   UNL     1       7.738  24.343  52.825  1.00  0.00     0.074 A 
HETATM    7  C   UNL     1       7.789  22.998  52.468  1.00  0.00     0.044 A 
HETATM    8  C   UNL     1       7.877  22.010  53.460  1.00  0.00    -0.053 A 
HETATM    9  C   UNL     1       7.872  22.388  54.818  1.00  0.00    -0.055 A 
HETATM   10  C   UNL     1       7.956  20.562  53.051  1.00  0.00     0.049 C 
HETATM   11  C   UNL     1       7.981  21.366  55.920  1.00  0.00     0.049 C 
HETATM   12  C   UNL     1       7.816  23.751  55.155  1.00  0.00     0.019 A 
BRANCH   6  13
HETATM   13  O   UNL     1       7.722  25.318  51.862  1.00  0.00    -0.360 OA
HETATM   14  H   UNL     1       6.974  25.918  52.065  1.00  0.00     0.217 HD
ENDBRANCH   6  13
ENDBRANCH   4   5
ENDBRANCH   1   4
BRANCH   1  15
HETATM   15  C   UNL     1       6.000  27.170  56.078  1.00  0.00     0.312 C 
BRANCH  15  16
HETATM   16  C   UNL     1       5.766  25.900  56.952  1.00  0.00     0.251 C 
HETATM   17  N   UNL     1       4.549  25.279  56.889  1.00  0.00    -0.368 N 
HETATM   18  H   UNL     1       3.943  25.337  56.078  1.00  0.00     0.159 HD
HETATM   19  H   UNL     1       4.452  24.433  57.444  1.00  0.00     0.159 HD
HETATM   20  O   UNL     1       6.584  25.552  57.803  1.00  0.00    -0.271 OA
ENDBRANCH  15  16
BRANCH  15  21
HETATM   21  C   UNL     1       6.932  28.208  56.713  1.00  0.00    -0.016 A 
HETATM   22  C   UNL     1       6.467  29.318  57.438  1.00  0.00     0.052 A 
HETATM   23  C   UNL     1       7.366  30.222  58.007  1.00  0.00     0.117 A 
HETATM   24  F   UNL     1       6.886  31.279  58.673  1.00  0.00    -0.206 F 
HETATM   25  C   UNL     1       8.735  30.047  57.891  1.00  0.00     0.042 A 
HETATM   26  C   UNL     1       9.220  28.934  57.213  1.00  0.00     0.004 A 
HETATM   27  C   UNL     1       8.329  28.018  56.643  1.00  0.00     0.010 A 
ENDBRANCH  15  21
ENDBRANCH   1  15
TORSDOF 6
ENDMDL
