MODEL 1
REMARK VINA RESULT:      -8.9      0.000      0.000
REMARK  6 active torsions:
REMARK  status: ('A' for Active; 'I' for Inactive)
REMARK    1  A    between atoms: N_1  and  C_5 
REMARK    2  A    between atoms: C_5  and  C_6 
REMARK    3  A    between atoms: C_6  and  O_7 
REMARK    4  A    between atoms: C_6  and  C_8 
REMARK    5  A    between atoms: C_6  and  C_15 
REMARK    6  A    between atoms: C_18  and  C_21 
ROOT
HETATM    1  C   UNL     1       5.992  25.563  54.731  1.00  0.00     0.135 C 
ENDROOT
BRANCH   1   2
HETATM    2  C   UNL     1       5.236  26.245  53.540  1.00  0.00     0.277 C 
BRANCH   2   3
HETATM    3  N   UNL     1       3.985  25.468  53.236  1.00  0.00    -0.076 N 
HETATM    4  H   UNL     1       3.290  26.143  52.871  1.00  0.00     0.274 HD
HETATM    5  H   UNL     1       4.141  24.782  52.485  1.00  0.00     0.274 HD
HETATM    6  H   UNL     1       3.589  24.992  54.053  1.00  0.00     0.274 HD
ENDBRANCH   2   3
ENDBRANCH   1   2
BRANCH   1   7
HETATM    7  O   UNL     1       4.911  25.223  55.636  1.00  0.00    -0.378 OA
HETATM    8  H   UNL     1       5.251  25.284  56.551  1.00  0.00     0.211 HD
ENDBRANCH   1   7
BRANCH   1   9
HETATM    9  C   UNL     1       6.759  24.285  54.385  1.00  0.00    -0.018 A 
HETATM   10  C   UNL     1       7.200  23.980  53.085  1.00  0.00     0.012 A 
HETATM   11  C   UNL     1       7.888  22.789  52.821  1.00  0.00     0.024 A 
HETATM   12  C   UNL     1       8.147  21.887  53.849  1.00  0.00     0.034 A 
HETATM   13 CL   UNL     1       8.989  20.427  53.515  1.00  0.00    -0.084 Cl
HETATM   14  C   UNL     1       7.729  22.167  55.144  1.00  0.00     0.024 A 
HETATM   15  C   UNL     1       7.042  23.354  55.409  1.00  0.00     0.012 A 
ENDBRANCH   1   9
BRANCH   1  16
HETATM   16  C   UNL     1       6.887  26.625  55.389  1.00  0.00    -0.018 A 
HETATM   17  C   UNL     1       7.125  26.638  56.772  1.00  0.00     0.011 A 
HETATM   18  C   UNL     1       7.905  27.641  57.360  1.00  0.00     0.013 A 
HETATM   19  C   UNL     1       8.471  28.658  56.584  1.00  0.00    -0.023 A 
HETATM   20  C   UNL     1       8.259  28.637  55.201  1.00  0.00     0.013 A 
HETATM   21  C   UNL     1       7.483  27.634  54.609  1.00  0.00     0.011 A 
BRANCH  19  22
HETATM   22  C   UNL     1       9.270  29.695  57.210  1.00  0.00     0.010 A 
HETATM   23  C   UNL     1      10.559  30.186  56.895  1.00  0.00     0.152 A 
HETATM   24  N   UNL     1      10.971  31.136  57.737  1.00  0.00    -0.187 NA
HETATM   25  N   UNL     1       9.945  31.271  58.590  1.00  0.00    -0.289 N 
HETATM   26  H   UNL     1      10.027  31.956  59.335  1.00  0.00     0.188 HD
HETATM   27  C   UNL     1       8.905  30.425  58.323  1.00  0.00     0.123 A 
ENDBRANCH  19  22
ENDBRANCH   1  16
TORSDOF 6
ENDMDL
MODEL 2
REMARK VINA RESULT:      -8.5      3.855      7.050
REMARK  6 active torsions:
REMARK  status: ('A' for Active; 'I' for Inactive)
REMARK    1  A    between atoms: N_1  and  C_5 
REMARK    2  A    between atoms: C_5  and  C_6 
REMARK    3  A    between atoms: C_6  and  O_7 
REMARK    4  A    between atoms: C_6  and  C_8 
REMARK    5  A    between atoms: C_6  and  C_15 
REMARK    6  A    between atoms: C_18  and  C_21 
ROOT
HETATM    1  C   UNL     1       6.490  27.507  54.624  1.00  0.00     0.135 C 
ENDROOT
BRANCH   1   2
HETATM    2  C   UNL     1       4.932  27.561  54.776  1.00  0.00     0.277 C 
BRANCH   2   3
HETATM    3  N   UNL     1       4.292  27.046  53.516  1.00  0.00    -0.076 N 
HETATM    4  H   UNL     1       5.003  27.113  52.766  1.00  0.00     0.274 HD
HETATM    5  H   UNL     1       4.054  26.048  53.596  1.00  0.00     0.274 HD
HETATM    6  H   UNL     1       3.459  27.572  53.234  1.00  0.00     0.274 HD
ENDBRANCH   2   3
ENDBRANCH   1   2
BRANCH   1   7
HETATM    7  O   UNL     1       6.706  28.175  53.354  1.00  0.00    -0.378 OA
HETATM    8  H   UNL     1       5.923  28.731  53.167  1.00  0.00     0.211 HD
ENDBRANCH   1   7
BRANCH   1   9
HETATM    9  C   UNL     1       7.289  28.239  55.704  1.00  0.00    -0.018 A 
HETATM   10  C   UNL     1       6.842  28.378  57.029  1.00  0.00     0.012 A 
HETATM   11  C   UNL     1       7.608  29.071  57.976  1.00  0.00     0.024 A 
HETATM   12  C   UNL     1       8.829  29.632  57.615  1.00  0.00     0.034 A 
HETATM   13 CL   UNL     1       9.759  30.482  58.783  1.00  0.00    -0.084 Cl
HETATM   14  C   UNL     1       9.297  29.504  56.313  1.00  0.00     0.024 A 
HETATM   15  C   UNL     1       8.535  28.814  55.367  1.00  0.00     0.012 A 
ENDBRANCH   1   9
BRANCH   1  16
HETATM   16  C   UNL     1       6.899  26.030  54.492  1.00  0.00    -0.018 A 
HETATM   17  C   UNL     1       6.656  25.102  55.517  1.00  0.00     0.011 A 
HETATM   18  C   UNL     1       7.077  23.772  55.399  1.00  0.00     0.013 A 
HETATM   19  C   UNL     1       7.751  23.331  54.255  1.00  0.00    -0.023 A 
HETATM   20  C   UNL     1       7.974  24.245  53.219  1.00  0.00     0.013 A 
HETATM   21  C   UNL     1       7.551  25.574  53.332  1.00  0.00     0.011 A 
BRANCH  19  22
HETATM   22  C   UNL     1       8.188  21.951  54.152  1.00  0.00     0.010 A 
HETATM   23  C   UNL     1       8.232  21.075  53.041  1.00  0.00     0.152 A 
HETATM   24  N   UNL     1       8.675  19.857  53.360  1.00  0.00    -0.187 NA
HETATM   25  N   UNL     1       8.930  19.946  54.673  1.00  0.00    -0.289 N 
HETATM   26  H   UNL     1       9.290  19.124  55.149  1.00  0.00     0.188 HD
HETATM   27  C   UNL     1       8.647  21.176  55.198  1.00  0.00     0.123 A 
ENDBRANCH  19  22
ENDBRANCH   1  16
TORSDOF 6
ENDMDL
MODEL 3
REMARK VINA RESULT:      -8.2      3.988      7.074
REMARK  6 active torsions:
REMARK  status: ('A' for Active; 'I' for Inactive)
REMARK    1  A    between atoms: N_1  and  C_5 
REMARK    2  A    between atoms: C_5  and  C_6 
REMARK    3  A    between atoms: C_6  and  O_7 
REMARK    4  A    between atoms: C_6  and  C_8 
REMARK    5  A    between atoms: C_6  and  C_15 
REMARK    6  A    between atoms: C_18  and  C_21 
ROOT
HETATM    1  C   UNL     1       5.897  27.014  53.163  1.00  0.00     0.135 C 
ENDROOT
BRANCH   1   2
HETATM    2  C   UNL     1       6.839  28.111  53.766  1.00  0.00     0.277 C 
BRANCH   2   3
HETATM    3  N   UNL     1       6.019  29.079  54.574  1.00  0.00    -0.076 N 
HETATM    4  H   UNL     1       6.436  30.017  54.438  1.00  0.00     0.274 HD
HETATM    5  H   UNL     1       5.054  29.141  54.222  1.00  0.00     0.274 HD
HETATM    6  H   UNL     1       6.001  28.865  55.577  1.00  0.00     0.274 HD
ENDBRANCH   2   3
ENDBRANCH   1   2
BRANCH   1   7
HETATM    7  O   UNL     1       4.704  27.141  53.979  1.00  0.00    -0.378 OA
HETATM    8  H   UNL     1       4.451  26.248  54.287  1.00  0.00     0.211 HD
ENDBRANCH   1   7
BRANCH   1   9
HETATM    9  C   UNL     1       5.507  27.206  51.696  1.00  0.00    -0.018 A 
HETATM   10  C   UNL     1       5.646  28.429  51.017  1.00  0.00     0.012 A 
HETATM   11  C   UNL     1       5.262  28.553  49.676  1.00  0.00     0.024 A 
HETATM   12  C   UNL     1       4.736  27.460  48.994  1.00  0.00     0.034 A 
HETATM   13 CL   UNL     1       4.264  27.623  47.349  1.00  0.00    -0.084 Cl
HETATM   14  C   UNL     1       4.594  26.238  49.639  1.00  0.00     0.024 A 
HETATM   15  C   UNL     1       4.977  26.112  50.977  1.00  0.00     0.012 A 
ENDBRANCH   1   9
BRANCH   1  16
HETATM   16  C   UNL     1       6.544  25.645  53.424  1.00  0.00    -0.018 A 
HETATM   17  C   UNL     1       7.424  25.054  52.503  1.00  0.00     0.011 A 
HETATM   18  C   UNL     1       7.967  23.785  52.736  1.00  0.00     0.013 A 
HETATM   19  C   UNL     1       7.649  23.071  53.896  1.00  0.00    -0.023 A 
HETATM   20  C   UNL     1       6.793  23.663  54.831  1.00  0.00     0.013 A 
HETATM   21  C   UNL     1       6.252  24.933  54.603  1.00  0.00     0.011 A 
BRANCH  19  22
HETATM   22  C   UNL     1       8.215  21.752  54.118  1.00  0.00     0.010 A 
HETATM   23  C   UNL     1       8.543  20.721  53.206  1.00  0.00     0.152 A 
HETATM   24  N   UNL     1       9.020  19.630  53.809  1.00  0.00    -0.187 NA
HETATM   25  N   UNL     1       9.014  19.957  55.109  1.00  0.00    -0.289 N 
HETATM   26  H   UNL     1       9.346  19.270  55.779  1.00  0.00     0.188 HD
HETATM   27  C   UNL     1       8.532  21.214  55.349  1.00  0.00     0.123 A 
ENDBRANCH  19  22
ENDBRANCH   1  16
TORSDOF 6
ENDMDL
MODEL 4
REMARK VINA RESULT:      -8.2     10.442     14.300
REMARK  6 active torsions:
REMARK  status: ('A' for Active; 'I' for Inactive)
REMARK    1  A    between atoms: N_1  and  C_5 
REMARK    2  A    between atoms: C_5  and  C_6 
REMARK    3  A    between atoms: C_6  and  O_7 
REMARK    4  A    between atoms: C_6  and  C_8 
REMARK    5  A    between atoms: C_6  and  C_15 
REMARK    6  A    between atoms: C_18  and  C_21 
ROOT
HETATM    1  C   UNL     1       5.329  34.725  67.050  1.00  0.00     0.135 C 
ENDROOT
BRANCH   1   2
HETATM    2  C   UNL     1       3.784  34.480  67.129  1.00  0.00     0.277 C 
BRANCH   2   3
HETATM    3  N   UNL     1       3.060  35.754  66.792  1.00  0.00    -0.076 N 
HETATM    4  H   UNL     1       2.047  35.548  66.832  1.00  0.00     0.274 HD
HETATM    5  H   UNL     1       3.233  36.483  67.499  1.00  0.00     0.274 HD
HETATM    6  H   UNL     1       3.289  36.123  65.863  1.00  0.00     0.274 HD
ENDBRANCH   2   3
ENDBRANCH   1   2
BRANCH   1   7
HETATM    7  O   UNL     1       5.408  36.152  66.796  1.00  0.00    -0.378 OA
HETATM    8  H   UNL     1       5.910  36.285  65.968  1.00  0.00     0.211 HD
ENDBRANCH   1   7
BRANCH   1   9
HETATM    9  C   UNL     1       6.117  34.411  68.323  1.00  0.00    -0.018 A 
HETATM   10  C   UNL     1       7.336  35.032  68.646  1.00  0.00     0.012 A 
HETATM   11  C   UNL     1       8.024  34.698  69.819  1.00  0.00     0.024 A 
HETATM   12  C   UNL     1       7.505  33.742  70.687  1.00  0.00     0.034 A 
HETATM   13 CL   UNL     1       8.358  33.336  72.122  1.00  0.00    -0.084 Cl
HETATM   14  C   UNL     1       6.299  33.118  70.396  1.00  0.00     0.024 A 
HETATM   15  C   UNL     1       5.611  33.449  69.225  1.00  0.00     0.012 A 
ENDBRANCH   1   9
BRANCH   1  16
HETATM   16  C   UNL     1       5.863  33.964  65.826  1.00  0.00    -0.018 A 
HETATM   17  C   UNL     1       7.238  33.865  65.558  1.00  0.00     0.011 A 
HETATM   18  C   UNL     1       7.704  33.209  64.413  1.00  0.00     0.013 A 
HETATM   19  C   UNL     1       6.812  32.630  63.504  1.00  0.00    -0.023 A 
HETATM   20  C   UNL     1       5.442  32.703  63.777  1.00  0.00     0.013 A 
HETATM   21  C   UNL     1       4.972  33.355  64.923  1.00  0.00     0.011 A 
BRANCH  19  22
HETATM   22  C   UNL     1       7.312  31.960  62.318  1.00  0.00     0.010 A 
HETATM   23  C   UNL     1       6.973  32.121  60.953  1.00  0.00     0.152 A 
HETATM   24  N   UNL     1       7.640  31.287  60.153  1.00  0.00    -0.187 NA
HETATM   25  N   UNL     1       8.420  30.594  60.995  1.00  0.00    -0.289 N 
HETATM   26  H   UNL     1       9.036  29.886  60.607  1.00  0.00     0.188 HD
HETATM   27  C   UNL     1       8.255  30.953  62.304  1.00  0.00     0.123 A 
ENDBRANCH  19  22
ENDBRANCH   1  16
TORSDOF 6
ENDMDL
MODEL 5
REMARK VINA RESULT:      -8.1      1.573      2.005
REMARK  6 active torsions:
REMARK  status: ('A' for Active; 'I' for Inactive)
REMARK    1  A    between atoms: N_1  and  C_5 
REMARK    2  A    between atoms: C_5  and  C_6 
REMARK    3  A    between atoms: C_6  and  O_7 
REMARK    4  A    between atoms: C_6  and  C_8 
REMARK    5  A    between atoms: C_6  and  C_15 
REMARK    6  A    between atoms: C_18  and  C_21 
ROOT
HETATM    1  C   UNL     1       5.908  25.421  53.611  1.00  0.00     0.135 C 
ENDROOT
BRANCH   1   2
HETATM    2  C   UNL     1       6.091  26.062  52.194  1.00  0.00     0.277 C 
BRANCH   2   3
HETATM    3  N   UNL     1       4.871  25.779  51.360  1.00  0.00    -0.076 N 
HETATM    4  H   UNL     1       4.989  26.291  50.468  1.00  0.00     0.274 HD
HETATM    5  H   UNL     1       4.808  24.782  51.112  1.00  0.00     0.274 HD
HETATM    6  H   UNL     1       3.995  26.075  51.801  1.00  0.00     0.274 HD
ENDBRANCH   2   3
ENDBRANCH   1   2
BRANCH   1   7
HETATM    7  O   UNL     1       4.492  25.105  53.633  1.00  0.00    -0.378 OA
HETATM    8  H   UNL     1       4.384  24.224  54.042  1.00  0.00     0.211 HD
ENDBRANCH   1   7
BRANCH   1   9
HETATM    9  C   UNL     1       6.698  24.136  53.867  1.00  0.00    -0.018 A 
HETATM   10  C   UNL     1       7.287  23.378  52.840  1.00  0.00     0.012 A 
HETATM   11  C   UNL     1       7.990  22.202  53.129  1.00  0.00     0.024 A 
HETATM   12  C   UNL     1       8.117  21.766  54.444  1.00  0.00     0.034 A 
HETATM   13 CL   UNL     1       8.979  20.320  54.788  1.00  0.00    -0.084 Cl
HETATM   14  C   UNL     1       7.551  22.500  55.479  1.00  0.00     0.024 A 
HETATM   15  C   UNL     1       6.848  23.674  55.193  1.00  0.00     0.012 A 
ENDBRANCH   1   9
BRANCH   1  16
HETATM   16  C   UNL     1       6.199  26.508  54.659  1.00  0.00    -0.018 A 
HETATM   17  C   UNL     1       7.399  27.237  54.654  1.00  0.00     0.011 A 
HETATM   18  C   UNL     1       7.667  28.189  55.645  1.00  0.00     0.013 A 
HETATM   19  C   UNL     1       6.745  28.443  56.665  1.00  0.00    -0.023 A 
HETATM   20  C   UNL     1       5.536  27.738  56.662  1.00  0.00     0.013 A 
HETATM   21  C   UNL     1       5.263  26.788  55.672  1.00  0.00     0.011 A 
BRANCH  19  22
HETATM   22  C   UNL     1       7.042  29.428  57.689  1.00  0.00     0.010 A 
HETATM   23  C   UNL     1       8.128  29.525  58.591  1.00  0.00     0.152 A 
HETATM   24  N   UNL     1       8.028  30.573  59.411  1.00  0.00    -0.187 NA
HETATM   25  N   UNL     1       6.884  31.163  59.034  1.00  0.00    -0.289 N 
HETATM   26  H   UNL     1       6.593  32.003  59.523  1.00  0.00     0.188 HD
HETATM   27  C   UNL     1       6.251  30.511  58.012  1.00  0.00     0.123 A 
ENDBRANCH  19  22
ENDBRANCH   1  16
TORSDOF 6
ENDMDL
MODEL 6
REMARK VINA RESULT:      -7.7      3.828      7.126
REMARK  6 active torsions:
REMARK  status: ('A' for Active; 'I' for Inactive)
REMARK    1  A    between atoms: N_1  and  C_5 
REMARK    2  A    between atoms: C_5  and  C_6 
REMARK    3  A    between atoms: C_6  and  O_7 
REMARK    4  A    between atoms: C_6  and  C_8 
REMARK    5  A    between atoms: C_6  and  C_15 
REMARK    6  A    between atoms: C_18  and  C_21 
ROOT
HETATM    1  C   UNL     1       6.911  27.545  54.498  1.00  0.00     0.135 C 
ENDROOT
BRANCH   1   2
HETATM    2  C   UNL     1       8.243  28.343  54.284  1.00  0.00     0.277 C 
BRANCH   2   3
HETATM    3  N   UNL     1       8.462  29.264  55.453  1.00  0.00    -0.076 N 
HETATM    4  H   UNL     1       9.270  29.867  55.215  1.00  0.00     0.274 HD
HETATM    5  H   UNL     1       7.662  29.897  55.588  1.00  0.00     0.274 HD
HETATM    6  H   UNL     1       8.659  28.773  56.331  1.00  0.00     0.274 HD
ENDBRANCH   2   3
ENDBRANCH   1   2
BRANCH   1   7
HETATM    7  O   UNL     1       6.566  27.871  55.869  1.00  0.00    -0.378 OA
HETATM    8  H   UNL     1       6.996  27.215  56.454  1.00  0.00     0.211 HD
ENDBRANCH   1   7
BRANCH   1   9
HETATM    9  C   UNL     1       5.745  27.945  53.593  1.00  0.00    -0.018 A 
HETATM   10  C   UNL     1       4.397  27.805  53.968  1.00  0.00     0.012 A 
HETATM   11  C   UNL     1       3.366  28.176  53.095  1.00  0.00     0.024 A 
HETATM   12  C   UNL     1       3.665  28.691  51.837  1.00  0.00     0.034 A 
HETATM   13 CL   UNL     1       2.394  29.140  50.772  1.00  0.00    -0.084 Cl
HETATM   14  C   UNL     1       4.988  28.847  51.444  1.00  0.00     0.024 A 
HETATM   15  C   UNL     1       6.018  28.477  52.313  1.00  0.00     0.012 A 
ENDBRANCH   1   9
BRANCH   1  16
HETATM   16  C   UNL     1       7.242  26.047  54.402  1.00  0.00    -0.018 A 
HETATM   17  C   UNL     1       7.201  25.207  55.526  1.00  0.00     0.011 A 
HETATM   18  C   UNL     1       7.551  23.855  55.429  1.00  0.00     0.013 A 
HETATM   19  C   UNL     1       7.949  23.303  54.206  1.00  0.00    -0.023 A 
HETATM   20  C   UNL     1       7.967  24.128  53.077  1.00  0.00     0.013 A 
HETATM   21  C   UNL     1       7.615  25.479  53.170  1.00  0.00     0.011 A 
BRANCH  19  22
HETATM   22  C   UNL     1       8.316  21.901  54.124  1.00  0.00     0.010 A 
HETATM   23  C   UNL     1       8.305  21.005  53.029  1.00  0.00     0.152 A 
HETATM   24  N   UNL     1       8.690  19.772  53.365  1.00  0.00    -0.187 NA
HETATM   25  N   UNL     1       8.964  19.871  54.674  1.00  0.00    -0.289 N 
HETATM   26  H   UNL     1       9.288  19.041  55.161  1.00  0.00     0.188 HD
HETATM   27  C   UNL     1       8.748  21.123  55.179  1.00  0.00     0.123 A 
ENDBRANCH  19  22
ENDBRANCH   1  16
TORSDOF 6
ENDMDL
MODEL 7
REMARK VINA RESULT:      -7.6      3.667      6.495
REMARK  6 active torsions:
REMARK  status: ('A' for Active; 'I' for Inactive)
REMARK    1  A    between atoms: N_1  and  C_5 
REMARK    2  A    between atoms: C_5  and  C_6 
REMARK    3  A    between atoms: C_6  and  O_7 
REMARK    4  A    between atoms: C_6  and  C_8 
REMARK    5  A    between atoms: C_6  and  C_15 
REMARK    6  A    between atoms: C_18  and  C_21 
ROOT
HETATM    1  C   UNL     1       6.588  25.420  54.457  1.00  0.00     0.135 C 
ENDROOT
BRANCH   1   2
HETATM    2  C   UNL     1       5.484  25.677  55.538  1.00  0.00     0.277 C 
BRANCH   2   3
HETATM    3  N   UNL     1       5.932  26.785  56.451  1.00  0.00    -0.076 N 
HETATM    4  H   UNL     1       6.704  27.280  55.971  1.00  0.00     0.274 HD
HETATM    5  H   UNL     1       5.187  27.482  56.590  1.00  0.00     0.274 HD
HETATM    6  H   UNL     1       6.263  26.456  57.364  1.00  0.00     0.274 HD
ENDBRANCH   2   3
ENDBRANCH   1   2
BRANCH   1   7
HETATM    7  O   UNL     1       7.601  26.400  54.802  1.00  0.00    -0.378 OA
HETATM    8  H   UNL     1       7.174  27.106  55.326  1.00  0.00     0.211 HD
ENDBRANCH   1   7
BRANCH   1   9
HETATM    9  C   UNL     1       7.227  24.030  54.476  1.00  0.00    -0.018 A 
HETATM   10  C   UNL     1       7.894  23.475  53.370  1.00  0.00     0.012 A 
HETATM   11  C   UNL     1       8.451  22.191  53.438  1.00  0.00     0.024 A 
HETATM   12  C   UNL     1       8.351  21.444  54.608  1.00  0.00     0.034 A 
HETATM   13 CL   UNL     1       9.033  19.870  54.680  1.00  0.00    -0.084 Cl
HETATM   14  C   UNL     1       7.702  21.972  55.718  1.00  0.00     0.024 A 
HETATM   15  C   UNL     1       7.146  23.253  55.652  1.00  0.00     0.012 A 
ENDBRANCH   1   9
BRANCH   1  16
HETATM   16  C   UNL     1       5.992  25.773  53.084  1.00  0.00    -0.018 A 
HETATM   17  C   UNL     1       5.165  24.879  52.385  1.00  0.00     0.011 A 
HETATM   18  C   UNL     1       4.670  25.198  51.115  1.00  0.00     0.013 A 
HETATM   19  C   UNL     1       4.984  26.419  50.509  1.00  0.00    -0.023 A 
HETATM   20  C   UNL     1       5.786  27.325  51.210  1.00  0.00     0.013 A 
HETATM   21  C   UNL     1       6.280  27.011  52.481  1.00  0.00     0.011 A 
BRANCH  19  22
HETATM   22  C   UNL     1       4.468  26.731  49.188  1.00  0.00     0.010 A 
HETATM   23  C   UNL     1       3.646  25.980  48.315  1.00  0.00     0.152 A 
HETATM   24  N   UNL     1       3.411  26.605  47.160  1.00  0.00    -0.187 NA
HETATM   25  N   UNL     1       4.070  27.766  47.287  1.00  0.00    -0.289 N 
HETATM   26  H   UNL     1       4.034  28.426  46.517  1.00  0.00     0.188 HD
HETATM   27  C   UNL     1       4.727  27.888  48.480  1.00  0.00     0.123 A 
ENDBRANCH  19  22
ENDBRANCH   1  16
TORSDOF 6
ENDMDL
MODEL 8
REMARK VINA RESULT:      -7.5      7.599     11.671
REMARK  6 active torsions:
REMARK  status: ('A' for Active; 'I' for Inactive)
REMARK    1  A    between atoms: N_1  and  C_5 
REMARK    2  A    between atoms: C_5  and  C_6 
REMARK    3  A    between atoms: C_6  and  O_7 
REMARK    4  A    between atoms: C_6  and  C_8 
REMARK    5  A    between atoms: C_6  and  C_15 
REMARK    6  A    between atoms: C_18  and  C_21 
ROOT
HETATM    1  C   UNL     1       6.008  33.361  63.724  1.00  0.00     0.135 C 
ENDROOT
BRANCH   1   2
HETATM    2  C   UNL     1       6.978  33.488  64.947  1.00  0.00     0.277 C 
BRANCH   2   3
HETATM    3  N   UNL     1       6.177  33.769  66.189  1.00  0.00    -0.076 N 
HETATM    4  H   UNL     1       5.931  32.853  66.604  1.00  0.00     0.274 HD
HETATM    5  H   UNL     1       6.740  34.262  66.896  1.00  0.00     0.274 HD
HETATM    6  H   UNL     1       5.316  34.297  66.012  1.00  0.00     0.274 HD
ENDBRANCH   2   3
ENDBRANCH   1   2
BRANCH   1   7
HETATM    7  O   UNL     1       5.021  32.412  64.202  1.00  0.00    -0.378 OA
HETATM    8  H   UNL     1       5.281  31.521  63.893  1.00  0.00     0.211 HD
ENDBRANCH   1   7
BRANCH   1   9
HETATM    9  C   UNL     1       5.288  34.647  63.310  1.00  0.00    -0.018 A 
HETATM   10  C   UNL     1       3.889  34.775  63.299  1.00  0.00     0.012 A 
HETATM   11  C   UNL     1       3.281  35.972  62.899  1.00  0.00     0.024 A 
HETATM   12  C   UNL     1       4.059  37.056  62.505  1.00  0.00     0.034 A 
HETATM   13 CL   UNL     1       3.304  38.519  62.013  1.00  0.00    -0.084 Cl
HETATM   14  C   UNL     1       5.445  36.958  62.513  1.00  0.00     0.024 A 
HETATM   15  C   UNL     1       6.054  35.765  62.912  1.00  0.00     0.012 A 
ENDBRANCH   1   9
BRANCH   1  16
HETATM   16  C   UNL     1       6.795  32.730  62.564  1.00  0.00    -0.018 A 
HETATM   17  C   UNL     1       8.140  32.355  62.700  1.00  0.00     0.011 A 
HETATM   18  C   UNL     1       8.855  31.825  61.619  1.00  0.00     0.013 A 
HETATM   19  C   UNL     1       8.245  31.653  60.372  1.00  0.00    -0.023 A 
HETATM   20  C   UNL     1       6.897  32.001  60.235  1.00  0.00     0.013 A 
HETATM   21  C   UNL     1       6.179  32.527  61.315  1.00  0.00     0.011 A 
BRANCH  19  22
HETATM   22  C   UNL     1       9.002  31.110  59.259  1.00  0.00     0.010 A 
HETATM   23  C   UNL     1      10.134  31.616  58.576  1.00  0.00     0.152 A 
HETATM   24  N   UNL     1      10.527  30.829  57.572  1.00  0.00    -0.187 NA
HETATM   25  N   UNL     1       9.660  29.807  57.612  1.00  0.00    -0.289 N 
HETATM   26  H   UNL     1       9.764  29.062  56.930  1.00  0.00     0.188 HD
HETATM   27  C   UNL     1       8.721  29.931  58.598  1.00  0.00     0.123 A 
ENDBRANCH  19  22
ENDBRANCH   1  16
TORSDOF 6
ENDMDL
MODEL 9
REMARK VINA RESULT:      -7.1     10.108     13.611
REMARK  6 active torsions:
REMARK  status: ('A' for Active; 'I' for Inactive)
REMARK    1  A    between atoms: N_1  and  C_5 
REMARK    2  A    between atoms: C_5  and  C_6 
REMARK    3  A    between atoms: C_6  and  O_7 
REMARK    4  A    between atoms: C_6  and  C_8 
REMARK    5  A    between atoms: C_6  and  C_15 
REMARK    6  A    between atoms: C_18  and  C_21 
ROOT
HETATM    1  C   UNL     1       4.484  35.996  64.125  1.00  0.00     0.135 C 
ENDROOT
BRANCH   1   2
HETATM    2  C   UNL     1       4.523  36.064  65.690  1.00  0.00     0.277 C 
BRANCH   2   3
HETATM    3  N   UNL     1       3.197  35.616  66.240  1.00  0.00    -0.076 N 
HETATM    4  H   UNL     1       3.397  34.950  67.006  1.00  0.00     0.274 HD
HETATM    5  H   UNL     1       2.684  36.399  66.668  1.00  0.00     0.274 HD
HETATM    6  H   UNL     1       2.599  35.157  65.546  1.00  0.00     0.274 HD
ENDBRANCH   2   3
ENDBRANCH   1   2
BRANCH   1   7
HETATM    7  O   UNL     1       3.143  35.507  63.866  1.00  0.00    -0.378 OA
HETATM    8  H   UNL     1       2.515  36.235  64.041  1.00  0.00     0.211 HD
ENDBRANCH   1   7
BRANCH   1   9
HETATM    9  C   UNL     1       4.666  37.330  63.398  1.00  0.00    -0.018 A 
HETATM   10  C   UNL     1       5.697  38.236  63.700  1.00  0.00     0.012 A 
HETATM   11  C   UNL     1       5.811  39.450  63.011  1.00  0.00     0.024 A 
HETATM   12  C   UNL     1       4.900  39.776  62.010  1.00  0.00     0.034 A 
HETATM   13 CL   UNL     1       5.046  41.269  61.172  1.00  0.00    -0.084 Cl
HETATM   14  C   UNL     1       3.876  38.895  61.687  1.00  0.00     0.024 A 
HETATM   15  C   UNL     1       3.760  37.683  62.374  1.00  0.00     0.012 A 
ENDBRANCH   1   9
BRANCH   1  16
HETATM   16  C   UNL     1       5.504  34.938  63.676  1.00  0.00    -0.018 A 
HETATM   17  C   UNL     1       5.614  34.539  62.334  1.00  0.00     0.011 A 
HETATM   18  C   UNL     1       6.516  33.540  61.950  1.00  0.00     0.013 A 
HETATM   19  C   UNL     1       7.335  32.912  62.895  1.00  0.00    -0.023 A 
HETATM   20  C   UNL     1       7.249  33.321  64.230  1.00  0.00     0.013 A 
HETATM   21  C   UNL     1       6.351  34.323  64.616  1.00  0.00     0.011 A 
BRANCH  19  22
HETATM   22  C   UNL     1       8.259  31.871  62.482  1.00  0.00     0.010 A 
HETATM   23  C   UNL     1       9.353  31.909  61.584  1.00  0.00     0.152 A 
HETATM   24  N   UNL     1       9.947  30.723  61.443  1.00  0.00    -0.187 NA
HETATM   25  N   UNL     1       9.249  29.919  62.257  1.00  0.00    -0.289 N 
HETATM   26  H   UNL     1       9.525  28.944  62.322  1.00  0.00     0.188 HD
HETATM   27  C   UNL     1       8.222  30.556  62.896  1.00  0.00     0.123 A 
ENDBRANCH  19  22
ENDBRANCH   1  16
TORSDOF 6
ENDMDL
MODEL 10
REMARK VINA RESULT:      -7.0      9.499     12.532
REMARK  6 active torsions:
REMARK  status: ('A' for Active; 'I' for Inactive)
REMARK    1  A    between atoms: N_1  and  C_5 
REMARK    2  A    between atoms: C_5  and  C_6 
REMARK    3  A    between atoms: C_6  and  O_7 
REMARK    4  A    between atoms: C_6  and  C_8 
REMARK    5  A    between atoms: C_6  and  C_15 
REMARK    6  A    between atoms: C_18  and  C_21 
ROOT
HETATM    1  C   UNL     1       4.728  34.154  63.250  1.00  0.00     0.135 C 
ENDROOT
BRANCH   1   2
HETATM    2  C   UNL     1       3.469  34.109  62.319  1.00  0.00     0.277 C 
BRANCH   2   3
HETATM    3  N   UNL     1       2.342  33.424  63.040  1.00  0.00    -0.076 N 
HETATM    4  H   UNL     1       2.444  32.409  62.868  1.00  0.00     0.274 HD
HETATM    5  H   UNL     1       2.415  33.551  64.060  1.00  0.00     0.274 HD
HETATM    6  H   UNL     1       1.412  33.724  62.728  1.00  0.00     0.274 HD
ENDBRANCH   2   3
ENDBRANCH   1   2
BRANCH   1   7
HETATM    7  O   UNL     1       4.209  33.642  64.505  1.00  0.00    -0.378 OA
HETATM    8  H   UNL     1       3.274  33.917  64.581  1.00  0.00     0.211 HD
ENDBRANCH   1   7
BRANCH   1   9
HETATM    9  C   UNL     1       5.907  33.281  62.817  1.00  0.00    -0.018 A 
HETATM   10  C   UNL     1       5.965  32.629  61.573  1.00  0.00     0.012 A 
HETATM   11  C   UNL     1       7.063  31.831  61.230  1.00  0.00     0.024 A 
HETATM   12  C   UNL     1       8.119  31.672  62.123  1.00  0.00     0.034 A 
HETATM   13 CL   UNL     1       9.461  30.688  61.696  1.00  0.00    -0.084 Cl
HETATM   14  C   UNL     1       8.091  32.310  63.356  1.00  0.00     0.024 A 
HETATM   15  C   UNL     1       6.995  33.108  63.700  1.00  0.00     0.012 A 
ENDBRANCH   1   9
BRANCH   1  16
HETATM   16  C   UNL     1       5.125  35.628  63.432  1.00  0.00    -0.018 A 
HETATM   17  C   UNL     1       5.743  36.360  62.406  1.00  0.00     0.011 A 
HETATM   18  C   UNL     1       6.140  37.688  62.606  1.00  0.00     0.013 A 
HETATM   19  C   UNL     1       5.931  38.322  63.835  1.00  0.00    -0.023 A 
HETATM   20  C   UNL     1       5.293  37.607  64.854  1.00  0.00     0.013 A 
HETATM   21  C   UNL     1       4.891  36.281  64.657  1.00  0.00     0.011 A 
BRANCH  19  22
HETATM   22  C   UNL     1       6.356  39.696  64.028  1.00  0.00     0.010 A 
HETATM   23  C   UNL     1       6.086  40.609  65.076  1.00  0.00     0.152 A 
HETATM   24  N   UNL     1       6.641  41.806  64.874  1.00  0.00    -0.187 NA
HETATM   25  N   UNL     1       7.280  41.667  63.704  1.00  0.00    -0.289 N 
HETATM   26  H   UNL     1       7.792  42.464  63.338  1.00  0.00     0.188 HD
HETATM   27  C   UNL     1       7.134  40.425  63.151  1.00  0.00     0.123 A 
ENDBRANCH  19  22
ENDBRANCH   1  16
TORSDOF 6
ENDMDL
