MODEL 1
REMARK VINA RESULT:      -8.8      0.000      0.000
REMARK  9 active torsions:
REMARK  status: ('A' for Active; 'I' for Inactive)
REMARK    1  A    between atoms: O_2  and  C_3 
REMARK    2  A    between atoms: C_6  and  C_7 
REMARK    3  A    between atoms: C_13  and  C_14 
REMARK       I    between atoms: C_14  and  N_15 
REMARK    4  A    between atoms: N_15  and  N_16 
REMARK    5  A    between atoms: N_16  and  C_17 
REMARK    6  A    between atoms: C_17  and  N_18 
REMARK    7  A    between atoms: N_18  and  C_19 
REMARK    8  A    between atoms: C_19  and  C_20 
REMARK    9  A    between atoms: C_27  and  C_28 
ROOT
HETATM    1  C   UNL     1       6.588  26.025  53.289  1.00  0.00     0.118 C 
HETATM    2  N   UNL     1       6.958  26.887  54.402  1.00  0.00    -0.365 N 
HETATM    3  C   UNL     1       7.285  26.358  55.606  1.00  0.00     0.138 A 
HETATM    4  N   UNL     1       7.015  25.043  55.884  1.00  0.00    -0.240 N 
HETATM    5  N   UNL     1       7.333  24.675  57.132  1.00  0.00    -0.181 NA
HETATM    6  C   UNL     1       7.850  25.792  57.655  1.00  0.00     0.160 A 
HETATM    7  C   UNL     1       7.867  26.882  56.744  1.00  0.00     0.098 A 
HETATM    8  C   UNL     1       6.395  24.116  54.953  1.00  0.00     0.221 C 
HETATM    9  C   UNL     1       5.688  24.892  53.823  1.00  0.00     0.066 C 
HETATM   10  H   UNL     1       7.191  27.858  54.177  1.00  0.00     0.161 HD
ENDROOT
BRANCH   7  11
HETATM   11  C   UNL     1       8.313  28.251  56.937  1.00  0.00     0.275 C 
HETATM   12  N   UNL     1       7.356  29.249  57.008  1.00  0.00    -0.263 N 
HETATM   13  H   UNL     1       7.738  30.178  57.159  1.00  0.00     0.190 HD
HETATM   14  O   UNL     1       9.501  28.550  57.055  1.00  0.00    -0.266 OA
BRANCH  12  15
HETATM   15  N   UNL     1       6.092  29.026  57.587  1.00  0.00    -0.274 N 
HETATM   16  H   UNL     1       5.792  28.060  57.663  1.00  0.00     0.189 HD
BRANCH  15  17
HETATM   17  C   UNL     1       5.179  30.040  57.728  1.00  0.00     0.186 C 
HETATM   18  S   UNL     1       3.865  30.310  56.730  1.00  0.00    -0.040 SA
BRANCH  17  19
HETATM   19  N   UNL     1       5.390  30.908  58.753  1.00  0.00    -0.360 N 
HETATM   20  H   UNL     1       4.869  30.700  59.597  1.00  0.00     0.162 HD
BRANCH  19  21
HETATM   21  C   UNL     1       6.240  32.085  58.803  1.00  0.00     0.187 C 
BRANCH  21  22
HETATM   22  C   UNL     1       7.392  31.836  59.700  1.00  0.00     0.070 A 
HETATM   23  O   UNL     1       7.942  30.588  59.653  1.00  0.00    -0.325 OA
HETATM   24  C   UNL     1       8.973  30.577  60.537  1.00  0.00     0.142 A 
HETATM   25  C   UNL     1       9.084  31.795  61.162  1.00  0.00     0.027 A 
HETATM   26  C   UNL     1       8.059  32.611  60.627  1.00  0.00     0.036 A 
ENDBRANCH  21  22
ENDBRANCH  19  21
ENDBRANCH  17  19
ENDBRANCH  15  17
ENDBRANCH  12  15
ENDBRANCH   7  11
BRANCH   1  27
HETATM   27  C   UNL     1       5.965  26.846  52.177  1.00  0.00    -0.035 A 
HETATM   28  C   UNL     1       5.451  26.190  51.049  1.00  0.00     0.012 A 
HETATM   29  C   UNL     1       4.842  26.908  50.017  1.00  0.00     0.037 A 
HETATM   30  C   UNL     1       4.728  28.296  50.091  1.00  0.00     0.068 A 
HETATM   31  C   UNL     1       5.276  28.965  51.183  1.00  0.00     0.037 A 
HETATM   32  C   UNL     1       5.898  28.247  52.213  1.00  0.00     0.012 A 
BRANCH  30  33
HETATM   33  O   UNL     1       4.086  28.877  49.032  1.00  0.00    -0.356 OA
HETATM   34  C   UNL     1       2.783  28.389  48.742  1.00  0.00     0.210 C 
ENDBRANCH  30  33
ENDBRANCH   1  27
BRANCH   8  35
HETATM   35  C   UNL     1       7.434  23.154  54.423  1.00  0.00     0.409 C 
HETATM   36  F   UNL     1       8.684  23.670  54.420  1.00  0.00    -0.169 F 
HETATM   37  F   UNL     1       7.478  21.990  55.107  1.00  0.00    -0.169 F 
HETATM   38  F   UNL     1       7.149  22.827  53.135  1.00  0.00    -0.169 F 
ENDBRANCH   8  35
TORSDOF 9
ENDMDL
MODEL 2
REMARK VINA RESULT:      -8.6      3.842      7.722
REMARK  9 active torsions:
REMARK  status: ('A' for Active; 'I' for Inactive)
REMARK    1  A    between atoms: O_2  and  C_3 
REMARK    2  A    between atoms: C_6  and  C_7 
REMARK    3  A    between atoms: C_13  and  C_14 
REMARK       I    between atoms: C_14  and  N_15 
REMARK    4  A    between atoms: N_15  and  N_16 
REMARK    5  A    between atoms: N_16  and  C_17 
REMARK    6  A    between atoms: C_17  and  N_18 
REMARK    7  A    between atoms: N_18  and  C_19 
REMARK    8  A    between atoms: C_19  and  C_20 
REMARK    9  A    between atoms: C_27  and  C_28 
ROOT
HETATM    1  C   UNL     1       7.458  26.427  54.931  1.00  0.00     0.118 C 
HETATM    2  N   UNL     1       6.238  26.992  54.374  1.00  0.00    -0.365 N 
HETATM    3  C   UNL     1       5.786  28.201  54.786  1.00  0.00     0.138 A 
HETATM    4  N   UNL     1       6.303  28.790  55.912  1.00  0.00    -0.240 N 
HETATM    5  N   UNL     1       5.719  29.951  56.235  1.00  0.00    -0.181 NA
HETATM    6  C   UNL     1       4.818  30.119  55.261  1.00  0.00     0.160 A 
HETATM    7  C   UNL     1       4.820  29.065  54.308  1.00  0.00     0.098 A 
HETATM    8  C   UNL     1       7.353  28.212  56.734  1.00  0.00     0.221 C 
HETATM    9  C   UNL     1       7.480  26.702  56.447  1.00  0.00     0.066 C 
HETATM   10  H   UNL     1       5.881  26.567  53.515  1.00  0.00     0.161 HD
ENDROOT
BRANCH   7  11
HETATM   11  C   UNL     1       3.983  28.866  53.138  1.00  0.00     0.275 C 
HETATM   12  N   UNL     1       4.061  29.793  52.111  1.00  0.00    -0.263 N 
HETATM   13  H   UNL     1       3.461  29.583  51.319  1.00  0.00     0.190 HD
HETATM   14  O   UNL     1       3.227  27.903  53.020  1.00  0.00    -0.266 OA
BRANCH  12  15
HETATM   15  N   UNL     1       5.268  30.441  51.785  1.00  0.00    -0.274 N 
HETATM   16  H   UNL     1       5.879  30.676  52.559  1.00  0.00     0.189 HD
BRANCH  15  17
HETATM   17  C   UNL     1       5.459  31.025  50.559  1.00  0.00     0.186 C 
HETATM   18  S   UNL     1       5.135  32.621  50.182  1.00  0.00    -0.040 SA
BRANCH  17  19
HETATM   19  N   UNL     1       5.926  30.217  49.569  1.00  0.00    -0.360 N 
HETATM   20  H   UNL     1       6.931  30.085  49.571  1.00  0.00     0.162 HD
BRANCH  19  21
HETATM   21  C   UNL     1       5.195  29.538  48.514  1.00  0.00     0.187 C 
BRANCH  21  22
HETATM   22  C   UNL     1       4.885  28.151  48.931  1.00  0.00     0.070 A 
HETATM   23  O   UNL     1       5.396  27.746  50.131  1.00  0.00    -0.325 OA
HETATM   24  C   UNL     1       4.993  26.464  50.320  1.00  0.00     0.142 A 
HETATM   25  C   UNL     1       4.243  26.032  49.253  1.00  0.00     0.027 A 
HETATM   26  C   UNL     1       4.175  27.119  48.350  1.00  0.00     0.036 A 
ENDBRANCH  21  22
ENDBRANCH  19  21
ENDBRANCH  17  19
ENDBRANCH  15  17
ENDBRANCH  12  15
ENDBRANCH   7  11
BRANCH   1  27
HETATM   27  C   UNL     1       7.571  24.961  54.559  1.00  0.00    -0.035 A 
HETATM   28  C   UNL     1       7.463  23.991  55.568  1.00  0.00     0.012 A 
HETATM   29  C   UNL     1       7.531  22.629  55.262  1.00  0.00     0.037 A 
HETATM   30  C   UNL     1       7.703  22.206  53.945  1.00  0.00     0.068 A 
HETATM   31  C   UNL     1       7.859  23.159  52.940  1.00  0.00     0.037 A 
HETATM   32  C   UNL     1       7.802  24.525  53.247  1.00  0.00     0.012 A 
BRANCH  30  33
HETATM   33  O   UNL     1       7.724  20.849  53.775  1.00  0.00    -0.356 OA
HETATM   34  C   UNL     1       8.611  20.124  54.616  1.00  0.00     0.210 C 
ENDBRANCH  30  33
ENDBRANCH   1  27
BRANCH   8  35
HETATM   35  C   UNL     1       8.650  28.951  56.496  1.00  0.00     0.409 C 
HETATM   36  F   UNL     1       9.736  28.275  56.936  1.00  0.00    -0.169 F 
HETATM   37  F   UNL     1       8.859  29.253  55.197  1.00  0.00    -0.169 F 
HETATM   38  F   UNL     1       8.638  30.135  57.164  1.00  0.00    -0.169 F 
ENDBRANCH   8  35
TORSDOF 9
ENDMDL
MODEL 3
REMARK VINA RESULT:      -8.6      2.001      2.307
REMARK  9 active torsions:
REMARK  status: ('A' for Active; 'I' for Inactive)
REMARK    1  A    between atoms: O_2  and  C_3 
REMARK    2  A    between atoms: C_6  and  C_7 
REMARK    3  A    between atoms: C_13  and  C_14 
REMARK       I    between atoms: C_14  and  N_15 
REMARK    4  A    between atoms: N_15  and  N_16 
REMARK    5  A    between atoms: N_16  and  C_17 
REMARK    6  A    between atoms: C_17  and  N_18 
REMARK    7  A    between atoms: N_18  and  C_19 
REMARK    8  A    between atoms: C_19  and  C_20 
REMARK    9  A    between atoms: C_27  and  C_28 
ROOT
HETATM    1  C   UNL     1       5.951  26.344  52.473  1.00  0.00     0.118 C 
HETATM    2  N   UNL     1       5.515  27.027  53.681  1.00  0.00    -0.365 N 
HETATM    3  C   UNL     1       5.653  26.440  54.895  1.00  0.00     0.138 A 
HETATM    4  N   UNL     1       5.947  25.104  54.991  1.00  0.00    -0.240 N 
HETATM    5  N   UNL     1       5.990  24.648  56.250  1.00  0.00    -0.181 NA
HETATM    6  C   UNL     1       5.743  25.741  56.978  1.00  0.00     0.160 A 
HETATM    7  C   UNL     1       5.540  26.906  56.191  1.00  0.00     0.098 A 
HETATM    8  C   UNL     1       6.148  24.222  53.854  1.00  0.00     0.221 C 
HETATM    9  C   UNL     1       5.558  24.857  52.579  1.00  0.00     0.066 C 
HETATM   10  H   UNL     1       5.331  28.031  53.604  1.00  0.00     0.161 HD
ENDROOT
BRANCH   7  11
HETATM   11  C   UNL     1       5.221  28.263  56.599  1.00  0.00     0.275 C 
HETATM   12  N   UNL     1       5.917  28.807  57.664  1.00  0.00    -0.263 N 
HETATM   13  H   UNL     1       5.653  29.763  57.885  1.00  0.00     0.190 HD
HETATM   14  O   UNL     1       4.372  28.945  56.025  1.00  0.00    -0.266 OA
BRANCH  12  15
HETATM   15  N   UNL     1       7.268  28.494  57.907  1.00  0.00    -0.274 N 
HETATM   16  H   UNL     1       7.490  27.512  58.032  1.00  0.00     0.189 HD
BRANCH  15  17
HETATM   17  C   UNL     1       8.169  29.455  58.292  1.00  0.00     0.186 C 
HETATM   18  S   UNL     1       9.569  29.857  57.473  1.00  0.00    -0.040 SA
BRANCH  17  19
HETATM   19  N   UNL     1       7.900  30.105  59.456  1.00  0.00    -0.360 N 
HETATM   20  H   UNL     1       6.923  30.337  59.594  1.00  0.00     0.162 HD
BRANCH  19  21
HETATM   21  C   UNL     1       8.809  30.521  60.509  1.00  0.00     0.187 C 
BRANCH  21  22
HETATM   22  C   UNL     1       8.106  31.417  61.455  1.00  0.00     0.070 A 
HETATM   23  O   UNL     1       6.790  31.668  61.195  1.00  0.00    -0.325 OA
HETATM   24  C   UNL     1       6.343  32.495  62.173  1.00  0.00     0.142 A 
HETATM   25  C   UNL     1       7.357  32.793  63.052  1.00  0.00     0.027 A 
HETATM   26  C   UNL     1       8.500  32.101  62.588  1.00  0.00     0.036 A 
ENDBRANCH  21  22
ENDBRANCH  19  21
ENDBRANCH  17  19
ENDBRANCH  15  17
ENDBRANCH  12  15
ENDBRANCH   7  11
BRANCH   1  27
HETATM   27  C   UNL     1       5.403  27.049  51.247  1.00  0.00    -0.035 A 
HETATM   28  C   UNL     1       4.932  26.282  50.171  1.00  0.00     0.012 A 
HETATM   29  C   UNL     1       4.392  26.894  49.037  1.00  0.00     0.037 A 
HETATM   30  C   UNL     1       4.305  28.282  48.954  1.00  0.00     0.068 A 
HETATM   31  C   UNL     1       4.812  29.058  49.995  1.00  0.00     0.037 A 
HETATM   32  C   UNL     1       5.365  28.446  51.128  1.00  0.00     0.012 A 
BRANCH  30  33
HETATM   33  O   UNL     1       3.730  28.756  47.807  1.00  0.00    -0.356 OA
HETATM   34  C   UNL     1       2.691  27.961  47.250  1.00  0.00     0.210 C 
ENDBRANCH  30  33
ENDBRANCH   1  27
BRANCH   8  35
HETATM   35  C   UNL     1       7.620  23.909  53.708  1.00  0.00     0.409 C 
HETATM   36  F   UNL     1       8.423  24.890  54.179  1.00  0.00    -0.169 F 
HETATM   37  F   UNL     1       7.981  22.760  54.321  1.00  0.00    -0.169 F 
HETATM   38  F   UNL     1       7.933  23.753  52.395  1.00  0.00    -0.169 F 
ENDBRANCH   8  35
TORSDOF 9
ENDMDL
MODEL 4
REMARK VINA RESULT:      -8.5      4.513     10.701
REMARK  9 active torsions:
REMARK  status: ('A' for Active; 'I' for Inactive)
REMARK    1  A    between atoms: O_2  and  C_3 
REMARK    2  A    between atoms: C_6  and  C_7 
REMARK    3  A    between atoms: C_13  and  C_14 
REMARK       I    between atoms: C_14  and  N_15 
REMARK    4  A    between atoms: N_15  and  N_16 
REMARK    5  A    between atoms: N_16  and  C_17 
REMARK    6  A    between atoms: C_17  and  N_18 
REMARK    7  A    between atoms: N_18  and  C_19 
REMARK    8  A    between atoms: C_19  and  C_20 
REMARK    9  A    between atoms: C_27  and  C_28 
ROOT
HETATM    1  C   UNL     1       6.905  32.284  62.319  1.00  0.00     0.118 C 
HETATM    2  N   UNL     1       5.818  32.235  61.353  1.00  0.00    -0.365 N 
HETATM    3  C   UNL     1       6.069  32.008  60.041  1.00  0.00     0.138 A 
HETATM    4  N   UNL     1       7.349  32.089  59.554  1.00  0.00    -0.240 N 
HETATM    5  N   UNL     1       7.439  31.903  58.231  1.00  0.00    -0.181 NA
HETATM    6  C   UNL     1       6.174  31.666  57.870  1.00  0.00     0.160 A 
HETATM    7  C   UNL     1       5.265  31.699  58.961  1.00  0.00     0.098 A 
HETATM    8  C   UNL     1       8.518  32.398  60.361  1.00  0.00     0.221 C 
HETATM    9  C   UNL     1       8.087  33.049  61.691  1.00  0.00     0.066 C 
HETATM   10  H   UNL     1       4.870  32.140  61.727  1.00  0.00     0.161 HD
ENDROOT
BRANCH   7  11
HETATM   11  C   UNL     1       3.823  31.524  58.978  1.00  0.00     0.275 C 
HETATM   12  N   UNL     1       3.264  30.603  58.109  1.00  0.00    -0.263 N 
HETATM   13  H   UNL     1       2.254  30.522  58.186  1.00  0.00     0.190 HD
HETATM   14  O   UNL     1       3.089  32.149  59.744  1.00  0.00    -0.266 OA
BRANCH  12  15
HETATM   15  N   UNL     1       3.929  29.412  57.760  1.00  0.00    -0.274 N 
HETATM   16  H   UNL     1       4.514  28.994  58.475  1.00  0.00     0.189 HD
BRANCH  15  17
HETATM   17  C   UNL     1       4.060  29.020  56.452  1.00  0.00     0.186 C 
HETATM   18  S   UNL     1       4.024  30.037  55.125  1.00  0.00    -0.040 SA
BRANCH  17  19
HETATM   19  N   UNL     1       4.203  27.686  56.231  1.00  0.00    -0.360 N 
HETATM   20  H   UNL     1       3.338  27.197  56.029  1.00  0.00     0.162 HD
BRANCH  19  21
HETATM   21  C   UNL     1       5.405  26.873  56.255  1.00  0.00     0.187 C 
BRANCH  21  22
HETATM   22  C   UNL     1       5.515  26.099  54.997  1.00  0.00     0.070 A 
HETATM   23  O   UNL     1       4.903  26.630  53.899  1.00  0.00    -0.325 OA
HETATM   24  C   UNL     1       5.128  25.777  52.868  1.00  0.00     0.142 A 
HETATM   25  C   UNL     1       5.863  24.695  53.291  1.00  0.00     0.027 A 
HETATM   26  C   UNL     1       6.111  24.898  54.669  1.00  0.00     0.036 A 
ENDBRANCH  21  22
ENDBRANCH  19  21
ENDBRANCH  17  19
ENDBRANCH  15  17
ENDBRANCH  12  15
ENDBRANCH   7  11
BRANCH   1  27
HETATM   27  C   UNL     1       6.412  32.864  63.630  1.00  0.00    -0.035 A 
HETATM   28  C   UNL     1       7.348  33.256  64.599  1.00  0.00     0.012 A 
HETATM   29  C   UNL     1       6.935  33.823  65.808  1.00  0.00     0.037 A 
HETATM   30  C   UNL     1       5.581  34.015  66.074  1.00  0.00     0.068 A 
HETATM   31  C   UNL     1       4.638  33.588  65.141  1.00  0.00     0.037 A 
HETATM   32  C   UNL     1       5.050  33.008  63.934  1.00  0.00     0.012 A 
BRANCH  30  33
HETATM   33  O   UNL     1       5.309  34.605  67.277  1.00  0.00    -0.356 OA
HETATM   34  C   UNL     1       6.311  34.482  68.279  1.00  0.00     0.210 C 
ENDBRANCH  30  33
ENDBRANCH   1  27
BRANCH   8  35
HETATM   35  C   UNL     1       9.334  31.144  60.575  1.00  0.00     0.409 C 
HETATM   36  F   UNL     1      10.062  31.170  61.715  1.00  0.00    -0.169 F 
HETATM   37  F   UNL     1       8.585  30.021  60.598  1.00  0.00    -0.169 F 
HETATM   38  F   UNL     1      10.220  30.988  59.556  1.00  0.00    -0.169 F 
ENDBRANCH   8  35
TORSDOF 9
ENDMDL
MODEL 5
REMARK VINA RESULT:      -8.3      3.955      8.467
REMARK  9 active torsions:
REMARK  status: ('A' for Active; 'I' for Inactive)
REMARK    1  A    between atoms: O_2  and  C_3 
REMARK    2  A    between atoms: C_6  and  C_7 
REMARK    3  A    between atoms: C_13  and  C_14 
REMARK       I    between atoms: C_14  and  N_15 
REMARK    4  A    between atoms: N_15  and  N_16 
REMARK    5  A    between atoms: N_16  and  C_17 
REMARK    6  A    between atoms: C_17  and  N_18 
REMARK    7  A    between atoms: N_18  and  C_19 
REMARK    8  A    between atoms: C_19  and  C_20 
REMARK    9  A    between atoms: C_27  and  C_28 
ROOT
HETATM    1  C   UNL     1       6.673  25.794  55.220  1.00  0.00     0.118 C 
HETATM    2  N   UNL     1       5.939  26.239  54.045  1.00  0.00    -0.365 N 
HETATM    3  C   UNL     1       5.183  27.363  54.087  1.00  0.00     0.138 A 
HETATM    4  N   UNL     1       4.874  27.948  55.289  1.00  0.00    -0.240 N 
HETATM    5  N   UNL     1       4.069  29.013  55.183  1.00  0.00    -0.181 NA
HETATM    6  C   UNL     1       3.884  29.124  53.863  1.00  0.00     0.160 A 
HETATM    7  C   UNL     1       4.571  28.130  53.115  1.00  0.00     0.098 A 
HETATM    8  C   UNL     1       5.318  27.456  56.582  1.00  0.00     0.221 C 
HETATM    9  C   UNL     1       5.779  25.989  56.461  1.00  0.00     0.066 C 
HETATM   10  H   UNL     1       6.202  25.820  53.150  1.00  0.00     0.161 HD
ENDROOT
BRANCH   7  11
HETATM   11  C   UNL     1       4.599  27.895  51.682  1.00  0.00     0.275 C 
HETATM   12  N   UNL     1       3.399  27.914  50.992  1.00  0.00    -0.263 N 
HETATM   13  H   UNL     1       3.494  27.757  49.992  1.00  0.00     0.190 HD
HETATM   14  O   UNL     1       5.644  27.698  51.063  1.00  0.00    -0.266 OA
BRANCH  12  15
HETATM   15  N   UNL     1       2.343  28.770  51.359  1.00  0.00    -0.274 N 
HETATM   16  H   UNL     1       1.744  28.453  52.114  1.00  0.00     0.189 HD
BRANCH  15  17
HETATM   17  C   UNL     1       1.933  29.794  50.543  1.00  0.00     0.186 C 
HETATM   18  S   UNL     1       2.201  31.421  50.816  1.00  0.00    -0.040 SA
BRANCH  17  19
HETATM   19  N   UNL     1       1.225  29.440  49.436  1.00  0.00    -0.360 N 
HETATM   20  H   UNL     1       0.257  29.195  49.615  1.00  0.00     0.162 HD
BRANCH  19  21
HETATM   21  C   UNL     1       1.661  29.352  48.054  1.00  0.00     0.187 C 
BRANCH  21  22
HETATM   22  C   UNL     1       2.274  28.027  47.804  1.00  0.00     0.070 A 
HETATM   23  O   UNL     1       3.625  27.937  47.981  1.00  0.00    -0.325 OA
HETATM   24  C   UNL     1       3.975  26.655  47.708  1.00  0.00     0.142 A 
HETATM   25  C   UNL     1       2.871  25.922  47.343  1.00  0.00     0.027 A 
HETATM   26  C   UNL     1       1.770  26.808  47.399  1.00  0.00     0.036 A 
ENDBRANCH  21  22
ENDBRANCH  19  21
ENDBRANCH  17  19
ENDBRANCH  15  17
ENDBRANCH  12  15
ENDBRANCH   7  11
BRANCH   1  27
HETATM   27  C   UNL     1       7.165  24.374  55.022  1.00  0.00    -0.035 A 
HETATM   28  C   UNL     1       7.196  23.836  53.726  1.00  0.00     0.012 A 
HETATM   29  C   UNL     1       7.672  22.542  53.498  1.00  0.00     0.037 A 
HETATM   30  C   UNL     1       8.130  21.759  54.556  1.00  0.00     0.068 A 
HETATM   31  C   UNL     1       8.061  22.262  55.853  1.00  0.00     0.037 A 
HETATM   32  C   UNL     1       7.574  23.555  56.085  1.00  0.00     0.012 A 
BRANCH  30  33
HETATM   33  O   UNL     1       8.596  20.524  54.197  1.00  0.00    -0.356 OA
HETATM   34  C   UNL     1       8.580  20.225  52.807  1.00  0.00     0.210 C 
ENDBRANCH  30  33
ENDBRANCH   1  27
BRANCH   8  35
HETATM   35  C   UNL     1       6.407  28.355  57.122  1.00  0.00     0.409 C 
HETATM   36  F   UNL     1       7.271  27.713  57.940  1.00  0.00    -0.169 F 
HETATM   37  F   UNL     1       7.134  28.950  56.151  1.00  0.00    -0.169 F 
HETATM   38  F   UNL     1       5.858  29.360  57.854  1.00  0.00    -0.169 F 
ENDBRANCH   8  35
TORSDOF 9
ENDMDL
MODEL 6
REMARK VINA RESULT:      -8.2      4.515      9.129
REMARK  9 active torsions:
REMARK  status: ('A' for Active; 'I' for Inactive)
REMARK    1  A    between atoms: O_2  and  C_3 
REMARK    2  A    between atoms: C_6  and  C_7 
REMARK    3  A    between atoms: C_13  and  C_14 
REMARK       I    between atoms: C_14  and  N_15 
REMARK    4  A    between atoms: N_15  and  N_16 
REMARK    5  A    between atoms: N_16  and  C_17 
REMARK    6  A    between atoms: C_17  and  N_18 
REMARK    7  A    between atoms: N_18  and  C_19 
REMARK    8  A    between atoms: C_19  and  C_20 
REMARK    9  A    between atoms: C_27  and  C_28 
ROOT
HETATM    1  C   UNL     1       6.600  26.488  54.415  1.00  0.00     0.118 C 
HETATM    2  N   UNL     1       6.248  27.043  53.117  1.00  0.00    -0.365 N 
HETATM    3  C   UNL     1       5.428  28.117  53.024  1.00  0.00     0.138 A 
HETATM    4  N   UNL     1       4.702  28.534  54.111  1.00  0.00    -0.240 N 
HETATM    5  N   UNL     1       3.888  29.567  53.857  1.00  0.00    -0.181 NA
HETATM    6  C   UNL     1       4.128  29.833  52.568  1.00  0.00     0.160 A 
HETATM    7  C   UNL     1       5.098  28.972  51.990  1.00  0.00     0.098 A 
HETATM    8  C   UNL     1       4.747  27.905  55.420  1.00  0.00     0.221 C 
HETATM    9  C   UNL     1       5.342  26.487  55.307  1.00  0.00     0.066 C 
HETATM   10  H   UNL     1       6.818  26.751  52.319  1.00  0.00     0.161 HD
ENDROOT
BRANCH   7  11
HETATM   11  C   UNL     1       5.603  28.919  50.629  1.00  0.00     0.275 C 
HETATM   12  N   UNL     1       5.410  27.756  49.903  1.00  0.00    -0.263 N 
HETATM   13  H   UNL     1       5.775  27.794  48.955  1.00  0.00     0.190 HD
HETATM   14  O   UNL     1       6.178  29.869  50.098  1.00  0.00    -0.266 OA
BRANCH  12  15
HETATM   15  N   UNL     1       4.257  26.963  50.061  1.00  0.00    -0.274 N 
HETATM   16  H   UNL     1       4.241  26.343  50.864  1.00  0.00     0.189 HD
BRANCH  15  17
HETATM   17  C   UNL     1       3.367  26.778  49.034  1.00  0.00     0.186 C 
HETATM   18  S   UNL     1       3.532  25.669  47.794  1.00  0.00    -0.040 SA
BRANCH  17  19
HETATM   19  N   UNL     1       2.279  27.593  49.021  1.00  0.00    -0.360 N 
HETATM   20  H   UNL     1       1.531  27.308  49.644  1.00  0.00     0.162 HD
BRANCH  19  21
HETATM   21  C   UNL     1       2.036  28.793  48.240  1.00  0.00     0.187 C 
BRANCH  21  22
HETATM   22  C   UNL     1       0.944  28.549  47.270  1.00  0.00     0.070 A 
HETATM   23  O   UNL     1       0.197  29.632  46.907  1.00  0.00    -0.325 OA
HETATM   24  C   UNL     1      -0.731  29.194  46.019  1.00  0.00     0.142 A 
HETATM   25  C   UNL     1      -0.603  27.841  45.818  1.00  0.00     0.027 A 
HETATM   26  C   UNL     1       0.476  27.419  46.629  1.00  0.00     0.036 A 
ENDBRANCH  21  22
ENDBRANCH  19  21
ENDBRANCH  17  19
ENDBRANCH  15  17
ENDBRANCH  12  15
ENDBRANCH   7  11
BRANCH   1  27
HETATM   27  C   UNL     1       7.246  25.127  54.244  1.00  0.00    -0.035 A 
HETATM   28  C   UNL     1       7.361  24.583  52.956  1.00  0.00     0.012 A 
HETATM   29  C   UNL     1       7.977  23.345  52.753  1.00  0.00     0.037 A 
HETATM   30  C   UNL     1       8.495  22.627  53.829  1.00  0.00     0.068 A 
HETATM   31  C   UNL     1       8.346  23.133  55.119  1.00  0.00     0.037 A 
HETATM   32  C   UNL     1       7.717  24.368  55.325  1.00  0.00     0.012 A 
BRANCH  30  33
HETATM   33  O   UNL     1       9.099  21.446  53.495  1.00  0.00    -0.356 OA
HETATM   34  C   UNL     1       8.277  20.480  52.851  1.00  0.00     0.210 C 
ENDBRANCH  30  33
ENDBRANCH   1  27
BRANCH   8  35
HETATM   35  C   UNL     1       5.527  28.778  56.377  1.00  0.00     0.409 C 
HETATM   36  F   UNL     1       4.756  29.686  57.018  1.00  0.00    -0.169 F 
HETATM   37  F   UNL     1       6.190  28.073  57.319  1.00  0.00    -0.169 F 
HETATM   38  F   UNL     1       6.469  29.484  55.698  1.00  0.00    -0.169 F 
ENDBRANCH   8  35
TORSDOF 9
ENDMDL
MODEL 7
REMARK VINA RESULT:      -7.9      4.484      9.306
REMARK  9 active torsions:
REMARK  status: ('A' for Active; 'I' for Inactive)
REMARK    1  A    between atoms: O_2  and  C_3 
REMARK    2  A    between atoms: C_6  and  C_7 
REMARK    3  A    between atoms: C_13  and  C_14 
REMARK       I    between atoms: C_14  and  N_15 
REMARK    4  A    between atoms: N_15  and  N_16 
REMARK    5  A    between atoms: N_16  and  C_17 
REMARK    6  A    between atoms: C_17  and  N_18 
REMARK    7  A    between atoms: N_18  and  C_19 
REMARK    8  A    between atoms: C_19  and  C_20 
REMARK    9  A    between atoms: C_27  and  C_28 
ROOT
HETATM    1  C   UNL     1       6.041  31.759  58.651  1.00  0.00     0.118 C 
HETATM    2  N   UNL     1       6.665  30.613  58.007  1.00  0.00    -0.365 N 
HETATM    3  C   UNL     1       6.083  30.022  56.935  1.00  0.00     0.138 A 
HETATM    4  N   UNL     1       4.784  30.307  56.604  1.00  0.00    -0.240 N 
HETATM    5  N   UNL     1       4.322  29.603  55.562  1.00  0.00    -0.181 NA
HETATM    6  C   UNL     1       5.378  28.866  55.202  1.00  0.00     0.160 A 
HETATM    7  C   UNL     1       6.523  29.093  56.011  1.00  0.00     0.098 A 
HETATM    8  C   UNL     1       3.937  31.242  57.325  1.00  0.00     0.221 C 
HETATM    9  C   UNL     1       4.520  31.513  58.727  1.00  0.00     0.066 C 
HETATM   10  H   UNL     1       7.645  30.431  58.236  1.00  0.00     0.161 HD
ENDROOT
BRANCH   7  11
HETATM   11  C   UNL     1       7.836  28.475  55.962  1.00  0.00     0.275 C 
HETATM   12  N   UNL     1       8.248  27.724  57.050  1.00  0.00    -0.263 N 
HETATM   13  H   UNL     1       9.170  27.310  56.940  1.00  0.00     0.190 HD
HETATM   14  O   UNL     1       8.582  28.582  54.989  1.00  0.00    -0.266 OA
BRANCH  12  15
HETATM   15  N   UNL     1       7.343  26.962  57.813  1.00  0.00    -0.274 N 
HETATM   16  H   UNL     1       7.229  27.234  58.783  1.00  0.00     0.189 HD
BRANCH  15  17
HETATM   17  C   UNL     1       6.903  25.734  57.388  1.00  0.00     0.186 C 
HETATM   18  S   UNL     1       5.400  25.416  56.729  1.00  0.00    -0.040 SA
BRANCH  17  19
HETATM   19  N   UNL     1       7.763  24.693  57.550  1.00  0.00    -0.360 N 
HETATM   20  H   UNL     1       7.685  24.216  58.441  1.00  0.00     0.162 HD
BRANCH  19  21
HETATM   21  C   UNL     1       8.775  24.186  56.641  1.00  0.00     0.187 C 
BRANCH  21  22
HETATM   22  C   UNL     1       8.401  22.828  56.181  1.00  0.00     0.070 A 
HETATM   23  O   UNL     1       8.403  21.842  57.125  1.00  0.00    -0.325 OA
HETATM   24  C   UNL     1       8.031  20.696  56.502  1.00  0.00     0.142 A 
HETATM   25  C   UNL     1       7.805  20.926  55.166  1.00  0.00     0.027 A 
HETATM   26  C   UNL     1       8.048  22.304  54.954  1.00  0.00     0.036 A 
ENDBRANCH  21  22
ENDBRANCH  19  21
ENDBRANCH  17  19
ENDBRANCH  15  17
ENDBRANCH  12  15
ENDBRANCH   7  11
BRANCH   1  27
HETATM   27  C   UNL     1       6.698  32.027  59.991  1.00  0.00    -0.035 A 
HETATM   28  C   UNL     1       6.071  32.894  60.898  1.00  0.00     0.012 A 
HETATM   29  C   UNL     1       6.628  33.143  62.155  1.00  0.00     0.037 A 
HETATM   30  C   UNL     1       7.820  32.528  62.536  1.00  0.00     0.068 A 
HETATM   31  C   UNL     1       8.478  31.701  61.627  1.00  0.00     0.037 A 
HETATM   32  C   UNL     1       7.926  31.460  60.362  1.00  0.00     0.012 A 
BRANCH  30  33
HETATM   33  O   UNL     1       8.246  32.830  63.800  1.00  0.00    -0.356 OA
HETATM   34  C   UNL     1       7.320  33.526  64.625  1.00  0.00     0.210 C 
ENDBRANCH  30  33
ENDBRANCH   1  27
BRANCH   8  35
HETATM   35  C   UNL     1       3.777  32.510  56.517  1.00  0.00     0.409 C 
HETATM   36  F   UNL     1       3.580  33.608  57.282  1.00  0.00    -0.169 F 
HETATM   37  F   UNL     1       4.830  32.762  55.710  1.00  0.00    -0.169 F 
HETATM   38  F   UNL     1       2.691  32.408  55.705  1.00  0.00    -0.169 F 
ENDBRANCH   8  35
TORSDOF 9
ENDMDL
MODEL 8
REMARK VINA RESULT:      -7.9      3.079      5.522
REMARK  9 active torsions:
REMARK  status: ('A' for Active; 'I' for Inactive)
REMARK    1  A    between atoms: O_2  and  C_3 
REMARK    2  A    between atoms: C_6  and  C_7 
REMARK    3  A    between atoms: C_13  and  C_14 
REMARK       I    between atoms: C_14  and  N_15 
REMARK    4  A    between atoms: N_15  and  N_16 
REMARK    5  A    between atoms: N_16  and  C_17 
REMARK    6  A    between atoms: C_17  and  N_18 
REMARK    7  A    between atoms: N_18  and  C_19 
REMARK    8  A    between atoms: C_19  and  C_20 
REMARK    9  A    between atoms: C_27  and  C_28 
ROOT
HETATM    1  C   UNL     1       6.110  25.140  52.891  1.00  0.00     0.118 C 
HETATM    2  N   UNL     1       5.955  26.213  53.862  1.00  0.00    -0.365 N 
HETATM    3  C   UNL     1       5.582  27.454  53.466  1.00  0.00     0.138 A 
HETATM    4  N   UNL     1       5.607  27.797  52.139  1.00  0.00    -0.240 N 
HETATM    5  N   UNL     1       5.274  29.073  51.901  1.00  0.00    -0.181 NA
HETATM    6  C   UNL     1       5.000  29.547  53.121  1.00  0.00     0.160 A 
HETATM    7  C   UNL     1       5.155  28.578  54.148  1.00  0.00     0.098 A 
HETATM    8  C   UNL     1       6.002  26.902  51.065  1.00  0.00     0.221 C 
HETATM    9  C   UNL     1       6.798  25.710  51.635  1.00  0.00     0.066 C 
HETATM   10  H   UNL     1       5.902  25.942  54.847  1.00  0.00     0.161 HD
ENDROOT
BRANCH   7  11
HETATM   11  C   UNL     1       4.985  28.707  55.584  1.00  0.00     0.275 C 
HETATM   12  N   UNL     1       6.120  28.786  56.374  1.00  0.00    -0.263 N 
HETATM   13  H   UNL     1       5.926  28.890  57.366  1.00  0.00     0.190 HD
HETATM   14  O   UNL     1       3.878  28.764  56.118  1.00  0.00    -0.266 OA
BRANCH  12  15
HETATM   15  N   UNL     1       7.292  29.426  55.929  1.00  0.00    -0.274 N 
HETATM   16  H   UNL     1       7.368  29.587  54.931  1.00  0.00     0.189 HD
BRANCH  15  17
HETATM   17  C   UNL     1       8.405  29.520  56.725  1.00  0.00     0.186 C 
HETATM   18  S   UNL     1       9.983  29.620  56.182  1.00  0.00    -0.040 SA
BRANCH  17  19
HETATM   19  N   UNL     1       8.192  29.499  58.069  1.00  0.00    -0.360 N 
HETATM   20  H   UNL     1       7.628  28.722  58.395  1.00  0.00     0.162 HD
BRANCH  19  21
HETATM   21  C   UNL     1       8.644  30.431  59.086  1.00  0.00     0.187 C 
BRANCH  21  22
HETATM   22  C   UNL     1       7.511  31.273  59.535  1.00  0.00     0.070 A 
HETATM   23  O   UNL     1       7.404  31.486  60.879  1.00  0.00    -0.325 OA
HETATM   24  C   UNL     1       6.317  32.276  61.069  1.00  0.00     0.142 A 
HETATM   25  C   UNL     1       5.714  32.563  59.868  1.00  0.00     0.027 A 
HETATM   26  C   UNL     1       6.481  31.912  58.874  1.00  0.00     0.036 A 
ENDBRANCH  21  22
ENDBRANCH  19  21
ENDBRANCH  17  19
ENDBRANCH  15  17
ENDBRANCH  12  15
ENDBRANCH   7  11
BRANCH   1  27
HETATM   27  C   UNL     1       6.833  23.966  53.522  1.00  0.00    -0.035 A 
HETATM   28  C   UNL     1       6.845  23.842  54.919  1.00  0.00     0.012 A 
HETATM   29  C   UNL     1       7.474  22.758  55.537  1.00  0.00     0.037 A 
HETATM   30  C   UNL     1       8.101  21.773  54.775  1.00  0.00     0.068 A 
HETATM   31  C   UNL     1       8.138  21.909  53.388  1.00  0.00     0.037 A 
HETATM   32  C   UNL     1       7.517  23.001  52.768  1.00  0.00     0.012 A 
BRANCH  30  33
HETATM   33  O   UNL     1       8.653  20.751  55.497  1.00  0.00    -0.356 OA
HETATM   34  C   UNL     1       8.472  20.807  56.906  1.00  0.00     0.210 C 
ENDBRANCH  30  33
ENDBRANCH   1  27
BRANCH   8  35
HETATM   35  C   UNL     1       4.779  26.458  50.296  1.00  0.00     0.409 C 
HETATM   36  F   UNL     1       4.891  26.646  48.961  1.00  0.00    -0.169 F 
HETATM   37  F   UNL     1       4.468  25.159  50.497  1.00  0.00    -0.169 F 
HETATM   38  F   UNL     1       3.695  27.174  50.695  1.00  0.00    -0.169 F 
ENDBRANCH   8  35
TORSDOF 9
ENDMDL
MODEL 9
REMARK VINA RESULT:      -7.9      7.735     10.550
REMARK  9 active torsions:
REMARK  status: ('A' for Active; 'I' for Inactive)
REMARK    1  A    between atoms: O_2  and  C_3 
REMARK    2  A    between atoms: C_6  and  C_7 
REMARK    3  A    between atoms: C_13  and  C_14 
REMARK       I    between atoms: C_14  and  N_15 
REMARK    4  A    between atoms: N_15  and  N_16 
REMARK    5  A    between atoms: N_16  and  C_17 
REMARK    6  A    between atoms: C_17  and  N_18 
REMARK    7  A    between atoms: N_18  and  C_19 
REMARK    8  A    between atoms: C_19  and  C_20 
REMARK    9  A    between atoms: C_27  and  C_28 
ROOT
HETATM    1  C   UNL     1       6.729  32.683  61.600  1.00  0.00     0.118 C 
HETATM    2  N   UNL     1       5.383  33.050  61.187  1.00  0.00    -0.365 N 
HETATM    3  C   UNL     1       4.476  33.483  62.096  1.00  0.00     0.138 A 
HETATM    4  N   UNL     1       4.709  33.328  63.439  1.00  0.00    -0.240 N 
HETATM    5  N   UNL     1       3.701  33.743  64.216  1.00  0.00    -0.181 NA
HETATM    6  C   UNL     1       2.807  34.204  63.335  1.00  0.00     0.160 A 
HETATM    7  C   UNL     1       3.239  34.088  61.986  1.00  0.00     0.098 A 
HETATM    8  C   UNL     1       5.906  32.726  64.002  1.00  0.00     0.221 C 
HETATM    9  C   UNL     1       6.641  31.901  62.926  1.00  0.00     0.066 C 
HETATM   10  H   UNL     1       5.230  33.197  60.186  1.00  0.00     0.161 HD
ENDROOT
BRANCH   7  11
HETATM   11  C   UNL     1       2.554  34.441  60.755  1.00  0.00     0.275 C 
HETATM   12  N   UNL     1       2.122  35.747  60.597  1.00  0.00    -0.263 N 
HETATM   13  H   UNL     1       1.666  35.927  59.708  1.00  0.00     0.190 HD
HETATM   14  O   UNL     1       2.361  33.632  59.849  1.00  0.00    -0.266 OA
BRANCH  12  15
HETATM   15  N   UNL     1       2.841  36.837  61.125  1.00  0.00    -0.274 N 
HETATM   16  H   UNL     1       2.325  37.473  61.722  1.00  0.00     0.189 HD
BRANCH  15  17
HETATM   17  C   UNL     1       4.053  37.216  60.606  1.00  0.00     0.186 C 
HETATM   18  S   UNL     1       4.318  37.739  59.041  1.00  0.00    -0.040 SA
BRANCH  17  19
HETATM   19  N   UNL     1       5.124  37.124  61.439  1.00  0.00    -0.360 N 
HETATM   20  H   UNL     1       5.957  36.732  61.015  1.00  0.00     0.162 HD
BRANCH  19  21
HETATM   21  C   UNL     1       5.235  37.495  62.839  1.00  0.00     0.187 C 
BRANCH  21  22
HETATM   22  C   UNL     1       6.155  38.647  62.982  1.00  0.00     0.070 A 
HETATM   23  O   UNL     1       6.789  39.065  61.849  1.00  0.00    -0.325 OA
HETATM   24  C   UNL     1       7.568  40.121  62.198  1.00  0.00     0.142 A 
HETATM   25  C   UNL     1       7.456  40.377  63.543  1.00  0.00     0.027 A 
HETATM   26  C   UNL     1       6.546  39.423  64.055  1.00  0.00     0.036 A 
ENDBRANCH  21  22
ENDBRANCH  19  21
ENDBRANCH  17  19
ENDBRANCH  15  17
ENDBRANCH  12  15
ENDBRANCH   7  11
BRANCH   1  27
HETATM   27  C   UNL     1       7.433  31.938  60.482  1.00  0.00    -0.035 A 
HETATM   28  C   UNL     1       8.768  31.544  60.658  1.00  0.00     0.012 A 
HETATM   29  C   UNL     1       9.442  30.830  59.664  1.00  0.00     0.037 A 
HETATM   30  C   UNL     1       8.797  30.490  58.476  1.00  0.00     0.068 A 
HETATM   31  C   UNL     1       7.487  30.916  58.267  1.00  0.00     0.037 A 
HETATM   32  C   UNL     1       6.814  31.642  59.258  1.00  0.00     0.012 A 
BRANCH  30  33
HETATM   33  O   UNL     1       9.555  29.766  57.597  1.00  0.00    -0.356 OA
HETATM   34  C   UNL     1      10.840  30.295  57.290  1.00  0.00     0.210 C 
ENDBRANCH  30  33
ENDBRANCH   1  27
BRANCH   8  35
HETATM   35  C   UNL     1       6.785  33.803  64.598  1.00  0.00     0.409 C 
HETATM   36  F   UNL     1       6.599  35.016  64.030  1.00  0.00    -0.169 F 
HETATM   37  F   UNL     1       6.617  33.948  65.930  1.00  0.00    -0.169 F 
HETATM   38  F   UNL     1       8.094  33.487  64.412  1.00  0.00    -0.169 F 
ENDBRANCH   8  35
TORSDOF 9
ENDMDL
MODEL 10
REMARK VINA RESULT:      -7.9      1.963      3.084
REMARK  9 active torsions:
REMARK  status: ('A' for Active; 'I' for Inactive)
REMARK    1  A    between atoms: O_2  and  C_3 
REMARK    2  A    between atoms: C_6  and  C_7 
REMARK    3  A    between atoms: C_13  and  C_14 
REMARK       I    between atoms: C_14  and  N_15 
REMARK    4  A    between atoms: N_15  and  N_16 
REMARK    5  A    between atoms: N_16  and  C_17 
REMARK    6  A    between atoms: C_17  and  N_18 
REMARK    7  A    between atoms: N_18  and  C_19 
REMARK    8  A    between atoms: C_19  and  C_20 
REMARK    9  A    between atoms: C_27  and  C_28 
ROOT
HETATM    1  C   UNL     1       6.197  26.160  52.645  1.00  0.00     0.118 C 
HETATM    2  N   UNL     1       6.649  27.189  53.570  1.00  0.00    -0.365 N 
HETATM    3  C   UNL     1       7.126  26.856  54.793  1.00  0.00     0.138 A 
HETATM    4  N   UNL     1       6.943  25.590  55.290  1.00  0.00    -0.240 N 
HETATM    5  N   UNL     1       7.409  25.423  56.534  1.00  0.00    -0.181 NA
HETATM    6  C   UNL     1       7.933  26.618  56.826  1.00  0.00     0.160 A 
HETATM    7  C   UNL     1       7.805  27.559  55.769  1.00  0.00     0.098 A 
HETATM    8  C   UNL     1       6.264  24.519  54.581  1.00  0.00     0.221 C 
HETATM    9  C   UNL     1       5.408  25.099  53.437  1.00  0.00     0.066 C 
HETATM   10  H   UNL     1       6.815  28.120  53.180  1.00  0.00     0.161 HD
ENDROOT
BRANCH   7  11
HETATM   11  C   UNL     1       8.213  28.952  55.708  1.00  0.00     0.275 C 
HETATM   12  N   UNL     1       7.301  29.919  56.095  1.00  0.00    -0.263 N 
HETATM   13  H   UNL     1       7.658  30.869  56.041  1.00  0.00     0.190 HD
HETATM   14  O   UNL     1       9.335  29.298  55.342  1.00  0.00    -0.266 OA
BRANCH  12  15
HETATM   15  N   UNL     1       6.373  29.693  57.129  1.00  0.00    -0.274 N 
HETATM   16  H   UNL     1       5.714  28.935  56.989  1.00  0.00     0.189 HD
BRANCH  15  17
HETATM   17  C   UNL     1       6.139  30.633  58.101  1.00  0.00     0.186 C 
HETATM   18  S   UNL     1       7.309  31.374  59.037  1.00  0.00    -0.040 SA
BRANCH  17  19
HETATM   19  N   UNL     1       4.838  30.956  58.331  1.00  0.00    -0.360 N 
HETATM   20  H   UNL     1       4.350  30.326  58.957  1.00  0.00     0.162 HD
BRANCH  19  21
HETATM   21  C   UNL     1       4.056  32.059  57.799  1.00  0.00     0.187 C 
BRANCH  21  22
HETATM   22  C   UNL     1       3.731  31.804  56.377  1.00  0.00     0.070 A 
HETATM   23  O   UNL     1       4.774  31.843  55.497  1.00  0.00    -0.325 OA
HETATM   24  C   UNL     1       4.263  31.581  54.267  1.00  0.00     0.142 A 
HETATM   25  C   UNL     1       2.905  31.389  54.340  1.00  0.00     0.027 A 
HETATM   26  C   UNL     1       2.556  31.538  55.703  1.00  0.00     0.036 A 
ENDBRANCH  21  22
ENDBRANCH  19  21
ENDBRANCH  17  19
ENDBRANCH  15  17
ENDBRANCH  12  15
ENDBRANCH   7  11
BRANCH   1  27
HETATM   27  C   UNL     1       5.423  26.789  51.502  1.00  0.00    -0.035 A 
HETATM   28  C   UNL     1       5.023  25.986  50.424  1.00  0.00     0.012 A 
HETATM   29  C   UNL     1       4.282  26.521  49.367  1.00  0.00     0.037 A 
HETATM   30  C   UNL     1       3.922  27.867  49.365  1.00  0.00     0.068 A 
HETATM   31  C   UNL     1       4.353  28.688  50.405  1.00  0.00     0.037 A 
HETATM   32  C   UNL     1       5.106  28.155  51.460  1.00  0.00     0.012 A 
BRANCH  30  33
HETATM   33  O   UNL     1       3.174  28.261  48.290  1.00  0.00    -0.356 OA
HETATM   34  C   UNL     1       1.972  27.535  48.060  1.00  0.00     0.210 C 
ENDBRANCH  30  33
ENDBRANCH   1  27
BRANCH   8  35
HETATM   35  C   UNL     1       7.279  23.514  54.084  1.00  0.00     0.409 C 
HETATM   36  F   UNL     1       6.955  22.978  52.886  1.00  0.00    -0.169 F 
HETATM   37  F   UNL     1       8.524  24.028  53.975  1.00  0.00    -0.169 F 
HETATM   38  F   UNL     1       7.371  22.477  54.958  1.00  0.00    -0.169 F 
ENDBRANCH   8  35
TORSDOF 9
ENDMDL
