MODEL 1
REMARK VINA RESULT:     -10.3      0.000      0.000
REMARK  9 active torsions:
REMARK  status: ('A' for Active; 'I' for Inactive)
REMARK    1  A    between atoms: C_4  and  S_5 
REMARK    2  A    between atoms: S_5  and  C_6 
REMARK    3  A    between atoms: C_6  and  C_7 
REMARK       I    between atoms: C_7  and  N_8 
REMARK    4  A    between atoms: N_8  and  C_9 
REMARK    5  A    between atoms: C_10  and  O_11 
REMARK    6  A    between atoms: C_16  and  O_17 
REMARK    7  A    between atoms: C_24  and  C_25 
REMARK    8  A    between atoms: C_31  and  C_32 
REMARK       I    between atoms: C_32  and  N_33 
REMARK    9  A    between atoms: N_33  and  C_34 
ROOT
HETATM    1  C   UNL     1       3.557  29.537  55.944  1.00  0.00     0.069 C 
HETATM    2  C   UNL     1       5.034  29.268  56.081  1.00  0.00     0.019 C 
HETATM    3  N   UNL     1       5.638  29.760  57.230  1.00  0.00    -0.353 N 
HETATM    4  C   UNL     1       7.006  29.899  57.389  1.00  0.00     0.087 C 
HETATM    5  C   UNL     1       7.832  29.259  56.533  1.00  0.00     0.055 C 
HETATM    6  C   UNL     1       9.341  29.441  56.546  1.00  0.00     0.019 C 
HETATM    7  N   UNL     1      10.592  29.591  56.556  1.00  0.00    -0.096 N 
HETATM    8  C   UNL     1       7.268  28.349  55.446  1.00  0.00     0.104 C 
HETATM    9  C   UNL     1       5.784  28.599  55.172  1.00  0.00     0.046 C 
HETATM   10  H   UNL     1       5.069  30.310  57.868  1.00  0.00     0.166 HD
ENDROOT
BRANCH   4  11
HETATM   11  S   UNL     1       7.640  30.854  58.699  1.00  0.00    -0.102 SA
BRANCH  11  12
HETATM   12  C   UNL     1       6.522  32.304  58.644  1.00  0.00     0.184 C 
BRANCH  12  13
HETATM   13  C   UNL     1       5.665  32.214  59.894  1.00  0.00     0.231 C 
HETATM   14  N   UNL     1       6.284  31.514  60.913  1.00  0.00    -0.324 N 
HETATM   15  H   UNL     1       6.871  30.717  60.688  1.00  0.00     0.169 HD
HETATM   16  O   UNL     1       4.603  32.820  60.006  1.00  0.00    -0.272 OA
BRANCH  14  17
HETATM   17  C   UNL     1       6.425  31.981  62.240  1.00  0.00     0.071 A 
HETATM   18  C   UNL     1       7.721  32.300  62.679  1.00  0.00     0.096 A 
HETATM   19  C   UNL     1       7.897  32.923  63.913  1.00  0.00     0.065 A 
HETATM   20  C   UNL     1       6.786  33.212  64.712  1.00  0.00     0.070 A 
HETATM   21 CL   UNL     1       7.066  34.033  66.210  1.00  0.00    -0.081 Cl
HETATM   22  C   UNL     1       5.489  32.872  64.299  1.00  0.00     0.092 A 
HETATM   23  C   UNL     1       5.323  32.244  63.062  1.00  0.00     0.071 A 
BRANCH  18  24
HETATM   24  O   UNL     1       8.746  32.024  61.804  1.00  0.00    -0.354 OA
HETATM   25  C   UNL     1       9.385  30.765  62.008  1.00  0.00     0.210 C 
ENDBRANCH  18  24
BRANCH  22  26
HETATM   26  O   UNL     1       4.458  33.215  65.136  1.00  0.00    -0.354 OA
HETATM   27  C   UNL     1       3.720  34.393  64.826  1.00  0.00     0.210 C 
ENDBRANCH  22  26
ENDBRANCH  14  17
ENDBRANCH  12  13
ENDBRANCH  11  12
ENDBRANCH   4  11
BRANCH   8  28
HETATM   28  C   UNL     1       7.558  26.888  55.811  1.00  0.00    -0.044 A 
HETATM   29  C   UNL     1       7.935  26.521  57.116  1.00  0.00     0.008 A 
HETATM   30  C   UNL     1       8.213  25.190  57.431  1.00  0.00     0.001 A 
HETATM   31  C   UNL     1       8.131  24.210  56.445  1.00  0.00     0.000 A 
HETATM   32  C   UNL     1       7.773  24.559  55.145  1.00  0.00     0.001 A 
HETATM   33  C   UNL     1       7.490  25.889  54.827  1.00  0.00     0.008 A 
ENDBRANCH   8  28
BRANCH   9  34
HETATM   34  C   UNL     1       5.246  28.299  53.805  1.00  0.00     0.255 C 
HETATM   35  N   UNL     1       5.830  29.021  52.792  1.00  0.00    -0.323 N 
HETATM   36  H   UNL     1       6.620  29.611  53.021  1.00  0.00     0.169 HD
HETATM   37  O   UNL     1       4.313  27.509  53.693  1.00  0.00    -0.268 OA
BRANCH  35  38
HETATM   38  C   UNL     1       5.435  29.068  51.437  1.00  0.00     0.035 A 
HETATM   39  C   UNL     1       5.418  27.962  50.588  1.00  0.00     0.029 A 
HETATM   40  C   UNL     1       4.991  28.091  49.262  1.00  0.00     0.002 A 
HETATM   41  C   UNL     1       4.569  29.326  48.777  1.00  0.00     0.000 A 
HETATM   42  C   UNL     1       4.583  30.438  49.616  1.00  0.00     0.002 A 
HETATM   43  C   UNL     1       5.021  30.310  50.937  1.00  0.00     0.029 A 
ENDBRANCH  35  38
ENDBRANCH   9  34
TORSDOF 9
ENDMDL
MODEL 2
REMARK VINA RESULT:     -10.1      3.639      9.904
REMARK  9 active torsions:
REMARK  status: ('A' for Active; 'I' for Inactive)
REMARK    1  A    between atoms: C_4  and  S_5 
REMARK    2  A    between atoms: S_5  and  C_6 
REMARK    3  A    between atoms: C_6  and  C_7 
REMARK       I    between atoms: C_7  and  N_8 
REMARK    4  A    between atoms: N_8  and  C_9 
REMARK    5  A    between atoms: C_10  and  O_11 
REMARK    6  A    between atoms: C_16  and  O_17 
REMARK    7  A    between atoms: C_24  and  C_25 
REMARK    8  A    between atoms: C_31  and  C_32 
REMARK       I    between atoms: C_32  and  N_33 
REMARK    9  A    between atoms: N_33  and  C_34 
ROOT
HETATM    1  C   UNL     1       5.251  33.510  57.939  1.00  0.00     0.069 C 
HETATM    2  C   UNL     1       5.630  32.062  57.764  1.00  0.00     0.019 C 
HETATM    3  N   UNL     1       4.921  31.360  56.799  1.00  0.00    -0.353 N 
HETATM    4  C   UNL     1       4.892  29.979  56.709  1.00  0.00     0.087 C 
HETATM    5  C   UNL     1       5.818  29.261  57.380  1.00  0.00     0.055 C 
HETATM    6  C   UNL     1       5.800  27.742  57.445  1.00  0.00     0.019 C 
HETATM    7  N   UNL     1       5.786  26.483  57.499  1.00  0.00    -0.096 N 
HETATM    8  C   UNL     1       6.915  29.960  58.176  1.00  0.00     0.104 C 
HETATM    9  C   UNL     1       6.590  31.424  58.478  1.00  0.00     0.046 C 
HETATM   10  H   UNL     1       4.166  31.843  56.319  1.00  0.00     0.166 HD
ENDROOT
BRANCH   4  11
HETATM   11  S   UNL     1       3.700  29.195  55.712  1.00  0.00    -0.102 SA
BRANCH  11  12
HETATM   12  C   UNL     1       4.059  29.949  54.083  1.00  0.00     0.184 C 
BRANCH  12  13
HETATM   13  C   UNL     1       4.170  28.792  53.105  1.00  0.00     0.231 C 
HETATM   14  N   UNL     1       5.481  28.470  52.811  1.00  0.00    -0.324 N 
HETATM   15  H   UNL     1       6.176  29.207  52.746  1.00  0.00     0.169 HD
HETATM   16  O   UNL     1       3.191  28.147  52.740  1.00  0.00    -0.272 OA
BRANCH  14  17
HETATM   17  C   UNL     1       6.025  27.167  52.884  1.00  0.00     0.071 A 
HETATM   18  C   UNL     1       6.165  26.456  51.681  1.00  0.00     0.096 A 
HETATM   19  C   UNL     1       6.849  25.241  51.673  1.00  0.00     0.065 A 
HETATM   20  C   UNL     1       7.377  24.732  52.864  1.00  0.00     0.070 A 
HETATM   21 CL   UNL     1       8.259  23.245  52.779  1.00  0.00    -0.081 Cl
HETATM   22  C   UNL     1       7.218  25.416  54.078  1.00  0.00     0.092 A 
HETATM   23  C   UNL     1       6.527  26.631  54.076  1.00  0.00     0.071 A 
BRANCH  18  24
HETATM   24  O   UNL     1       5.658  27.060  50.553  1.00  0.00    -0.354 OA
HETATM   25  C   UNL     1       4.620  26.332  49.900  1.00  0.00     0.210 C 
ENDBRANCH  18  24
BRANCH  22  26
HETATM   26  O   UNL     1       7.789  24.854  55.190  1.00  0.00    -0.354 OA
HETATM   27  C   UNL     1       7.127  23.739  55.780  1.00  0.00     0.210 C 
ENDBRANCH  22  26
ENDBRANCH  14  17
ENDBRANCH  12  13
ENDBRANCH  11  12
ENDBRANCH   4  11
BRANCH   8  28
HETATM   28  C   UNL     1       8.252  29.797  57.441  1.00  0.00    -0.044 A 
HETATM   29  C   UNL     1       9.477  30.046  58.086  1.00  0.00     0.008 A 
HETATM   30  C   UNL     1      10.685  29.909  57.401  1.00  0.00     0.001 A 
HETATM   31  C   UNL     1      10.686  29.536  56.060  1.00  0.00     0.000 A 
HETATM   32  C   UNL     1       9.481  29.300  55.403  1.00  0.00     0.001 A 
HETATM   33  C   UNL     1       8.270  29.431  56.086  1.00  0.00     0.008 A 
ENDBRANCH   8  28
BRANCH   9  34
HETATM   34  C   UNL     1       7.179  32.051  59.705  1.00  0.00     0.255 C 
HETATM   35  N   UNL     1       6.414  31.912  60.839  1.00  0.00    -0.323 N 
HETATM   36  H   UNL     1       5.586  31.332  60.787  1.00  0.00     0.169 HD
HETATM   37  O   UNL     1       8.229  32.680  59.607  1.00  0.00    -0.268 OA
BRANCH  35  38
HETATM   38  C   UNL     1       6.628  32.518  62.096  1.00  0.00     0.035 A 
HETATM   39  C   UNL     1       7.715  32.238  62.925  1.00  0.00     0.029 A 
HETATM   40  C   UNL     1       7.864  32.901  64.147  1.00  0.00     0.002 A 
HETATM   41  C   UNL     1       6.934  33.856  64.547  1.00  0.00     0.000 A 
HETATM   42  C   UNL     1       5.845  34.143  63.728  1.00  0.00     0.002 A 
HETATM   43  C   UNL     1       5.689  33.471  62.513  1.00  0.00     0.029 A 
ENDBRANCH  35  38
ENDBRANCH   9  34
TORSDOF 9
ENDMDL
MODEL 3
REMARK VINA RESULT:     -10.1      1.673      4.577
REMARK  9 active torsions:
REMARK  status: ('A' for Active; 'I' for Inactive)
REMARK    1  A    between atoms: C_4  and  S_5 
REMARK    2  A    between atoms: S_5  and  C_6 
REMARK    3  A    between atoms: C_6  and  C_7 
REMARK       I    between atoms: C_7  and  N_8 
REMARK    4  A    between atoms: N_8  and  C_9 
REMARK    5  A    between atoms: C_10  and  O_11 
REMARK    6  A    between atoms: C_16  and  O_17 
REMARK    7  A    between atoms: C_24  and  C_25 
REMARK    8  A    between atoms: C_31  and  C_32 
REMARK       I    between atoms: C_32  and  N_33 
REMARK    9  A    between atoms: N_33  and  C_34 
ROOT
HETATM    1  C   UNL     1       9.104  28.033  57.023  1.00  0.00     0.069 C 
HETATM    2  C   UNL     1       7.704  28.451  56.655  1.00  0.00     0.019 C 
HETATM    3  N   UNL     1       7.405  29.796  56.828  1.00  0.00    -0.353 N 
HETATM    4  C   UNL     1       6.119  30.308  56.856  1.00  0.00     0.087 C 
HETATM    5  C   UNL     1       5.103  29.547  56.398  1.00  0.00     0.055 C 
HETATM    6  C   UNL     1       3.645  29.966  56.495  1.00  0.00     0.019 C 
HETATM    7  N   UNL     1       2.436  30.314  56.576  1.00  0.00    -0.096 N 
HETATM    8  C   UNL     1       5.373  28.168  55.803  1.00  0.00     0.104 C 
HETATM    9  C   UNL     1       6.746  27.615  56.186  1.00  0.00     0.046 C 
HETATM   10  H   UNL     1       8.119  30.393  57.237  1.00  0.00     0.166 HD
ENDROOT
BRANCH   4  11
HETATM   11  S   UNL     1       5.837  31.925  57.438  1.00  0.00    -0.102 SA
BRANCH  11  12
HETATM   12  C   UNL     1       6.841  31.923  58.969  1.00  0.00     0.184 C 
BRANCH  12  13
HETATM   13  C   UNL     1       5.915  32.403  60.073  1.00  0.00     0.231 C 
HETATM   14  N   UNL     1       5.980  31.609  61.202  1.00  0.00    -0.324 N 
HETATM   15  H   UNL     1       6.113  30.608  61.104  1.00  0.00     0.169 HD
HETATM   16  O   UNL     1       5.292  33.459  59.993  1.00  0.00    -0.272 OA
BRANCH  14  17
HETATM   17  C   UNL     1       6.182  32.094  62.515  1.00  0.00     0.071 A 
HETATM   18  C   UNL     1       7.506  32.317  62.927  1.00  0.00     0.096 A 
HETATM   19  C   UNL     1       7.753  32.952  64.142  1.00  0.00     0.065 A 
HETATM   20  C   UNL     1       6.683  33.347  64.951  1.00  0.00     0.070 A 
HETATM   21 CL   UNL     1       7.054  34.176  66.425  1.00  0.00    -0.081 Cl
HETATM   22  C   UNL     1       5.356  33.103  64.568  1.00  0.00     0.092 A 
HETATM   23  C   UNL     1       5.119  32.462  63.348  1.00  0.00     0.071 A 
BRANCH  18  24
HETATM   24  O   UNL     1       8.491  31.940  62.042  1.00  0.00    -0.354 OA
HETATM   25  C   UNL     1       9.041  30.645  62.276  1.00  0.00     0.210 C 
ENDBRANCH  18  24
BRANCH  22  26
HETATM   26  O   UNL     1       4.370  33.546  65.411  1.00  0.00    -0.354 OA
HETATM   27  C   UNL     1       3.595  34.664  64.991  1.00  0.00     0.210 C 
ENDBRANCH  22  26
ENDBRANCH  14  17
ENDBRANCH  12  13
ENDBRANCH  11  12
ENDBRANCH   4  11
BRANCH   8  28
HETATM   28  C   UNL     1       5.166  28.225  54.285  1.00  0.00    -0.044 A 
HETATM   29  C   UNL     1       6.257  28.292  53.399  1.00  0.00     0.008 A 
HETATM   30  C   UNL     1       6.055  28.360  52.021  1.00  0.00     0.001 A 
HETATM   31  C   UNL     1       4.761  28.377  51.508  1.00  0.00     0.000 A 
HETATM   32  C   UNL     1       3.669  28.326  52.371  1.00  0.00     0.001 A 
HETATM   33  C   UNL     1       3.867  28.253  53.751  1.00  0.00     0.008 A 
ENDBRANCH   8  28
BRANCH   9  34
HETATM   34  C   UNL     1       6.928  26.128  56.248  1.00  0.00     0.255 C 
HETATM   35  N   UNL     1       7.594  25.591  55.172  1.00  0.00    -0.323 N 
HETATM   36  H   UNL     1       7.986  26.226  54.488  1.00  0.00     0.169 HD
HETATM   37  O   UNL     1       6.434  25.506  57.184  1.00  0.00    -0.268 OA
BRANCH  35  38
HETATM   38  C   UNL     1       7.781  24.223  54.877  1.00  0.00     0.035 A 
HETATM   39  C   UNL     1       8.283  23.288  55.783  1.00  0.00     0.029 A 
HETATM   40  C   UNL     1       8.417  21.945  55.417  1.00  0.00     0.002 A 
HETATM   41  C   UNL     1       8.040  21.523  54.145  1.00  0.00     0.000 A 
HETATM   42  C   UNL     1       7.538  22.447  53.232  1.00  0.00     0.002 A 
HETATM   43  C   UNL     1       7.417  23.791  53.595  1.00  0.00     0.029 A 
ENDBRANCH  35  38
ENDBRANCH   9  34
TORSDOF 9
ENDMDL
MODEL 4
REMARK VINA RESULT:     -10.0      4.267     10.371
REMARK  9 active torsions:
REMARK  status: ('A' for Active; 'I' for Inactive)
REMARK    1  A    between atoms: C_4  and  S_5 
REMARK    2  A    between atoms: S_5  and  C_6 
REMARK    3  A    between atoms: C_6  and  C_7 
REMARK       I    between atoms: C_7  and  N_8 
REMARK    4  A    between atoms: N_8  and  C_9 
REMARK    5  A    between atoms: C_10  and  O_11 
REMARK    6  A    between atoms: C_16  and  O_17 
REMARK    7  A    between atoms: C_24  and  C_25 
REMARK    8  A    between atoms: C_31  and  C_32 
REMARK       I    between atoms: C_32  and  N_33 
REMARK    9  A    between atoms: N_33  and  C_34 
ROOT
HETATM    1  C   UNL     1       4.395  29.981  54.653  1.00  0.00     0.069 C 
HETATM    2  C   UNL     1       5.428  29.150  55.370  1.00  0.00     0.019 C 
HETATM    3  N   UNL     1       5.951  28.080  54.657  1.00  0.00    -0.353 N 
HETATM    4  C   UNL     1       6.651  27.032  55.231  1.00  0.00     0.087 C 
HETATM    5  C   UNL     1       7.125  27.174  56.487  1.00  0.00     0.055 C 
HETATM    6  C   UNL     1       7.799  26.045  57.250  1.00  0.00     0.019 C 
HETATM    7  N   UNL     1       8.358  25.110  57.883  1.00  0.00    -0.096 N 
HETATM    8  C   UNL     1       6.946  28.489  57.240  1.00  0.00     0.104 C 
HETATM    9  C   UNL     1       5.858  29.377  56.635  1.00  0.00     0.046 C 
HETATM   10  H   UNL     1       5.570  27.893  53.733  1.00  0.00     0.166 HD
ENDROOT
BRANCH   4  11
HETATM   11  S   UNL     1       6.941  25.576  54.323  1.00  0.00    -0.102 SA
BRANCH  11  12
HETATM   12  C   UNL     1       5.370  25.427  53.394  1.00  0.00     0.184 C 
BRANCH  12  13
HETATM   13  C   UNL     1       5.755  25.425  51.925  1.00  0.00     0.231 C 
HETATM   14  N   UNL     1       4.736  25.882  51.109  1.00  0.00    -0.324 N 
HETATM   15  H   UNL     1       3.773  25.664  51.342  1.00  0.00     0.169 HD
HETATM   16  O   UNL     1       6.895  25.171  51.546  1.00  0.00    -0.272 OA
BRANCH  14  17
HETATM   17  C   UNL     1       4.882  26.889  50.128  1.00  0.00     0.071 A 
HETATM   18  C   UNL     1       4.204  26.710  48.911  1.00  0.00     0.096 A 
HETATM   19  C   UNL     1       4.173  27.745  47.979  1.00  0.00     0.065 A 
HETATM   20  C   UNL     1       4.831  28.948  48.254  1.00  0.00     0.070 A 
HETATM   21 CL   UNL     1       4.714  30.214  47.078  1.00  0.00    -0.081 Cl
HETATM   22  C   UNL     1       5.538  29.130  49.451  1.00  0.00     0.092 A 
HETATM   23  C   UNL     1       5.566  28.084  50.378  1.00  0.00     0.071 A 
BRANCH  18  24
HETATM   24  O   UNL     1       3.544  25.512  48.751  1.00  0.00    -0.354 OA
HETATM   25  C   UNL     1       3.029  25.283  47.441  1.00  0.00     0.210 C 
ENDBRANCH  18  24
BRANCH  22  26
HETATM   26  O   UNL     1       6.133  30.350  49.646  1.00  0.00    -0.354 OA
HETATM   27  C   UNL     1       5.455  31.290  50.474  1.00  0.00     0.210 C 
ENDBRANCH  22  26
ENDBRANCH  14  17
ENDBRANCH  12  13
ENDBRANCH  11  12
ENDBRANCH   4  11
BRANCH   8  28
HETATM   28  C   UNL     1       8.301  29.204  57.333  1.00  0.00    -0.044 A 
HETATM   29  C   UNL     1       8.704  29.856  58.513  1.00  0.00     0.008 A 
HETATM   30  C   UNL     1       9.931  30.516  58.579  1.00  0.00     0.001 A 
HETATM   31  C   UNL     1      10.766  30.546  57.465  1.00  0.00     0.000 A 
HETATM   32  C   UNL     1      10.375  29.917  56.285  1.00  0.00     0.001 A 
HETATM   33  C   UNL     1       9.150  29.251  56.216  1.00  0.00     0.008 A 
ENDBRANCH   8  28
BRANCH   9  34
HETATM   34  C   UNL     1       5.131  30.332  57.533  1.00  0.00     0.255 C 
HETATM   35  N   UNL     1       5.860  31.441  57.894  1.00  0.00    -0.323 N 
HETATM   36  H   UNL     1       6.766  31.576  57.464  1.00  0.00     0.169 HD
HETATM   37  O   UNL     1       4.004  30.042  57.924  1.00  0.00    -0.268 OA
BRANCH  35  38
HETATM   38  C   UNL     1       5.504  32.428  58.838  1.00  0.00     0.035 A 
HETATM   39  C   UNL     1       4.578  33.444  58.599  1.00  0.00     0.029 A 
HETATM   40  C   UNL     1       4.267  34.371  59.599  1.00  0.00     0.002 A 
HETATM   41  C   UNL     1       4.871  34.284  60.850  1.00  0.00     0.000 A 
HETATM   42  C   UNL     1       5.798  33.274  61.100  1.00  0.00     0.002 A 
HETATM   43  C   UNL     1       6.118  32.357  60.097  1.00  0.00     0.029 A 
ENDBRANCH  35  38
ENDBRANCH   9  34
TORSDOF 9
ENDMDL
MODEL 5
REMARK VINA RESULT:      -9.9      1.837      3.013
REMARK  9 active torsions:
REMARK  status: ('A' for Active; 'I' for Inactive)
REMARK    1  A    between atoms: C_4  and  S_5 
REMARK    2  A    between atoms: S_5  and  C_6 
REMARK    3  A    between atoms: C_6  and  C_7 
REMARK       I    between atoms: C_7  and  N_8 
REMARK    4  A    between atoms: N_8  and  C_9 
REMARK    5  A    between atoms: C_10  and  O_11 
REMARK    6  A    between atoms: C_16  and  O_17 
REMARK    7  A    between atoms: C_24  and  C_25 
REMARK    8  A    between atoms: C_31  and  C_32 
REMARK       I    between atoms: C_32  and  N_33 
REMARK    9  A    between atoms: N_33  and  C_34 
ROOT
HETATM    1  C   UNL     1       3.165  29.639  53.555  1.00  0.00     0.069 C 
HETATM    2  C   UNL     1       4.547  29.223  53.989  1.00  0.00     0.019 C 
HETATM    3  N   UNL     1       4.856  29.435  55.325  1.00  0.00    -0.353 N 
HETATM    4  C   UNL     1       6.142  29.423  55.837  1.00  0.00     0.087 C 
HETATM    5  C   UNL     1       7.135  28.888  55.094  1.00  0.00     0.055 C 
HETATM    6  C   UNL     1       8.596  28.933  55.510  1.00  0.00     0.019 C 
HETATM    7  N   UNL     1       9.808  28.971  55.855  1.00  0.00    -0.096 N 
HETATM    8  C   UNL     1       6.835  28.251  53.741  1.00  0.00     0.104 C 
HETATM    9  C   UNL     1       5.481  28.675  53.172  1.00  0.00     0.046 C 
HETATM   10  H   UNL     1       4.163  29.901  55.905  1.00  0.00     0.166 HD
ENDROOT
BRANCH   4  11
HETATM   11  S   UNL     1       6.454  30.056  57.428  1.00  0.00    -0.102 SA
BRANCH  11  12
HETATM   12  C   UNL     1       4.806  30.724  57.865  1.00  0.00     0.184 C 
BRANCH  12  13
HETATM   13  C   UNL     1       5.064  32.069  58.521  1.00  0.00     0.231 C 
HETATM   14  N   UNL     1       4.665  32.100  59.844  1.00  0.00    -0.324 N 
HETATM   15  H   UNL     1       3.834  31.591  60.128  1.00  0.00     0.169 HD
HETATM   16  O   UNL     1       5.685  32.966  57.955  1.00  0.00    -0.272 OA
BRANCH  14  17
HETATM   17  C   UNL     1       5.475  32.533  60.919  1.00  0.00     0.071 A 
HETATM   18  C   UNL     1       4.907  33.436  61.834  1.00  0.00     0.096 A 
HETATM   19  C   UNL     1       5.597  33.762  63.000  1.00  0.00     0.065 A 
HETATM   20  C   UNL     1       6.855  33.201  63.244  1.00  0.00     0.070 A 
HETATM   21 CL   UNL     1       7.639  33.605  64.734  1.00  0.00    -0.081 Cl
HETATM   22  C   UNL     1       7.447  32.322  62.325  1.00  0.00     0.092 A 
HETATM   23  C   UNL     1       6.749  32.005  61.156  1.00  0.00     0.071 A 
BRANCH  18  24
HETATM   24  O   UNL     1       3.645  33.896  61.534  1.00  0.00    -0.354 OA
HETATM   25  C   UNL     1       2.749  33.950  62.642  1.00  0.00     0.210 C 
ENDBRANCH  18  24
BRANCH  22  26
HETATM   26  O   UNL     1       8.671  31.802  62.658  1.00  0.00    -0.354 OA
HETATM   27  C   UNL     1       9.103  30.633  61.967  1.00  0.00     0.210 C 
ENDBRANCH  22  26
ENDBRANCH  14  17
ENDBRANCH  12  13
ENDBRANCH  11  12
ENDBRANCH   4  11
BRANCH   8  28
HETATM   28  C   UNL     1       6.970  26.728  53.860  1.00  0.00    -0.044 A 
HETATM   29  C   UNL     1       6.372  26.020  54.918  1.00  0.00     0.008 A 
HETATM   30  C   UNL     1       6.517  24.637  55.023  1.00  0.00     0.001 A 
HETATM   31  C   UNL     1       7.271  23.943  54.082  1.00  0.00     0.000 A 
HETATM   32  C   UNL     1       7.882  24.630  53.036  1.00  0.00     0.001 A 
HETATM   33  C   UNL     1       7.736  26.014  52.924  1.00  0.00     0.008 A 
ENDBRANCH   8  28
BRANCH   9  34
HETATM   34  C   UNL     1       5.299  28.685  51.684  1.00  0.00     0.255 C 
HETATM   35  N   UNL     1       4.342  27.813  51.221  1.00  0.00    -0.323 N 
HETATM   36  H   UNL     1       3.781  27.317  51.902  1.00  0.00     0.169 HD
HETATM   37  O   UNL     1       6.032  29.394  51.000  1.00  0.00    -0.268 OA
BRANCH  35  38
HETATM   38  C   UNL     1       4.056  27.492  49.876  1.00  0.00     0.035 A 
HETATM   39  C   UNL     1       4.665  26.453  49.172  1.00  0.00     0.029 A 
HETATM   40  C   UNL     1       4.307  26.188  47.847  1.00  0.00     0.002 A 
HETATM   41  C   UNL     1       3.330  26.953  47.216  1.00  0.00     0.000 A 
HETATM   42  C   UNL     1       2.715  27.994  47.910  1.00  0.00     0.002 A 
HETATM   43  C   UNL     1       3.082  28.266  49.229  1.00  0.00     0.029 A 
ENDBRANCH  35  38
ENDBRANCH   9  34
TORSDOF 9
ENDMDL
MODEL 6
REMARK VINA RESULT:      -9.8      4.104     10.913
REMARK  9 active torsions:
REMARK  status: ('A' for Active; 'I' for Inactive)
REMARK    1  A    between atoms: C_4  and  S_5 
REMARK    2  A    between atoms: S_5  and  C_6 
REMARK    3  A    between atoms: C_6  and  C_7 
REMARK       I    between atoms: C_7  and  N_8 
REMARK    4  A    between atoms: N_8  and  C_9 
REMARK    5  A    between atoms: C_10  and  O_11 
REMARK    6  A    between atoms: C_16  and  O_17 
REMARK    7  A    between atoms: C_24  and  C_25 
REMARK    8  A    between atoms: C_31  and  C_32 
REMARK       I    between atoms: C_32  and  N_33 
REMARK    9  A    between atoms: N_33  and  C_34 
ROOT
HETATM    1  C   UNL     1       5.105  33.173  57.913  1.00  0.00     0.069 C 
HETATM    2  C   UNL     1       5.627  31.771  57.733  1.00  0.00     0.019 C 
HETATM    3  N   UNL     1       5.025  31.021  56.732  1.00  0.00    -0.353 N 
HETATM    4  C   UNL     1       5.132  29.645  56.621  1.00  0.00     0.087 C 
HETATM    5  C   UNL     1       6.098  29.007  57.317  1.00  0.00     0.055 C 
HETATM    6  C   UNL     1       6.224  27.493  57.360  1.00  0.00     0.019 C 
HETATM    7  N   UNL     1       6.329  26.238  57.396  1.00  0.00    -0.096 N 
HETATM    8  C   UNL     1       7.093  29.795  58.163  1.00  0.00     0.104 C 
HETATM    9  C   UNL     1       6.618  31.215  58.473  1.00  0.00     0.046 C 
HETATM   10  H   UNL     1       4.245  31.437  56.230  1.00  0.00     0.166 HD
ENDROOT
BRANCH   4  11
HETATM   11  S   UNL     1       4.058  28.768  55.569  1.00  0.00    -0.102 SA
BRANCH  11  12
HETATM   12  C   UNL     1       5.143  28.487  54.121  1.00  0.00     0.184 C 
BRANCH  12  13
HETATM   13  C   UNL     1       4.320  28.874  52.905  1.00  0.00     0.231 C 
HETATM   14  N   UNL     1       5.044  28.801  51.730  1.00  0.00    -0.324 N 
HETATM   15  H   UNL     1       6.027  29.053  51.731  1.00  0.00     0.169 HD
HETATM   16  O   UNL     1       3.112  29.090  52.972  1.00  0.00    -0.272 OA
BRANCH  14  17
HETATM   17  C   UNL     1       4.623  28.115  50.567  1.00  0.00     0.071 A 
HETATM   18  C   UNL     1       5.004  26.769  50.436  1.00  0.00     0.096 A 
HETATM   19  C   UNL     1       4.477  26.001  49.399  1.00  0.00     0.065 A 
HETATM   20  C   UNL     1       3.586  26.578  48.489  1.00  0.00     0.070 A 
HETATM   21 CL   UNL     1       2.927  25.558  47.255  1.00  0.00    -0.081 Cl
HETATM   22  C   UNL     1       3.220  27.928  48.589  1.00  0.00     0.092 A 
HETATM   23  C   UNL     1       3.758  28.692  49.630  1.00  0.00     0.071 A 
BRANCH  18  24
HETATM   24  O   UNL     1       5.844  26.276  51.407  1.00  0.00    -0.354 OA
HETATM   25  C   UNL     1       5.300  25.211  52.185  1.00  0.00     0.210 C 
ENDBRANCH  18  24
BRANCH  22  26
HETATM   26  O   UNL     1       2.324  28.403  47.667  1.00  0.00    -0.354 OA
HETATM   27  C   UNL     1       2.704  29.542  46.901  1.00  0.00     0.210 C 
ENDBRANCH  22  26
ENDBRANCH  14  17
ENDBRANCH  12  13
ENDBRANCH  11  12
ENDBRANCH   4  11
BRANCH   8  28
HETATM   28  C   UNL     1       8.465  29.773  57.478  1.00  0.00    -0.044 A 
HETATM   29  C   UNL     1       8.600  29.428  56.121  1.00  0.00     0.008 A 
HETATM   30  C   UNL     1       9.856  29.396  55.514  1.00  0.00     0.001 A 
HETATM   31  C   UNL     1      10.995  29.694  56.256  1.00  0.00     0.000 A 
HETATM   32  C   UNL     1      10.880  30.023  57.604  1.00  0.00     0.001 A 
HETATM   33  C   UNL     1       9.625  30.061  58.215  1.00  0.00     0.008 A 
ENDBRANCH   8  28
BRANCH   9  34
HETATM   34  C   UNL     1       7.098  31.874  59.730  1.00  0.00     0.255 C 
HETATM   35  N   UNL     1       6.397  31.527  60.860  1.00  0.00    -0.323 N 
HETATM   36  H   UNL     1       5.695  30.802  60.781  1.00  0.00     0.169 HD
HETATM   37  O   UNL     1       8.006  32.698  59.661  1.00  0.00    -0.268 OA
BRANCH  35  38
HETATM   38  C   UNL     1       6.515  32.091  62.148  1.00  0.00     0.035 A 
HETATM   39  C   UNL     1       7.731  32.339  62.786  1.00  0.00     0.029 A 
HETATM   40  C   UNL     1       7.760  32.923  64.057  1.00  0.00     0.002 A 
HETATM   41  C   UNL     1       6.574  33.272  64.697  1.00  0.00     0.000 A 
HETATM   42  C   UNL     1       5.354  33.029  64.070  1.00  0.00     0.002 A 
HETATM   43  C   UNL     1       5.326  32.434  62.806  1.00  0.00     0.029 A 
ENDBRANCH  35  38
ENDBRANCH   9  34
TORSDOF 9
ENDMDL
MODEL 7
REMARK VINA RESULT:      -9.8      4.120     10.459
REMARK  9 active torsions:
REMARK  status: ('A' for Active; 'I' for Inactive)
REMARK    1  A    between atoms: C_4  and  S_5 
REMARK    2  A    between atoms: S_5  and  C_6 
REMARK    3  A    between atoms: C_6  and  C_7 
REMARK       I    between atoms: C_7  and  N_8 
REMARK    4  A    between atoms: N_8  and  C_9 
REMARK    5  A    between atoms: C_10  and  O_11 
REMARK    6  A    between atoms: C_16  and  O_17 
REMARK    7  A    between atoms: C_24  and  C_25 
REMARK    8  A    between atoms: C_31  and  C_32 
REMARK       I    between atoms: C_32  and  N_33 
REMARK    9  A    between atoms: N_33  and  C_34 
ROOT
HETATM    1  C   UNL     1       4.306  31.614  55.820  1.00  0.00     0.069 C 
HETATM    2  C   UNL     1       5.219  30.506  56.278  1.00  0.00     0.019 C 
HETATM    3  N   UNL     1       5.267  29.382  55.466  1.00  0.00    -0.353 N 
HETATM    4  C   UNL     1       5.779  28.158  55.862  1.00  0.00     0.087 C 
HETATM    5  C   UNL     1       6.547  28.100  56.972  1.00  0.00     0.055 C 
HETATM    6  C   UNL     1       7.056  26.794  57.559  1.00  0.00     0.019 C 
HETATM    7  N   UNL     1       7.478  25.711  58.047  1.00  0.00    -0.096 N 
HETATM    8  C   UNL     1       6.895  29.370  57.742  1.00  0.00     0.104 C 
HETATM    9  C   UNL     1       5.969  30.541  57.407  1.00  0.00     0.046 C 
HETATM   10  H   UNL     1       4.652  29.353  54.657  1.00  0.00     0.166 HD
ENDROOT
BRANCH   4  11
HETATM   11  S   UNL     1       5.463  26.731  54.916  1.00  0.00    -0.102 SA
BRANCH  11  12
HETATM   12  C   UNL     1       7.001  26.624  53.927  1.00  0.00     0.184 C 
BRANCH  12  13
HETATM   13  C   UNL     1       6.584  26.086  52.569  1.00  0.00     0.231 C 
HETATM   14  N   UNL     1       5.302  26.466  52.219  1.00  0.00    -0.324 N 
HETATM   15  H   UNL     1       4.587  26.536  52.936  1.00  0.00     0.169 HD
HETATM   16  O   UNL     1       7.367  25.497  51.828  1.00  0.00    -0.272 OA
BRANCH  14  17
HETATM   17  C   UNL     1       4.948  27.066  50.988  1.00  0.00     0.071 A 
HETATM   18  C   UNL     1       4.972  28.469  50.921  1.00  0.00     0.096 A 
HETATM   19  C   UNL     1       4.800  29.104  49.693  1.00  0.00     0.065 A 
HETATM   20  C   UNL     1       4.589  28.342  48.539  1.00  0.00     0.070 A 
HETATM   21 CL   UNL     1       4.433  29.188  47.037  1.00  0.00    -0.081 Cl
HETATM   22  C   UNL     1       4.532  26.942  48.596  1.00  0.00     0.092 A 
HETATM   23  C   UNL     1       4.701  26.314  49.833  1.00  0.00     0.071 A 
BRANCH  18  24
HETATM   24  O   UNL     1       5.237  29.131  52.098  1.00  0.00    -0.354 OA
HETATM   25  C   UNL     1       4.385  30.243  52.364  1.00  0.00     0.210 C 
ENDBRANCH  18  24
BRANCH  22  26
HETATM   26  O   UNL     1       4.344  26.276  47.412  1.00  0.00    -0.354 OA
HETATM   27  C   UNL     1       3.209  25.422  47.308  1.00  0.00     0.210 C 
ENDBRANCH  22  26
ENDBRANCH  14  17
ENDBRANCH  12  13
ENDBRANCH  11  12
ENDBRANCH   4  11
BRANCH   8  28
HETATM   28  C   UNL     1       8.373  29.708  57.514  1.00  0.00    -0.044 A 
HETATM   29  C   UNL     1       9.019  29.388  56.306  1.00  0.00     0.008 A 
HETATM   30  C   UNL     1      10.369  29.686  56.118  1.00  0.00     0.001 A 
HETATM   31  C   UNL     1      11.096  30.296  57.137  1.00  0.00     0.000 A 
HETATM   32  C   UNL     1      10.474  30.607  58.344  1.00  0.00     0.001 A 
HETATM   33  C   UNL     1       9.123  30.314  58.535  1.00  0.00     0.008 A 
ENDBRANCH   8  28
BRANCH   9  34
HETATM   34  C   UNL     1       5.742  31.596  58.447  1.00  0.00     0.255 C 
HETATM   35  N   UNL     1       4.693  31.340  59.298  1.00  0.00    -0.323 N 
HETATM   36  H   UNL     1       4.229  30.444  59.226  1.00  0.00     0.169 HD
HETATM   37  O   UNL     1       6.436  32.609  58.429  1.00  0.00    -0.268 OA
BRANCH  35  38
HETATM   38  C   UNL     1       4.147  32.208  60.268  1.00  0.00     0.035 A 
HETATM   39  C   UNL     1       4.553  32.246  61.603  1.00  0.00     0.029 A 
HETATM   40  C   UNL     1       3.974  33.153  62.495  1.00  0.00     0.002 A 
HETATM   41  C   UNL     1       2.991  34.038  62.060  1.00  0.00     0.000 A 
HETATM   42  C   UNL     1       2.578  34.009  60.730  1.00  0.00     0.002 A 
HETATM   43  C   UNL     1       3.147  33.094  59.842  1.00  0.00     0.029 A 
ENDBRANCH  35  38
ENDBRANCH   9  34
TORSDOF 9
ENDMDL
MODEL 8
REMARK VINA RESULT:      -9.6      3.476      6.904
REMARK  9 active torsions:
REMARK  status: ('A' for Active; 'I' for Inactive)
REMARK    1  A    between atoms: C_4  and  S_5 
REMARK    2  A    between atoms: S_5  and  C_6 
REMARK    3  A    between atoms: C_6  and  C_7 
REMARK       I    between atoms: C_7  and  N_8 
REMARK    4  A    between atoms: N_8  and  C_9 
REMARK    5  A    between atoms: C_10  and  O_11 
REMARK    6  A    between atoms: C_16  and  O_17 
REMARK    7  A    between atoms: C_24  and  C_25 
REMARK    8  A    between atoms: C_31  and  C_32 
REMARK       I    between atoms: C_32  and  N_33 
REMARK    9  A    between atoms: N_33  and  C_34 
ROOT
HETATM    1  C   UNL     1       7.860  27.884  53.902  1.00  0.00     0.069 C 
HETATM    2  C   UNL     1       6.573  28.016  53.128  1.00  0.00     0.019 C 
HETATM    3  N   UNL     1       5.905  29.226  53.260  1.00  0.00    -0.353 N 
HETATM    4  C   UNL     1       4.583  29.425  52.900  1.00  0.00     0.087 C 
HETATM    5  C   UNL     1       3.977  28.516  52.107  1.00  0.00     0.055 C 
HETATM    6  C   UNL     1       2.500  28.578  51.755  1.00  0.00     0.019 C 
HETATM    7  N   UNL     1       1.275  28.629  51.463  1.00  0.00    -0.096 N 
HETATM    8  C   UNL     1       4.753  27.319  51.565  1.00  0.00     0.104 C 
HETATM    9  C   UNL     1       6.045  27.049  52.338  1.00  0.00     0.046 C 
HETATM   10  H   UNL     1       6.288  29.913  53.903  1.00  0.00     0.166 HD
ENDROOT
BRANCH   4  11
HETATM   11  S   UNL     1       3.738  30.850  53.438  1.00  0.00    -0.102 SA
BRANCH  11  12
HETATM   12  C   UNL     1       3.345  30.388  55.166  1.00  0.00     0.184 C 
BRANCH  12  13
HETATM   13  C   UNL     1       4.271  31.218  56.038  1.00  0.00     0.231 C 
HETATM   14  N   UNL     1       4.679  30.541  57.172  1.00  0.00    -0.324 N 
HETATM   15  H   UNL     1       4.034  29.911  57.638  1.00  0.00     0.169 HD
HETATM   16  O   UNL     1       4.701  32.312  55.682  1.00  0.00    -0.272 OA
BRANCH  14  17
HETATM   17  C   UNL     1       6.023  30.405  57.588  1.00  0.00     0.071 A 
HETATM   18  C   UNL     1       6.716  29.255  57.174  1.00  0.00     0.096 A 
HETATM   19  C   UNL     1       8.085  29.152  57.410  1.00  0.00     0.065 A 
HETATM   20  C   UNL     1       8.757  30.186  58.070  1.00  0.00     0.070 A 
HETATM   21 CL   UNL     1      10.467  30.021  58.288  1.00  0.00    -0.081 Cl
HETATM   22  C   UNL     1       8.073  31.326  58.516  1.00  0.00     0.092 A 
HETATM   23  C   UNL     1       6.699  31.418  58.278  1.00  0.00     0.071 A 
BRANCH  18  24
HETATM   24  O   UNL     1       5.981  28.315  56.488  1.00  0.00    -0.354 OA
HETATM   25  C   UNL     1       6.116  26.980  56.973  1.00  0.00     0.210 C 
ENDBRANCH  18  24
BRANCH  22  26
HETATM   26  O   UNL     1       8.817  32.299  59.133  1.00  0.00    -0.354 OA
HETATM   27  C   UNL     1       8.647  32.470  60.536  1.00  0.00     0.210 C 
ENDBRANCH  22  26
ENDBRANCH  14  17
ENDBRANCH  12  13
ENDBRANCH  11  12
ENDBRANCH   4  11
BRANCH   8  28
HETATM   28  C   UNL     1       5.000  27.517  50.064  1.00  0.00    -0.044 A 
HETATM   29  C   UNL     1       5.541  28.714  49.563  1.00  0.00     0.008 A 
HETATM   30  C   UNL     1       5.745  28.887  48.193  1.00  0.00     0.001 A 
HETATM   31  C   UNL     1       5.398  27.873  47.305  1.00  0.00     0.000 A 
HETATM   32  C   UNL     1       4.847  26.687  47.784  1.00  0.00     0.001 A 
HETATM   33  C   UNL     1       4.646  26.508  49.154  1.00  0.00     0.008 A 
ENDBRANCH   8  28
BRANCH   9  34
HETATM   34  C   UNL     1       6.573  25.647  52.385  1.00  0.00     0.255 C 
HETATM   35  N   UNL     1       6.442  25.030  53.606  1.00  0.00    -0.323 N 
HETATM   36  H   UNL     1       5.927  25.513  54.332  1.00  0.00     0.169 HD
HETATM   37  O   UNL     1       7.125  25.186  51.391  1.00  0.00    -0.268 OA
BRANCH  35  38
HETATM   38  C   UNL     1       6.975  23.782  53.996  1.00  0.00     0.035 A 
HETATM   39  C   UNL     1       7.398  22.797  53.102  1.00  0.00     0.029 A 
HETATM   40  C   UNL     1       7.936  21.595  53.573  1.00  0.00     0.002 A 
HETATM   41  C   UNL     1       8.064  21.370  54.941  1.00  0.00     0.000 A 
HETATM   42  C   UNL     1       7.644  22.346  55.842  1.00  0.00     0.002 A 
HETATM   43  C   UNL     1       7.095  23.541  55.372  1.00  0.00     0.029 A 
ENDBRANCH  35  38
ENDBRANCH   9  34
TORSDOF 9
ENDMDL
MODEL 9
REMARK VINA RESULT:      -9.5      3.344      6.854
REMARK  9 active torsions:
REMARK  status: ('A' for Active; 'I' for Inactive)
REMARK    1  A    between atoms: C_4  and  S_5 
REMARK    2  A    between atoms: S_5  and  C_6 
REMARK    3  A    between atoms: C_6  and  C_7 
REMARK       I    between atoms: C_7  and  N_8 
REMARK    4  A    between atoms: N_8  and  C_9 
REMARK    5  A    between atoms: C_10  and  O_11 
REMARK    6  A    between atoms: C_16  and  O_17 
REMARK    7  A    between atoms: C_24  and  C_25 
REMARK    8  A    between atoms: C_31  and  C_32 
REMARK       I    between atoms: C_32  and  N_33 
REMARK    9  A    between atoms: N_33  and  C_34 
ROOT
HETATM    1  C   UNL     1       7.154  27.585  54.114  1.00  0.00     0.069 C 
HETATM    2  C   UNL     1       6.018  27.909  53.178  1.00  0.00     0.019 C 
HETATM    3  N   UNL     1       5.636  29.242  53.123  1.00  0.00    -0.353 N 
HETATM    4  C   UNL     1       4.438  29.685  52.587  1.00  0.00     0.087 C 
HETATM    5  C   UNL     1       3.723  28.848  51.806  1.00  0.00     0.055 C 
HETATM    6  C   UNL     1       2.343  29.193  51.269  1.00  0.00     0.019 C 
HETATM    7  N   UNL     1       1.199  29.478  50.824  1.00  0.00    -0.096 N 
HETATM    8  C   UNL     1       4.254  27.458  51.468  1.00  0.00     0.104 C 
HETATM    9  C   UNL     1       5.363  26.999  52.415  1.00  0.00     0.046 C 
HETATM   10  H   UNL     1       6.100  29.896  53.747  1.00  0.00     0.166 HD
ENDROOT
BRANCH   4  11
HETATM   11  S   UNL     1       3.894  31.310  52.893  1.00  0.00    -0.102 SA
BRANCH  11  12
HETATM   12  C   UNL     1       3.306  31.161  54.620  1.00  0.00     0.184 C 
BRANCH  12  13
HETATM   13  C   UNL     1       4.247  32.011  55.454  1.00  0.00     0.231 C 
HETATM   14  N   UNL     1       4.293  31.611  56.777  1.00  0.00    -0.324 N 
HETATM   15  H   UNL     1       3.449  31.267  57.225  1.00  0.00     0.169 HD
HETATM   16  O   UNL     1       4.977  32.864  54.955  1.00  0.00    -0.272 OA
BRANCH  14  17
HETATM   17  C   UNL     1       5.480  31.348  57.497  1.00  0.00     0.071 A 
HETATM   18  C   UNL     1       5.842  32.260  58.503  1.00  0.00     0.096 A 
HETATM   19  C   UNL     1       6.904  31.962  59.355  1.00  0.00     0.065 A 
HETATM   20  C   UNL     1       7.612  30.767  59.193  1.00  0.00     0.070 A 
HETATM   21 CL   UNL     1       8.888  30.432  60.314  1.00  0.00    -0.081 Cl
HETATM   22  C   UNL     1       7.282  29.862  58.173  1.00  0.00     0.092 A 
HETATM   23  C   UNL     1       6.217  30.171  57.321  1.00  0.00     0.071 A 
BRANCH  18  24
HETATM   24  O   UNL     1       5.056  33.384  58.619  1.00  0.00    -0.354 OA
HETATM   25  C   UNL     1       4.704  33.733  59.956  1.00  0.00     0.210 C 
ENDBRANCH  18  24
BRANCH  22  26
HETATM   26  O   UNL     1       8.015  28.705  58.104  1.00  0.00    -0.354 OA
HETATM   27  C   UNL     1       9.076  28.652  57.155  1.00  0.00     0.210 C 
ENDBRANCH  22  26
ENDBRANCH  14  17
ENDBRANCH  12  13
ENDBRANCH  11  12
ENDBRANCH   4  11
BRANCH   8  28
HETATM   28  C   UNL     1       4.689  27.429  49.997  1.00  0.00    -0.044 A 
HETATM   29  C   UNL     1       5.478  28.456  49.447  1.00  0.00     0.008 A 
HETATM   30  C   UNL     1       5.854  28.426  48.104  1.00  0.00     0.001 A 
HETATM   31  C   UNL     1       5.436  27.378  47.288  1.00  0.00     0.000 A 
HETATM   32  C   UNL     1       4.642  26.361  47.814  1.00  0.00     0.001 A 
HETATM   33  C   UNL     1       4.268  26.385  49.159  1.00  0.00     0.008 A 
ENDBRANCH   8  28
BRANCH   9  34
HETATM   34  C   UNL     1       5.547  25.530  52.646  1.00  0.00     0.255 C 
HETATM   35  N   UNL     1       6.639  25.207  53.416  1.00  0.00    -0.323 N 
HETATM   36  H   UNL     1       7.164  25.962  53.838  1.00  0.00     0.169 HD
HETATM   37  O   UNL     1       4.781  24.741  52.100  1.00  0.00    -0.268 OA
BRANCH  35  38
HETATM   38  C   UNL     1       7.151  23.917  53.676  1.00  0.00     0.035 A 
HETATM   39  C   UNL     1       7.716  23.089  52.705  1.00  0.00     0.029 A 
HETATM   40  C   UNL     1       8.222  21.832  53.052  1.00  0.00     0.002 A 
HETATM   41  C   UNL     1       8.175  21.395  54.373  1.00  0.00     0.000 A 
HETATM   42  C   UNL     1       7.613  22.214  55.350  1.00  0.00     0.002 A 
HETATM   43  C   UNL     1       7.097  23.464  55.001  1.00  0.00     0.029 A 
ENDBRANCH  35  38
ENDBRANCH   9  34
TORSDOF 9
ENDMDL
MODEL 10
REMARK VINA RESULT:      -9.4      2.276      5.252
REMARK  9 active torsions:
REMARK  status: ('A' for Active; 'I' for Inactive)
REMARK    1  A    between atoms: C_4  and  S_5 
REMARK    2  A    between atoms: S_5  and  C_6 
REMARK    3  A    between atoms: C_6  and  C_7 
REMARK       I    between atoms: C_7  and  N_8 
REMARK    4  A    between atoms: N_8  and  C_9 
REMARK    5  A    between atoms: C_10  and  O_11 
REMARK    6  A    between atoms: C_16  and  O_17 
REMARK    7  A    between atoms: C_24  and  C_25 
REMARK    8  A    between atoms: C_31  and  C_32 
REMARK       I    between atoms: C_32  and  N_33 
REMARK    9  A    between atoms: N_33  and  C_34 
ROOT
HETATM    1  C   UNL     1       8.906  26.602  56.986  1.00  0.00     0.069 C 
HETATM    2  C   UNL     1       7.628  27.345  56.693  1.00  0.00     0.019 C 
HETATM    3  N   UNL     1       7.592  28.674  57.091  1.00  0.00    -0.353 N 
HETATM    4  C   UNL     1       6.431  29.420  57.204  1.00  0.00     0.087 C 
HETATM    5  C   UNL     1       5.301  28.962  56.622  1.00  0.00     0.055 C 
HETATM    6  C   UNL     1       3.951  29.640  56.787  1.00  0.00     0.019 C 
HETATM    7  N   UNL     1       2.831  30.202  56.925  1.00  0.00    -0.096 N 
HETATM    8  C   UNL     1       5.318  27.676  55.802  1.00  0.00     0.104 C 
HETATM    9  C   UNL     1       6.542  26.805  56.086  1.00  0.00     0.046 C 
HETATM   10  H   UNL     1       8.394  29.041  57.597  1.00  0.00     0.166 HD
ENDROOT
BRANCH   4  11
HETATM   11  S   UNL     1       6.449  30.940  58.053  1.00  0.00    -0.102 SA
BRANCH  11  12
HETATM   12  C   UNL     1       7.803  30.653  59.251  1.00  0.00     0.184 C 
BRANCH  12  13
HETATM   13  C   UNL     1       7.695  31.770  60.274  1.00  0.00     0.231 C 
HETATM   14  N   UNL     1       6.695  32.674  59.969  1.00  0.00    -0.324 N 
HETATM   15  H   UNL     1       6.509  32.906  58.999  1.00  0.00     0.169 HD
HETATM   16  O   UNL     1       8.346  31.770  61.316  1.00  0.00    -0.272 OA
BRANCH  14  17
HETATM   17  C   UNL     1       5.688  33.093  60.869  1.00  0.00     0.071 A 
HETATM   18  C   UNL     1       4.561  33.733  60.326  1.00  0.00     0.096 A 
HETATM   19  C   UNL     1       3.467  34.012  61.142  1.00  0.00     0.065 A 
HETATM   20  C   UNL     1       3.503  33.668  62.497  1.00  0.00     0.070 A 
HETATM   21 CL   UNL     1       2.093  33.995  63.446  1.00  0.00    -0.081 Cl
HETATM   22  C   UNL     1       4.633  33.056  63.059  1.00  0.00     0.092 A 
HETATM   23  C   UNL     1       5.728  32.784  62.233  1.00  0.00     0.071 A 
BRANCH  18  24
HETATM   24  O   UNL     1       4.596  33.987  58.974  1.00  0.00    -0.354 OA
HETATM   25  C   UNL     1       3.458  33.525  58.249  1.00  0.00     0.210 C 
ENDBRANCH  18  24
BRANCH  22  26
HETATM   26  O   UNL     1       4.571  32.733  64.390  1.00  0.00    -0.354 OA
HETATM   27  C   UNL     1       5.320  33.534  65.300  1.00  0.00     0.210 C 
ENDBRANCH  22  26
ENDBRANCH  14  17
ENDBRANCH  12  13
ENDBRANCH  11  12
ENDBRANCH   4  11
BRANCH   8  28
HETATM   28  C   UNL     1       5.180  28.025  54.315  1.00  0.00    -0.044 A 
HETATM   29  C   UNL     1       3.918  28.190  53.716  1.00  0.00     0.008 A 
HETATM   30  C   UNL     1       3.806  28.492  52.358  1.00  0.00     0.001 A 
HETATM   31  C   UNL     1       4.952  28.618  51.577  1.00  0.00     0.000 A 
HETATM   32  C   UNL     1       6.208  28.444  52.152  1.00  0.00     0.001 A 
HETATM   33  C   UNL     1       6.325  28.147  53.511  1.00  0.00     0.008 A 
ENDBRANCH   8  28
BRANCH   9  34
HETATM   34  C   UNL     1       6.429  25.323  55.895  1.00  0.00     0.255 C 
HETATM   35  N   UNL     1       7.473  24.757  55.203  1.00  0.00    -0.323 N 
HETATM   36  H   UNL     1       8.263  25.344  54.967  1.00  0.00     0.169 HD
HETATM   37  O   UNL     1       5.421  24.746  56.294  1.00  0.00    -0.268 OA
BRANCH  35  38
HETATM   38  C   UNL     1       7.572  23.426  54.741  1.00  0.00     0.035 A 
HETATM   39  C   UNL     1       7.574  23.063  53.393  1.00  0.00     0.029 A 
HETATM   40  C   UNL     1       7.698  21.721  53.020  1.00  0.00     0.002 A 
HETATM   41  C   UNL     1       7.831  20.731  53.990  1.00  0.00     0.000 A 
HETATM   42  C   UNL     1       7.829  21.082  55.338  1.00  0.00     0.002 A 
HETATM   43  C   UNL     1       7.693  22.421  55.711  1.00  0.00     0.029 A 
ENDBRANCH  35  38
ENDBRANCH   9  34
TORSDOF 9
ENDMDL
