MODEL 1
REMARK VINA RESULT:      -9.2      0.000      0.000
REMARK  7 active torsions:
REMARK  status: ('A' for Active; 'I' for Inactive)
REMARK    1  A    between atoms: C_2  and  N_3 
REMARK    2  A    between atoms: C_2  and  C_17 
REMARK       I    between atoms: N_3  and  C_4 
REMARK    3  A    between atoms: C_4  and  C_5 
REMARK    4  A    between atoms: C_7  and  N_8 
REMARK    5  A    between atoms: C_17  and  O_18 
REMARK    6  A    between atoms: C_17  and  C_19 
REMARK    7  A    between atoms: C_22  and  O_23 
ROOT
HETATM    1  N   UNL     1       7.615  27.671  55.760  1.00  0.00    -0.349 N 
HETATM    2  C   UNL     1       8.145  27.609  57.029  1.00  0.00     0.270 C 
HETATM    3  O   UNL     1       7.992  26.661  57.791  1.00  0.00    -0.266 OA
HETATM    4  H   UNL     1       7.697  28.562  55.275  1.00  0.00     0.163 HD
ENDROOT
BRANCH   1   5
HETATM    5  C   UNL     1       6.695  26.669  55.218  1.00  0.00     0.114 C 
HETATM    6  C   UNL     1       5.333  27.322  54.963  1.00  0.00     0.035 C 
BRANCH   5   7
HETATM    7  C   UNL     1       7.322  26.028  53.950  1.00  0.00     0.173 C 
BRANCH   7   8
HETATM    8  O   UNL     1       6.569  26.383  52.782  1.00  0.00    -0.389 OA
HETATM    9  H   UNL     1       6.550  25.592  52.213  1.00  0.00     0.210 HD
ENDBRANCH   7   8
BRANCH   7  10
HETATM   10  C   UNL     1       7.508  24.525  54.033  1.00  0.00    -0.028 A 
HETATM   11  C   UNL     1       7.401  23.879  55.271  1.00  0.00     0.012 A 
HETATM   12  C   UNL     1       7.565  22.495  55.366  1.00  0.00     0.037 A 
HETATM   13  C   UNL     1       7.828  21.727  54.230  1.00  0.00     0.068 A 
HETATM   14  C   UNL     1       7.934  22.361  52.993  1.00  0.00     0.037 A 
HETATM   15  C   UNL     1       7.777  23.749  52.896  1.00  0.00     0.012 A 
BRANCH  13  16
HETATM   16  O   UNL     1       7.961  20.387  54.464  1.00  0.00    -0.356 OA
HETATM   17  C   UNL     1       8.630  20.007  55.660  1.00  0.00     0.210 C 
ENDBRANCH  13  16
ENDBRANCH   7  10
ENDBRANCH   5   7
ENDBRANCH   1   5
BRANCH   2  18
HETATM   18  C   UNL     1       8.935  28.818  57.430  1.00  0.00     0.126 A 
HETATM   19  N   UNL     1       8.509  29.472  58.547  1.00  0.00    -0.224 NA
HETATM   20  C   UNL     1       9.209  30.582  58.910  1.00  0.00     0.151 A 
HETATM   21  C   UNL     1      10.325  31.035  58.207  1.00  0.00     0.052 A 
HETATM   22  C   UNL     1      10.739  30.335  57.075  1.00  0.00     0.006 A 
HETATM   23  C   UNL     1      10.030  29.209  56.672  1.00  0.00     0.037 A 
BRANCH  20  24
HETATM   24  N   UNL     1       8.764  31.315  60.052  1.00  0.00    -0.227 N 
HETATM   25  N   UNL     1       7.940  32.396  59.953  1.00  0.00    -0.179 NA
HETATM   26  C   UNL     1       7.744  32.779  61.215  1.00  0.00     0.141 A 
HETATM   27  C   UNL     1       8.425  31.973  62.139  1.00  0.00     0.040 A 
HETATM   28  C   UNL     1       9.076  31.042  61.368  1.00  0.00     0.122 A 
ENDBRANCH  20  24
ENDBRANCH   2  18
TORSDOF 7
ENDMDL
MODEL 2
REMARK VINA RESULT:      -9.1      3.303      9.894
REMARK  7 active torsions:
REMARK  status: ('A' for Active; 'I' for Inactive)
REMARK    1  A    between atoms: C_2  and  N_3 
REMARK    2  A    between atoms: C_2  and  C_17 
REMARK       I    between atoms: N_3  and  C_4 
REMARK    3  A    between atoms: C_4  and  C_5 
REMARK    4  A    between atoms: C_7  and  N_8 
REMARK    5  A    between atoms: C_17  and  O_18 
REMARK    6  A    between atoms: C_17  and  C_19 
REMARK    7  A    between atoms: C_22  and  O_23 
ROOT
HETATM    1  N   UNL     1       8.274  30.227  59.887  1.00  0.00    -0.349 N 
HETATM    2  C   UNL     1       8.594  29.798  58.619  1.00  0.00     0.270 C 
HETATM    3  O   UNL     1       9.610  30.128  58.019  1.00  0.00    -0.266 OA
HETATM    4  H   UNL     1       7.343  29.995  60.226  1.00  0.00     0.163 HD
ENDROOT
BRANCH   1   5
HETATM    5  C   UNL     1       9.047  31.232  60.620  1.00  0.00     0.114 C 
HETATM    6  C   UNL     1       8.563  32.629  60.218  1.00  0.00     0.035 C 
BRANCH   5   7
HETATM    7  C   UNL     1       8.939  30.954  62.144  1.00  0.00     0.173 C 
BRANCH   7   8
HETATM    8  O   UNL     1       8.893  29.542  62.395  1.00  0.00    -0.389 OA
HETATM    9  H   UNL     1       8.113  29.202  61.921  1.00  0.00     0.210 HD
ENDBRANCH   7   8
BRANCH   7  10
HETATM   10  C   UNL     1       7.786  31.661  62.831  1.00  0.00    -0.028 A 
HETATM   11  C   UNL     1       6.468  31.288  62.538  1.00  0.00     0.012 A 
HETATM   12  C   UNL     1       5.394  31.925  63.164  1.00  0.00     0.037 A 
HETATM   13  C   UNL     1       5.612  32.936  64.102  1.00  0.00     0.068 A 
HETATM   14  C   UNL     1       6.920  33.312  64.402  1.00  0.00     0.037 A 
HETATM   15  C   UNL     1       7.998  32.681  63.770  1.00  0.00     0.012 A 
BRANCH  13  16
HETATM   16  O   UNL     1       4.475  33.470  64.641  1.00  0.00    -0.356 OA
HETATM   17  C   UNL     1       4.554  33.923  65.987  1.00  0.00     0.210 C 
ENDBRANCH  13  16
ENDBRANCH   7  10
ENDBRANCH   5   7
ENDBRANCH   1   5
BRANCH   2  18
HETATM   18  C   UNL     1       7.579  28.884  58.000  1.00  0.00     0.126 A 
HETATM   19  N   UNL     1       7.980  27.600  57.779  1.00  0.00    -0.224 NA
HETATM   20  C   UNL     1       7.071  26.768  57.202  1.00  0.00     0.151 A 
HETATM   21  C   UNL     1       5.780  27.173  56.866  1.00  0.00     0.052 A 
HETATM   22  C   UNL     1       5.401  28.490  57.117  1.00  0.00     0.006 A 
HETATM   23  C   UNL     1       6.316  29.367  57.689  1.00  0.00     0.037 A 
BRANCH  20  24
HETATM   24  N   UNL     1       7.473  25.427  56.917  1.00  0.00    -0.227 N 
HETATM   25  N   UNL     1       6.778  24.619  56.068  1.00  0.00    -0.179 NA
HETATM   26  C   UNL     1       7.472  23.480  56.053  1.00  0.00     0.141 A 
HETATM   27  C   UNL     1       8.605  23.524  56.879  1.00  0.00     0.040 A 
HETATM   28  C   UNL     1       8.582  24.784  57.426  1.00  0.00     0.122 A 
ENDBRANCH  20  24
ENDBRANCH   2  18
TORSDOF 7
ENDMDL
MODEL 3
REMARK VINA RESULT:      -8.5      1.421      1.994
REMARK  7 active torsions:
REMARK  status: ('A' for Active; 'I' for Inactive)
REMARK    1  A    between atoms: C_2  and  N_3 
REMARK    2  A    between atoms: C_2  and  C_17 
REMARK       I    between atoms: N_3  and  C_4 
REMARK    3  A    between atoms: C_4  and  C_5 
REMARK    4  A    between atoms: C_7  and  N_8 
REMARK    5  A    between atoms: C_17  and  O_18 
REMARK    6  A    between atoms: C_17  and  C_19 
REMARK    7  A    between atoms: C_22  and  O_23 
ROOT
HETATM    1  N   UNL     1       6.432  28.138  55.044  1.00  0.00    -0.349 N 
HETATM    2  C   UNL     1       6.712  28.132  56.392  1.00  0.00     0.270 C 
HETATM    3  O   UNL     1       6.026  27.562  57.232  1.00  0.00    -0.266 OA
HETATM    4  H   UNL     1       6.996  28.756  54.464  1.00  0.00     0.163 HD
ENDROOT
BRANCH   1   5
HETATM    5  C   UNL     1       5.208  27.576  54.469  1.00  0.00     0.114 C 
HETATM    6  C   UNL     1       4.150  28.677  54.362  1.00  0.00     0.035 C 
BRANCH   5   7
HETATM    7  C   UNL     1       5.541  26.901  53.110  1.00  0.00     0.173 C 
BRANCH   7   8
HETATM    8  O   UNL     1       4.345  26.689  52.348  1.00  0.00    -0.389 OA
HETATM    9  H   UNL     1       4.151  27.531  51.897  1.00  0.00     0.210 HD
ENDBRANCH   7   8
BRANCH   7  10
HETATM   10  C   UNL     1       6.340  25.617  53.226  1.00  0.00    -0.028 A 
HETATM   11  C   UNL     1       7.277  25.290  52.238  1.00  0.00     0.012 A 
HETATM   12  C   UNL     1       8.025  24.114  52.331  1.00  0.00     0.037 A 
HETATM   13  C   UNL     1       7.863  23.248  53.413  1.00  0.00     0.068 A 
HETATM   14  C   UNL     1       6.935  23.566  54.403  1.00  0.00     0.037 A 
HETATM   15  C   UNL     1       6.179  24.741  54.309  1.00  0.00     0.012 A 
BRANCH  13  16
HETATM   16  O   UNL     1       8.660  22.138  53.382  1.00  0.00    -0.356 OA
HETATM   17  C   UNL     1       8.016  20.890  53.157  1.00  0.00     0.210 C 
ENDBRANCH  13  16
ENDBRANCH   7  10
ENDBRANCH   5   7
ENDBRANCH   1   5
BRANCH   2  18
HETATM   18  C   UNL     1       7.941  28.900  56.772  1.00  0.00     0.126 A 
HETATM   19  N   UNL     1       7.944  29.455  58.017  1.00  0.00    -0.224 NA
HETATM   20  C   UNL     1       9.048  30.170  58.366  1.00  0.00     0.151 A 
HETATM   21  C   UNL     1      10.148  30.322  57.521  1.00  0.00     0.052 A 
HETATM   22  C   UNL     1      10.115  29.732  56.260  1.00  0.00     0.006 A 
HETATM   23  C   UNL     1       8.991  29.012  55.871  1.00  0.00     0.037 A 
BRANCH  20  24
HETATM   24  N   UNL     1       9.066  30.800  59.648  1.00  0.00    -0.227 N 
HETATM   25  N   UNL     1       9.153  30.093  60.809  1.00  0.00    -0.179 NA
HETATM   26  C   UNL     1       9.161  31.025  61.764  1.00  0.00     0.141 A 
HETATM   27  C   UNL     1       9.077  32.328  61.250  1.00  0.00     0.040 A 
HETATM   28  C   UNL     1       9.013  32.157  59.889  1.00  0.00     0.122 A 
ENDBRANCH  20  24
ENDBRANCH   2  18
TORSDOF 7
ENDMDL
MODEL 4
REMARK VINA RESULT:      -8.4      4.257     10.441
REMARK  7 active torsions:
REMARK  status: ('A' for Active; 'I' for Inactive)
REMARK    1  A    between atoms: C_2  and  N_3 
REMARK    2  A    between atoms: C_2  and  C_17 
REMARK       I    between atoms: N_3  and  C_4 
REMARK    3  A    between atoms: C_4  and  C_5 
REMARK    4  A    between atoms: C_7  and  N_8 
REMARK    5  A    between atoms: C_17  and  O_18 
REMARK    6  A    between atoms: C_17  and  C_19 
REMARK    7  A    between atoms: C_22  and  O_23 
ROOT
HETATM    1  N   UNL     1       7.708  31.435  60.197  1.00  0.00    -0.349 N 
HETATM    2  C   UNL     1       8.925  31.729  59.625  1.00  0.00     0.270 C 
HETATM    3  O   UNL     1       9.618  32.688  59.942  1.00  0.00    -0.266 OA
HETATM    4  H   UNL     1       7.166  30.694  59.760  1.00  0.00     0.163 HD
ENDROOT
BRANCH   1   5
HETATM    5  C   UNL     1       7.036  32.308  61.162  1.00  0.00     0.114 C 
HETATM    6  C   UNL     1       5.578  32.502  60.734  1.00  0.00     0.035 C 
BRANCH   5   7
HETATM    7  C   UNL     1       7.189  31.713  62.588  1.00  0.00     0.173 C 
BRANCH   7   8
HETATM    8  O   UNL     1       6.597  30.408  62.655  1.00  0.00    -0.389 OA
HETATM    9  H   UNL     1       5.655  30.520  62.432  1.00  0.00     0.210 HD
ENDBRANCH   7   8
BRANCH   7  10
HETATM   10  C   UNL     1       6.661  32.601  63.699  1.00  0.00    -0.028 A 
HETATM   11  C   UNL     1       7.558  33.311  64.507  1.00  0.00     0.012 A 
HETATM   12  C   UNL     1       7.090  34.137  65.531  1.00  0.00     0.037 A 
HETATM   13  C   UNL     1       5.721  34.281  65.763  1.00  0.00     0.068 A 
HETATM   14  C   UNL     1       4.820  33.581  64.962  1.00  0.00     0.037 A 
HETATM   15  C   UNL     1       5.287  32.746  63.939  1.00  0.00     0.012 A 
BRANCH  13  16
HETATM   16  O   UNL     1       5.400  35.122  66.791  1.00  0.00    -0.356 OA
HETATM   17  C   UNL     1       4.337  36.039  66.564  1.00  0.00     0.210 C 
ENDBRANCH  13  16
ENDBRANCH   7  10
ENDBRANCH   5   7
ENDBRANCH   1   5
BRANCH   2  18
HETATM   18  C   UNL     1       9.350  30.775  58.550  1.00  0.00     0.126 A 
HETATM   19  N   UNL     1       8.531  29.708  58.332  1.00  0.00    -0.224 NA
HETATM   20  C   UNL     1       8.917  28.827  57.369  1.00  0.00     0.151 A 
HETATM   21  C   UNL     1      10.076  28.996  56.611  1.00  0.00     0.052 A 
HETATM   22  C   UNL     1      10.884  30.104  56.853  1.00  0.00     0.006 A 
HETATM   23  C   UNL     1      10.522  31.010  57.844  1.00  0.00     0.037 A 
BRANCH  20  24
HETATM   24  N   UNL     1       8.103  27.675  57.145  1.00  0.00    -0.227 N 
HETATM   25  N   UNL     1       7.816  26.778  58.130  1.00  0.00    -0.179 NA
HETATM   26  C   UNL     1       7.029  25.878  57.538  1.00  0.00     0.141 A 
HETATM   27  C   UNL     1       6.797  26.166  56.185  1.00  0.00     0.040 A 
HETATM   28  C   UNL     1       7.500  27.323  55.955  1.00  0.00     0.122 A 
ENDBRANCH  20  24
ENDBRANCH   2  18
TORSDOF 7
ENDMDL
MODEL 5
REMARK VINA RESULT:      -8.2      3.144      8.428
REMARK  7 active torsions:
REMARK  status: ('A' for Active; 'I' for Inactive)
REMARK    1  A    between atoms: C_2  and  N_3 
REMARK    2  A    between atoms: C_2  and  C_17 
REMARK       I    between atoms: N_3  and  C_4 
REMARK    3  A    between atoms: C_4  and  C_5 
REMARK    4  A    between atoms: C_7  and  N_8 
REMARK    5  A    between atoms: C_17  and  O_18 
REMARK    6  A    between atoms: C_17  and  C_19 
REMARK    7  A    between atoms: C_22  and  O_23 
ROOT
HETATM    1  N   UNL     1       5.924  27.268  54.815  1.00  0.00    -0.349 N 
HETATM    2  C   UNL     1       7.182  27.094  54.285  1.00  0.00     0.270 C 
HETATM    3  O   UNL     1       8.024  27.981  54.209  1.00  0.00    -0.266 OA
HETATM    4  H   UNL     1       5.270  26.497  54.700  1.00  0.00     0.163 HD
ENDROOT
BRANCH   1   5
HETATM    5  C   UNL     1       5.395  28.568  55.232  1.00  0.00     0.114 C 
HETATM    6  C   UNL     1       4.081  28.837  54.492  1.00  0.00     0.035 C 
BRANCH   5   7
HETATM    7  C   UNL     1       5.252  28.594  56.778  1.00  0.00     0.173 C 
BRANCH   7   8
HETATM    8  O   UNL     1       3.932  29.010  57.154  1.00  0.00    -0.389 OA
HETATM    9  H   UNL     1       4.039  29.641  57.889  1.00  0.00     0.210 HD
ENDBRANCH   7   8
BRANCH   7  10
HETATM   10  C   UNL     1       6.302  29.423  57.492  1.00  0.00    -0.028 A 
HETATM   11  C   UNL     1       7.567  28.877  57.742  1.00  0.00     0.012 A 
HETATM   12  C   UNL     1       8.548  29.629  58.394  1.00  0.00     0.037 A 
HETATM   13  C   UNL     1       8.292  30.940  58.799  1.00  0.00     0.068 A 
HETATM   14  C   UNL     1       7.036  31.493  58.552  1.00  0.00     0.037 A 
HETATM   15  C   UNL     1       6.049  30.739  57.905  1.00  0.00     0.012 A 
BRANCH  13  16
HETATM   16  O   UNL     1       9.338  31.562  59.420  1.00  0.00    -0.356 OA
HETATM   17  C   UNL     1       9.047  32.264  60.622  1.00  0.00     0.210 C 
ENDBRANCH  13  16
ENDBRANCH   7  10
ENDBRANCH   5   7
ENDBRANCH   1   5
BRANCH   2  18
HETATM   18  C   UNL     1       7.456  25.709  53.781  1.00  0.00     0.126 A 
HETATM   19  N   UNL     1       7.556  24.733  54.727  1.00  0.00    -0.224 NA
HETATM   20  C   UNL     1       7.822  23.474  54.281  1.00  0.00     0.151 A 
HETATM   21  C   UNL     1       7.964  23.166  52.929  1.00  0.00     0.052 A 
HETATM   22  C   UNL     1       7.843  24.187  51.988  1.00  0.00     0.006 A 
HETATM   23  C   UNL     1       7.591  25.485  52.418  1.00  0.00     0.037 A 
BRANCH  20  24
HETATM   24  N   UNL     1       7.975  22.436  55.250  1.00  0.00    -0.227 N 
HETATM   25  N   UNL     1       8.295  22.688  56.550  1.00  0.00    -0.179 NA
HETATM   26  C   UNL     1       8.324  21.484  57.124  1.00  0.00     0.141 A 
HETATM   27  C   UNL     1       8.033  20.448  56.224  1.00  0.00     0.040 A 
HETATM   28  C   UNL     1       7.816  21.084  55.026  1.00  0.00     0.122 A 
ENDBRANCH  20  24
ENDBRANCH   2  18
TORSDOF 7
ENDMDL
MODEL 6
REMARK VINA RESULT:      -8.1      4.917      8.161
REMARK  7 active torsions:
REMARK  status: ('A' for Active; 'I' for Inactive)
REMARK    1  A    between atoms: C_2  and  N_3 
REMARK    2  A    between atoms: C_2  and  C_17 
REMARK       I    between atoms: N_3  and  C_4 
REMARK    3  A    between atoms: C_4  and  C_5 
REMARK    4  A    between atoms: C_7  and  N_8 
REMARK    5  A    between atoms: C_17  and  O_18 
REMARK    6  A    between atoms: C_17  and  C_19 
REMARK    7  A    between atoms: C_22  and  O_23 
ROOT
HETATM    1  N   UNL     1       5.636  27.331  53.742  1.00  0.00    -0.349 N 
HETATM    2  C   UNL     1       5.414  25.983  53.908  1.00  0.00     0.270 C 
HETATM    3  O   UNL     1       4.598  25.337  53.262  1.00  0.00    -0.266 OA
HETATM    4  H   UNL     1       6.240  27.782  54.426  1.00  0.00     0.163 HD
ENDROOT
BRANCH   1   5
HETATM    5  C   UNL     1       4.830  28.182  52.864  1.00  0.00     0.114 C 
HETATM    6  C   UNL     1       4.367  29.415  53.644  1.00  0.00     0.035 C 
BRANCH   5   7
HETATM    7  C   UNL     1       5.647  28.526  51.589  1.00  0.00     0.173 C 
BRANCH   7   8
HETATM    8  O   UNL     1       5.936  29.930  51.541  1.00  0.00    -0.389 OA
HETATM    9  H   UNL     1       6.905  30.015  51.597  1.00  0.00     0.210 HD
ENDBRANCH   7   8
BRANCH   7  10
HETATM   10  C   UNL     1       5.011  28.063  50.292  1.00  0.00    -0.028 A 
HETATM   11  C   UNL     1       4.730  26.704  50.102  1.00  0.00     0.012 A 
HETATM   12  C   UNL     1       4.141  26.260  48.916  1.00  0.00     0.037 A 
HETATM   13  C   UNL     1       3.809  27.161  47.902  1.00  0.00     0.068 A 
HETATM   14  C   UNL     1       4.082  28.516  48.083  1.00  0.00     0.037 A 
HETATM   15  C   UNL     1       4.680  28.962  49.268  1.00  0.00     0.012 A 
BRANCH  13  16
HETATM   16  O   UNL     1       3.234  26.595  46.799  1.00  0.00    -0.356 OA
HETATM   17  C   UNL     1       2.782  25.253  46.927  1.00  0.00     0.210 C 
ENDBRANCH  13  16
ENDBRANCH   7  10
ENDBRANCH   5   7
ENDBRANCH   1   5
BRANCH   2  18
HETATM   18  C   UNL     1       6.255  25.344  54.971  1.00  0.00     0.126 A 
HETATM   19  N   UNL     1       6.670  24.069  54.727  1.00  0.00    -0.224 NA
HETATM   20  C   UNL     1       7.420  23.474  55.694  1.00  0.00     0.151 A 
HETATM   21  C   UNL     1       7.782  24.121  56.876  1.00  0.00     0.052 A 
HETATM   22  C   UNL     1       7.350  25.429  57.087  1.00  0.00     0.006 A 
HETATM   23  C   UNL     1       6.567  26.053  56.123  1.00  0.00     0.037 A 
BRANCH  20  24
HETATM   24  N   UNL     1       7.835  22.123  55.488  1.00  0.00    -0.227 N 
HETATM   25  N   UNL     1       7.848  21.540  54.257  1.00  0.00    -0.179 NA
HETATM   26  C   UNL     1       8.308  20.308  54.478  1.00  0.00     0.141 A 
HETATM   27  C   UNL     1       8.595  20.071  55.831  1.00  0.00     0.040 A 
HETATM   28  C   UNL     1       8.279  21.250  56.460  1.00  0.00     0.122 A 
ENDBRANCH  20  24
ENDBRANCH   2  18
TORSDOF 7
ENDMDL
MODEL 7
REMARK VINA RESULT:      -8.0      2.641      3.123
REMARK  7 active torsions:
REMARK  status: ('A' for Active; 'I' for Inactive)
REMARK    1  A    between atoms: C_2  and  N_3 
REMARK    2  A    between atoms: C_2  and  C_17 
REMARK       I    between atoms: N_3  and  C_4 
REMARK    3  A    between atoms: C_4  and  C_5 
REMARK    4  A    between atoms: C_7  and  N_8 
REMARK    5  A    between atoms: C_17  and  O_18 
REMARK    6  A    between atoms: C_17  and  C_19 
REMARK    7  A    between atoms: C_22  and  O_23 
ROOT
HETATM    1  N   UNL     1       6.344  27.369  57.158  1.00  0.00    -0.349 N 
HETATM    2  C   UNL     1       7.543  27.950  57.505  1.00  0.00     0.270 C 
HETATM    3  O   UNL     1       8.631  27.401  57.385  1.00  0.00    -0.266 OA
HETATM    4  H   UNL     1       5.500  27.869  57.428  1.00  0.00     0.163 HD
ENDROOT
BRANCH   1   5
HETATM    5  C   UNL     1       6.215  25.975  56.728  1.00  0.00     0.114 C 
HETATM    6  C   UNL     1       4.905  25.399  57.275  1.00  0.00     0.035 C 
BRANCH   5   7
HETATM    7  C   UNL     1       6.326  25.902  55.181  1.00  0.00     0.173 C 
BRANCH   7   8
HETATM    8  O   UNL     1       5.035  26.056  54.576  1.00  0.00    -0.389 OA
HETATM    9  H   UNL     1       4.469  26.493  55.238  1.00  0.00     0.210 HD
ENDBRANCH   7   8
BRANCH   7  10
HETATM   10  C   UNL     1       7.020  24.658  54.660  1.00  0.00    -0.028 A 
HETATM   11  C   UNL     1       7.717  23.827  55.547  1.00  0.00     0.012 A 
HETATM   12  C   UNL     1       8.357  22.675  55.085  1.00  0.00     0.037 A 
HETATM   13  C   UNL     1       8.307  22.322  53.735  1.00  0.00     0.068 A 
HETATM   14  C   UNL     1       7.614  23.140  52.846  1.00  0.00     0.037 A 
HETATM   15  C   UNL     1       6.977  24.300  53.304  1.00  0.00     0.012 A 
BRANCH  13  16
HETATM   16  O   UNL     1       8.971  21.169  53.421  1.00  0.00    -0.356 OA
HETATM   17  C   UNL     1       8.828  20.078  54.322  1.00  0.00     0.210 C 
ENDBRANCH  13  16
ENDBRANCH   7  10
ENDBRANCH   5   7
ENDBRANCH   1   5
BRANCH   2  18
HETATM   18  C   UNL     1       7.421  29.335  58.064  1.00  0.00     0.126 A 
HETATM   19  N   UNL     1       6.397  30.094  57.579  1.00  0.00    -0.224 NA
HETATM   20  C   UNL     1       6.289  31.359  58.069  1.00  0.00     0.151 A 
HETATM   21  C   UNL     1       7.151  31.872  59.037  1.00  0.00     0.052 A 
HETATM   22  C   UNL     1       8.179  31.064  59.520  1.00  0.00     0.006 A 
HETATM   23  C   UNL     1       8.324  29.774  59.023  1.00  0.00     0.037 A 
BRANCH  20  24
HETATM   24  N   UNL     1       5.253  32.195  57.550  1.00  0.00    -0.227 N 
HETATM   25  N   UNL     1       5.340  33.554  57.551  1.00  0.00    -0.179 NA
HETATM   26  C   UNL     1       4.207  33.959  56.975  1.00  0.00     0.141 A 
HETATM   27  C   UNL     1       3.378  32.891  56.599  1.00  0.00     0.040 A 
HETATM   28  C   UNL     1       4.070  31.768  56.982  1.00  0.00     0.122 A 
ENDBRANCH  20  24
ENDBRANCH   2  18
TORSDOF 7
ENDMDL
MODEL 8
REMARK VINA RESULT:      -7.9      1.958      2.305
REMARK  7 active torsions:
REMARK  status: ('A' for Active; 'I' for Inactive)
REMARK    1  A    between atoms: C_2  and  N_3 
REMARK    2  A    between atoms: C_2  and  C_17 
REMARK       I    between atoms: N_3  and  C_4 
REMARK    3  A    between atoms: C_4  and  C_5 
REMARK    4  A    between atoms: C_7  and  N_8 
REMARK    5  A    between atoms: C_17  and  O_18 
REMARK    6  A    between atoms: C_17  and  C_19 
REMARK    7  A    between atoms: C_22  and  O_23 
ROOT
HETATM    1  N   UNL     1       6.055  27.693  56.910  1.00  0.00    -0.349 N 
HETATM    2  C   UNL     1       7.108  28.491  57.297  1.00  0.00     0.270 C 
HETATM    3  O   UNL     1       8.279  28.128  57.298  1.00  0.00    -0.266 OA
HETATM    4  H   UNL     1       5.120  28.059  57.080  1.00  0.00     0.163 HD
ENDROOT
BRANCH   1   5
HETATM    5  C   UNL     1       6.194  26.274  56.579  1.00  0.00     0.114 C 
HETATM    6  C   UNL     1       5.039  25.494  57.215  1.00  0.00     0.035 C 
BRANCH   5   7
HETATM    7  C   UNL     1       6.278  26.111  55.037  1.00  0.00     0.173 C 
BRANCH   7   8
HETATM    8  O   UNL     1       4.968  26.162  54.454  1.00  0.00    -0.389 OA
HETATM    9  H   UNL     1       4.394  26.610  55.102  1.00  0.00     0.210 HD
ENDBRANCH   7   8
BRANCH   7  10
HETATM   10  C   UNL     1       7.024  24.873  54.577  1.00  0.00    -0.028 A 
HETATM   11  C   UNL     1       7.974  24.281  55.418  1.00  0.00     0.012 A 
HETATM   12  C   UNL     1       8.668  23.139  55.012  1.00  0.00     0.037 A 
HETATM   13  C   UNL     1       8.421  22.558  53.767  1.00  0.00     0.068 A 
HETATM   14  C   UNL     1       7.474  23.138  52.924  1.00  0.00     0.037 A 
HETATM   15  C   UNL     1       6.783  24.288  53.325  1.00  0.00     0.012 A 
BRANCH  13  16
HETATM   16  O   UNL     1       9.164  21.443  53.498  1.00  0.00    -0.356 OA
HETATM   17  C   UNL     1       8.482  20.344  52.907  1.00  0.00     0.210 C 
ENDBRANCH  13  16
ENDBRANCH   7  10
ENDBRANCH   5   7
ENDBRANCH   1   5
BRANCH   2  18
HETATM   18  C   UNL     1       6.713  29.867  57.739  1.00  0.00     0.126 A 
HETATM   19  N   UNL     1       7.196  30.274  58.947  1.00  0.00    -0.224 NA
HETATM   20  C   UNL     1       6.829  31.516  59.365  1.00  0.00     0.151 A 
HETATM   21  C   UNL     1       6.020  32.362  58.606  1.00  0.00     0.052 A 
HETATM   22  C   UNL     1       5.553  31.917  57.371  1.00  0.00     0.006 A 
HETATM   23  C   UNL     1       5.898  30.645  56.928  1.00  0.00     0.037 A 
BRANCH  20  24
HETATM   24  N   UNL     1       7.284  31.957  60.646  1.00  0.00    -0.227 N 
HETATM   25  N   UNL     1       6.701  32.992  61.313  1.00  0.00    -0.179 NA
HETATM   26  C   UNL     1       7.386  33.078  62.454  1.00  0.00     0.141 A 
HETATM   27  C   UNL     1       8.408  32.121  62.546  1.00  0.00     0.040 A 
HETATM   28  C   UNL     1       8.324  31.415  61.371  1.00  0.00     0.122 A 
ENDBRANCH  20  24
ENDBRANCH   2  18
TORSDOF 7
ENDMDL
MODEL 9
REMARK VINA RESULT:      -7.8      6.032      9.571
REMARK  7 active torsions:
REMARK  status: ('A' for Active; 'I' for Inactive)
REMARK    1  A    between atoms: C_2  and  N_3 
REMARK    2  A    between atoms: C_2  and  C_17 
REMARK       I    between atoms: N_3  and  C_4 
REMARK    3  A    between atoms: C_4  and  C_5 
REMARK    4  A    between atoms: C_7  and  N_8 
REMARK    5  A    between atoms: C_17  and  O_18 
REMARK    6  A    between atoms: C_17  and  C_19 
REMARK    7  A    between atoms: C_22  and  O_23 
ROOT
HETATM    1  N   UNL     1       4.988  25.967  51.279  1.00  0.00    -0.349 N 
HETATM    2  C   UNL     1       4.853  27.082  50.483  1.00  0.00     0.270 C 
HETATM    3  O   UNL     1       5.326  28.180  50.755  1.00  0.00    -0.266 OA
HETATM    4  H   UNL     1       4.440  25.151  51.017  1.00  0.00     0.163 HD
ENDROOT
BRANCH   1   5
HETATM    5  C   UNL     1       5.601  25.991  52.609  1.00  0.00     0.114 C 
HETATM    6  C   UNL     1       4.738  25.175  53.575  1.00  0.00     0.035 C 
BRANCH   5   7
HETATM    7  C   UNL     1       7.066  25.487  52.509  1.00  0.00     0.173 C 
BRANCH   7   8
HETATM    8  O   UNL     1       7.359  25.053  51.174  1.00  0.00    -0.389 OA
HETATM    9  H   UNL     1       7.630  25.847  50.678  1.00  0.00     0.210 HD
ENDBRANCH   7   8
BRANCH   7  10
HETATM   10  C   UNL     1       7.430  24.413  53.516  1.00  0.00    -0.028 A 
HETATM   11  C   UNL     1       7.675  24.764  54.850  1.00  0.00     0.012 A 
HETATM   12  C   UNL     1       8.007  23.788  55.792  1.00  0.00     0.037 A 
HETATM   13  C   UNL     1       8.090  22.443  55.427  1.00  0.00     0.068 A 
HETATM   14  C   UNL     1       7.846  22.083  54.103  1.00  0.00     0.037 A 
HETATM   15  C   UNL     1       7.520  23.061  53.155  1.00  0.00     0.012 A 
BRANCH  13  16
HETATM   16  O   UNL     1       8.419  21.593  56.446  1.00  0.00    -0.356 OA
HETATM   17  C   UNL     1       9.146  20.422  56.097  1.00  0.00     0.210 C 
ENDBRANCH  13  16
ENDBRANCH   7  10
ENDBRANCH   5   7
ENDBRANCH   1   5
BRANCH   2  18
HETATM   18  C   UNL     1       4.057  26.859  49.234  1.00  0.00     0.126 A 
HETATM   19  N   UNL     1       3.533  27.971  48.645  1.00  0.00    -0.224 NA
HETATM   20  C   UNL     1       2.794  27.776  47.519  1.00  0.00     0.151 A 
HETATM   21  C   UNL     1       2.586  26.515  46.959  1.00  0.00     0.052 A 
HETATM   22  C   UNL     1       3.146  25.402  47.581  1.00  0.00     0.006 A 
HETATM   23  C   UNL     1       3.890  25.570  48.743  1.00  0.00     0.037 A 
BRANCH  20  24
HETATM   24  N   UNL     1       2.195  28.916  46.901  1.00  0.00    -0.227 N 
HETATM   25  N   UNL     1       0.880  28.952  46.549  1.00  0.00    -0.179 NA
HETATM   26  C   UNL     1       0.708  30.170  46.032  1.00  0.00     0.141 A 
HETATM   27  C   UNL     1       1.887  30.932  46.037  1.00  0.00     0.040 A 
HETATM   28  C   UNL     1       2.829  30.103  46.596  1.00  0.00     0.122 A 
ENDBRANCH  20  24
ENDBRANCH   2  18
TORSDOF 7
ENDMDL
MODEL 10
REMARK VINA RESULT:      -7.8      2.506      3.145
REMARK  7 active torsions:
REMARK  status: ('A' for Active; 'I' for Inactive)
REMARK    1  A    between atoms: C_2  and  N_3 
REMARK    2  A    between atoms: C_2  and  C_17 
REMARK       I    between atoms: N_3  and  C_4 
REMARK    3  A    between atoms: C_4  and  C_5 
REMARK    4  A    between atoms: C_7  and  N_8 
REMARK    5  A    between atoms: C_17  and  O_18 
REMARK    6  A    between atoms: C_17  and  C_19 
REMARK    7  A    between atoms: C_22  and  O_23 
ROOT
HETATM    1  N   UNL     1       6.298  27.382  54.796  1.00  0.00    -0.349 N 
HETATM    2  C   UNL     1       5.941  27.355  56.125  1.00  0.00     0.270 C 
HETATM    3  O   UNL     1       5.278  26.463  56.639  1.00  0.00    -0.266 OA
HETATM    4  H   UNL     1       6.732  28.238  54.457  1.00  0.00     0.163 HD
ENDROOT
BRANCH   1   5
HETATM    5  C   UNL     1       5.817  26.413  53.809  1.00  0.00     0.114 C 
HETATM    6  C   UNL     1       4.875  27.119  52.829  1.00  0.00     0.035 C 
BRANCH   5   7
HETATM    7  C   UNL     1       7.031  25.732  53.121  1.00  0.00     0.173 C 
BRANCH   7   8
HETATM    8  O   UNL     1       6.872  25.741  51.696  1.00  0.00    -0.389 OA
HETATM    9  H   UNL     1       7.528  26.371  51.348  1.00  0.00     0.210 HD
ENDBRANCH   7   8
BRANCH   7  10
HETATM   10  C   UNL     1       7.331  24.331  53.621  1.00  0.00    -0.028 A 
HETATM   11  C   UNL     1       7.795  23.359  52.726  1.00  0.00     0.012 A 
HETATM   12  C   UNL     1       8.080  22.065  53.169  1.00  0.00     0.037 A 
HETATM   13  C   UNL     1       7.919  21.718  54.511  1.00  0.00     0.068 A 
HETATM   14  C   UNL     1       7.460  22.680  55.410  1.00  0.00     0.037 A 
HETATM   15  C   UNL     1       7.166  23.975  54.967  1.00  0.00     0.012 A 
BRANCH  13  16
HETATM   16  O   UNL     1       8.239  20.423  54.810  1.00  0.00    -0.356 OA
HETATM   17  C   UNL     1       8.906  20.194  56.044  1.00  0.00     0.210 C 
ENDBRANCH  13  16
ENDBRANCH   7  10
ENDBRANCH   5   7
ENDBRANCH   1   5
BRANCH   2  18
HETATM   18  C   UNL     1       6.423  28.531  56.919  1.00  0.00     0.126 A 
HETATM   19  N   UNL     1       5.697  29.678  56.799  1.00  0.00    -0.224 NA
HETATM   20  C   UNL     1       6.136  30.757  57.503  1.00  0.00     0.151 A 
HETATM   21  C   UNL     1       7.257  30.713  58.333  1.00  0.00     0.052 A 
HETATM   22  C   UNL     1       7.969  29.520  58.440  1.00  0.00     0.006 A 
HETATM   23  C   UNL     1       7.552  28.408  57.717  1.00  0.00     0.037 A 
BRANCH  20  24
HETATM   24  N   UNL     1       5.422  31.987  57.366  1.00  0.00    -0.227 N 
HETATM   25  N   UNL     1       5.624  33.047  58.198  1.00  0.00    -0.179 NA
HETATM   26  C   UNL     1       4.801  33.990  57.738  1.00  0.00     0.141 A 
HETATM   27  C   UNL     1       4.061  33.567  56.623  1.00  0.00     0.040 A 
HETATM   28  C   UNL     1       4.476  32.276  56.406  1.00  0.00     0.122 A 
ENDBRANCH  20  24
ENDBRANCH   2  18
TORSDOF 7
ENDMDL
