MODEL 1
REMARK VINA RESULT:     -10.0      0.000      0.000
REMARK  10 active torsions:
REMARK  status: ('A' for Active; 'I' for Inactive)
REMARK    1  A    between atoms: C_4  and  C_5 
REMARK    2  A    between atoms: C_8  and  O_9 
REMARK    3  A    between atoms: C_14  and  C_15 
REMARK    4  A    between atoms: C_18  and  C_19 
REMARK    5  A    between atoms: C_19  and  N_20 
REMARK    6  A    between atoms: N_20  and  C_21 
REMARK    7  A    between atoms: C_21  and  N_22 
REMARK    8  A    between atoms: N_22  and  C_23 
REMARK    9  A    between atoms: C_25  and  C_26 
REMARK   10  A    between atoms: C_26  and  O_27 
ROOT
HETATM    1  C   UNL     1       4.193  28.917  56.040  1.00  0.00     0.067 C 
HETATM    2  C   UNL     1       4.309  30.408  55.673  1.00  0.00     0.001 C 
HETATM    3  C   UNL     1       5.691  30.988  56.037  1.00  0.00     0.040 C 
HETATM    4  C   UNL     1       5.961  30.930  57.548  1.00  0.00     0.206 C 
HETATM    5  N   UNL     1       4.861  30.065  58.159  1.00  0.00    -0.065 N 
HETATM    6  H   UNL     1       5.066  29.905  59.155  1.00  0.00     0.280 HD
HETATM    7  C   UNL     1       4.750  28.703  57.466  1.00  0.00     0.246 C 
HETATM    8  C   UNL     1       3.292  31.156  56.578  1.00  0.00     0.033 C 
HETATM    9  C   UNL     1       3.532  30.806  58.054  1.00  0.00     0.236 C 
ENDROOT
BRANCH   4  10
HETATM   10  C   UNL     1       7.378  30.427  57.909  1.00  0.00     0.155 C 
BRANCH  10  11
HETATM   11  N   UNL     1       7.525  30.141  59.335  1.00  0.00    -0.365 N 
HETATM   12  H   UNL     1       7.531  29.163  59.611  1.00  0.00     0.161 HD
BRANCH  11  13
HETATM   13  C   UNL     1       8.153  30.937  60.254  1.00  0.00     0.172 C 
HETATM   14  S   UNL     1       9.405  31.990  59.918  1.00  0.00    -0.041 SA
BRANCH  13  15
HETATM   15  N   UNL     1       7.737  30.840  61.552  1.00  0.00    -0.333 N 
HETATM   16  H   UNL     1       7.956  29.936  61.963  1.00  0.00     0.168 HD
BRANCH  15  17
HETATM   17  C   UNL     1       7.204  31.791  62.449  1.00  0.00     0.035 A 
HETATM   18  C   UNL     1       5.905  32.295  62.374  1.00  0.00     0.047 A 
HETATM   19  C   UNL     1       5.444  33.255  63.291  1.00  0.00     0.041 A 
HETATM   20  C   UNL     1       6.308  33.739  64.277  1.00  0.00     0.018 A 
HETATM   21  C   UNL     1       7.619  33.268  64.337  1.00  0.00     0.003 A 
HETATM   22  C   UNL     1       8.063  32.303  63.427  1.00  0.00     0.029 A 
BRANCH  19  23
HETATM   23  C   UNL     1       4.033  33.707  63.159  1.00  0.00     0.293 C 
HETATM   24  O   UNL     1       3.254  33.730  64.102  1.00  0.00    -0.259 OA
BRANCH  23  25
HETATM   25  O   UNL     1       3.760  34.070  61.884  1.00  0.00    -0.323 OA
HETATM   26  C   UNL     1       2.373  34.283  61.615  1.00  0.00     0.213 C 
ENDBRANCH  23  25
ENDBRANCH  19  23
ENDBRANCH  15  17
ENDBRANCH  13  15
ENDBRANCH  11  13
ENDBRANCH  10  11
ENDBRANCH   4  10
BRANCH   1  27
HETATM   27  C   UNL     1       4.640  27.839  55.091  1.00  0.00     0.038 C 
HETATM   28  N   UNL     1       4.421  27.654  53.745  1.00  0.00    -0.277 N 
HETATM   29  C   UNL     1       3.577  28.354  52.807  1.00  0.00     0.179 C 
HETATM   30  N   UNL     1       5.147  26.649  53.226  1.00  0.00    -0.172 NA
HETATM   31  C   UNL     1       5.741  26.051  54.262  1.00  0.00     0.089 C 
HETATM   32  C   UNL     1       5.441  26.759  55.447  1.00  0.00     0.061 C 
BRANCH  31  33
HETATM   33  C   UNL     1       6.600  24.878  54.096  1.00  0.00    -0.005 A 
HETATM   34  C   UNL     1       6.910  24.065  55.193  1.00  0.00     0.016 A 
HETATM   35  C   UNL     1       7.691  22.917  55.029  1.00  0.00     0.037 A 
HETATM   36  C   UNL     1       8.176  22.561  53.771  1.00  0.00     0.068 A 
HETATM   37  C   UNL     1       7.900  23.380  52.677  1.00  0.00     0.037 A 
HETATM   38  C   UNL     1       7.116  24.531  52.839  1.00  0.00     0.016 A 
BRANCH  36  39
HETATM   39  O   UNL     1       8.908  21.407  53.743  1.00  0.00    -0.356 OA
HETATM   40  C   UNL     1       8.461  20.385  52.861  1.00  0.00     0.210 C 
ENDBRANCH  36  39
ENDBRANCH  31  33
ENDBRANCH   1  27
TORSDOF 10
ENDMDL
MODEL 2
REMARK VINA RESULT:      -9.7      1.226      1.367
REMARK  10 active torsions:
REMARK  status: ('A' for Active; 'I' for Inactive)
REMARK    1  A    between atoms: C_4  and  C_5 
REMARK    2  A    between atoms: C_8  and  O_9 
REMARK    3  A    between atoms: C_14  and  C_15 
REMARK    4  A    between atoms: C_18  and  C_19 
REMARK    5  A    between atoms: C_19  and  N_20 
REMARK    6  A    between atoms: N_20  and  C_21 
REMARK    7  A    between atoms: C_21  and  N_22 
REMARK    8  A    between atoms: N_22  and  C_23 
REMARK    9  A    between atoms: C_25  and  C_26 
REMARK   10  A    between atoms: C_26  and  O_27 
ROOT
HETATM    1  C   UNL     1       4.737  28.142  55.458  1.00  0.00     0.067 C 
HETATM    2  C   UNL     1       5.003  29.631  55.167  1.00  0.00     0.001 C 
HETATM    3  C   UNL     1       6.266  30.144  55.888  1.00  0.00     0.040 C 
HETATM    4  C   UNL     1       6.135  30.056  57.416  1.00  0.00     0.206 C 
HETATM    5  N   UNL     1       4.881  29.233  57.702  1.00  0.00    -0.065 N 
HETATM    6  H   UNL     1       4.815  29.052  58.714  1.00  0.00     0.280 HD
HETATM    7  C   UNL     1       4.897  27.887  56.973  1.00  0.00     0.246 C 
HETATM    8  C   UNL     1       3.818  30.412  55.796  1.00  0.00     0.033 C 
HETATM    9  C   UNL     1       3.655  30.035  57.277  1.00  0.00     0.236 C 
ENDROOT
BRANCH   4  10
HETATM   10  C   UNL     1       7.390  29.485  58.117  1.00  0.00     0.155 C 
BRANCH  10  11
HETATM   11  N   UNL     1       7.648  30.122  59.408  1.00  0.00    -0.365 N 
HETATM   12  H   UNL     1       7.805  29.506  60.202  1.00  0.00     0.161 HD
BRANCH  11  13
HETATM   13  C   UNL     1       8.206  31.357  59.598  1.00  0.00     0.172 C 
HETATM   14  S   UNL     1       9.777  31.772  59.213  1.00  0.00    -0.041 SA
BRANCH  13  15
HETATM   15  N   UNL     1       7.419  32.314  60.173  1.00  0.00    -0.333 N 
HETATM   16  H   UNL     1       6.857  32.817  59.489  1.00  0.00     0.168 HD
BRANCH  15  17
HETATM   17  C   UNL     1       7.142  32.628  61.521  1.00  0.00     0.035 A 
HETATM   18  C   UNL     1       5.946  33.195  61.963  1.00  0.00     0.047 A 
HETATM   19  C   UNL     1       5.743  33.499  63.320  1.00  0.00     0.041 A 
HETATM   20  C   UNL     1       6.766  33.259  64.241  1.00  0.00     0.018 A 
HETATM   21  C   UNL     1       7.978  32.726  63.804  1.00  0.00     0.003 A 
HETATM   22  C   UNL     1       8.164  32.416  62.453  1.00  0.00     0.029 A 
BRANCH  19  23
HETATM   23  C   UNL     1       4.423  34.066  63.706  1.00  0.00     0.293 C 
HETATM   24  O   UNL     1       3.411  33.385  63.796  1.00  0.00    -0.259 OA
BRANCH  23  25
HETATM   25  O   UNL     1       4.516  35.397  63.928  1.00  0.00    -0.323 OA
HETATM   26  C   UNL     1       3.883  36.207  62.935  1.00  0.00     0.213 C 
ENDBRANCH  23  25
ENDBRANCH  19  23
ENDBRANCH  15  17
ENDBRANCH  13  15
ENDBRANCH  11  13
ENDBRANCH  10  11
ENDBRANCH   4  10
BRANCH   1  27
HETATM   27  C   UNL     1       5.370  27.056  54.631  1.00  0.00     0.038 C 
HETATM   28  N   UNL     1       5.750  27.015  53.308  1.00  0.00    -0.277 N 
HETATM   29  C   UNL     1       5.551  27.946  52.225  1.00  0.00     0.179 C 
HETATM   30  N   UNL     1       6.447  25.910  52.996  1.00  0.00    -0.172 NA
HETATM   31  C   UNL     1       6.401  25.126  54.076  1.00  0.00     0.089 C 
HETATM   32  C   UNL     1       5.727  25.804  55.117  1.00  0.00     0.061 C 
BRANCH  31  33
HETATM   33  C   UNL     1       7.027  23.804  54.108  1.00  0.00    -0.005 A 
HETATM   34  C   UNL     1       7.221  23.140  55.325  1.00  0.00     0.016 A 
HETATM   35  C   UNL     1       7.774  21.856  55.354  1.00  0.00     0.037 A 
HETATM   36  C   UNL     1       8.146  21.215  54.173  1.00  0.00     0.068 A 
HETATM   37  C   UNL     1       7.987  21.880  52.958  1.00  0.00     0.037 A 
HETATM   38  C   UNL     1       7.430  23.167  52.926  1.00  0.00     0.016 A 
BRANCH  36  39
HETATM   39  O   UNL     1       8.655  19.958  54.337  1.00  0.00    -0.356 OA
HETATM   40  C   UNL     1       9.053  19.593  55.653  1.00  0.00     0.210 C 
ENDBRANCH  36  39
ENDBRANCH  31  33
ENDBRANCH   1  27
TORSDOF 10
ENDMDL
MODEL 3
REMARK VINA RESULT:      -9.5      4.507     10.890
REMARK  10 active torsions:
REMARK  status: ('A' for Active; 'I' for Inactive)
REMARK    1  A    between atoms: C_4  and  C_5 
REMARK    2  A    between atoms: C_8  and  O_9 
REMARK    3  A    between atoms: C_14  and  C_15 
REMARK    4  A    between atoms: C_18  and  C_19 
REMARK    5  A    between atoms: C_19  and  N_20 
REMARK    6  A    between atoms: N_20  and  C_21 
REMARK    7  A    between atoms: C_21  and  N_22 
REMARK    8  A    between atoms: N_22  and  C_23 
REMARK    9  A    between atoms: C_25  and  C_26 
REMARK   10  A    between atoms: C_26  and  O_27 
ROOT
HETATM    1  C   UNL     1       6.620  25.794  54.172  1.00  0.00     0.067 C 
HETATM    2  C   UNL     1       6.912  26.400  52.786  1.00  0.00     0.001 C 
HETATM    3  C   UNL     1       6.002  27.607  52.479  1.00  0.00     0.040 C 
HETATM    4  C   UNL     1       4.517  27.215  52.436  1.00  0.00     0.206 C 
HETATM    5  N   UNL     1       4.423  25.791  52.979  1.00  0.00    -0.065 N 
HETATM    6  H   UNL     1       3.432  25.527  53.075  1.00  0.00     0.280 HD
HETATM    7  C   UNL     1       5.091  25.653  54.350  1.00  0.00     0.246 C 
HETATM    8  C   UNL     1       6.522  25.311  51.749  1.00  0.00     0.033 C 
HETATM    9  C   UNL     1       5.080  24.838  51.986  1.00  0.00     0.236 C 
ENDROOT
BRANCH   4  10
HETATM   10  C   UNL     1       3.591  28.198  53.190  1.00  0.00     0.155 C 
BRANCH  10  11
HETATM   11  N   UNL     1       2.763  28.993  52.285  1.00  0.00    -0.365 N 
HETATM   12  H   UNL     1       1.756  28.869  52.353  1.00  0.00     0.161 HD
BRANCH  11  13
HETATM   13  C   UNL     1       3.094  30.207  51.748  1.00  0.00     0.172 C 
HETATM   14  S   UNL     1       3.221  31.635  52.605  1.00  0.00    -0.041 SA
BRANCH  13  15
HETATM   15  N   UNL     1       3.313  30.255  50.400  1.00  0.00    -0.333 N 
HETATM   16  H   UNL     1       3.241  31.199  50.028  1.00  0.00     0.168 HD
BRANCH  15  17
HETATM   17  C   UNL     1       3.755  29.281  49.478  1.00  0.00     0.035 A 
HETATM   18  C   UNL     1       2.911  28.378  48.831  1.00  0.00     0.047 A 
HETATM   19  C   UNL     1       3.420  27.420  47.936  1.00  0.00     0.041 A 
HETATM   20  C   UNL     1       4.797  27.349  47.711  1.00  0.00     0.018 A 
HETATM   21  C   UNL     1       5.652  28.225  48.381  1.00  0.00     0.003 A 
HETATM   22  C   UNL     1       5.132  29.182  49.259  1.00  0.00     0.029 A 
BRANCH  19  23
HETATM   23  C   UNL     1       2.443  26.523  47.263  1.00  0.00     0.293 C 
HETATM   24  O   UNL     1       2.784  25.580  46.562  1.00  0.00    -0.259 OA
BRANCH  23  25
HETATM   25  O   UNL     1       1.173  26.902  47.535  1.00  0.00    -0.323 OA
HETATM   26  C   UNL     1       0.430  27.335  46.395  1.00  0.00     0.213 C 
ENDBRANCH  23  25
ENDBRANCH  19  23
ENDBRANCH  15  17
ENDBRANCH  13  15
ENDBRANCH  11  13
ENDBRANCH  10  11
ENDBRANCH   4  10
BRANCH   1  27
HETATM   27  C   UNL     1       7.288  26.320  55.413  1.00  0.00     0.038 C 
HETATM   28  N   UNL     1       7.917  25.680  56.457  1.00  0.00    -0.277 N 
HETATM   29  C   UNL     1       8.035  24.281  56.791  1.00  0.00     0.179 C 
HETATM   30  N   UNL     1       8.543  26.526  57.292  1.00  0.00    -0.172 NA
HETATM   31  C   UNL     1       8.202  27.755  56.897  1.00  0.00     0.089 C 
HETATM   32  C   UNL     1       7.409  27.668  55.731  1.00  0.00     0.061 C 
BRANCH  31  33
HETATM   33  C   UNL     1       8.668  28.955  57.593  1.00  0.00    -0.005 A 
HETATM   34  C   UNL     1       7.939  29.481  58.666  1.00  0.00     0.016 A 
HETATM   35  C   UNL     1       8.408  30.598  59.363  1.00  0.00     0.037 A 
HETATM   36  C   UNL     1       9.607  31.211  59.002  1.00  0.00     0.068 A 
HETATM   37  C   UNL     1      10.325  30.714  57.915  1.00  0.00     0.037 A 
HETATM   38  C   UNL     1       9.858  29.592  57.215  1.00  0.00     0.016 A 
BRANCH  36  39
HETATM   39  O   UNL     1       9.962  32.280  59.776  1.00  0.00    -0.356 OA
HETATM   40  C   UNL     1       9.691  32.183  61.168  1.00  0.00     0.210 C 
ENDBRANCH  36  39
ENDBRANCH  31  33
ENDBRANCH   1  27
TORSDOF 10
ENDMDL
MODEL 4
REMARK VINA RESULT:      -9.4      3.745      6.024
REMARK  10 active torsions:
REMARK  status: ('A' for Active; 'I' for Inactive)
REMARK    1  A    between atoms: C_4  and  C_5 
REMARK    2  A    between atoms: C_8  and  O_9 
REMARK    3  A    between atoms: C_14  and  C_15 
REMARK    4  A    between atoms: C_18  and  C_19 
REMARK    5  A    between atoms: C_19  and  N_20 
REMARK    6  A    between atoms: N_20  and  C_21 
REMARK    7  A    between atoms: C_21  and  N_22 
REMARK    8  A    between atoms: N_22  and  C_23 
REMARK    9  A    between atoms: C_25  and  C_26 
REMARK   10  A    between atoms: C_26  and  O_27 
ROOT
HETATM    1  C   UNL     1       7.047  26.499  55.075  1.00  0.00     0.067 C 
HETATM    2  C   UNL     1       6.171  25.860  56.170  1.00  0.00     0.001 C 
HETATM    3  C   UNL     1       5.036  26.801  56.625  1.00  0.00     0.040 C 
HETATM    4  C   UNL     1       5.576  28.096  57.253  1.00  0.00     0.206 C 
HETATM    5  N   UNL     1       7.076  28.128  56.971  1.00  0.00    -0.065 N 
HETATM    6  H   UNL     1       7.462  29.033  57.276  1.00  0.00     0.280 HD
HETATM    7  C   UNL     1       7.387  27.950  55.482  1.00  0.00     0.246 C 
HETATM    8  C   UNL     1       7.090  25.686  57.410  1.00  0.00     0.033 C 
HETATM    9  C   UNL     1       7.755  27.023  57.774  1.00  0.00     0.236 C 
ENDROOT
BRANCH   4  10
HETATM   10  C   UNL     1       4.855  29.373  56.763  1.00  0.00     0.155 C 
BRANCH  10  11
HETATM   11  N   UNL     1       4.144  30.062  57.839  1.00  0.00    -0.365 N 
HETATM   12  H   UNL     1       3.784  29.486  58.595  1.00  0.00     0.161 HD
BRANCH  11  13
HETATM   13  C   UNL     1       4.336  31.359  58.229  1.00  0.00     0.172 C 
HETATM   14  S   UNL     1       3.898  32.705  57.342  1.00  0.00    -0.041 SA
BRANCH  13  15
HETATM   15  N   UNL     1       4.960  31.565  59.427  1.00  0.00    -0.333 N 
HETATM   16  H   UNL     1       4.327  31.460  60.217  1.00  0.00     0.168 HD
BRANCH  15  17
HETATM   17  C   UNL     1       6.318  31.747  59.769  1.00  0.00     0.035 A 
HETATM   18  C   UNL     1       7.386  31.381  58.951  1.00  0.00     0.047 A 
HETATM   19  C   UNL     1       8.716  31.575  59.362  1.00  0.00     0.041 A 
HETATM   20  C   UNL     1       8.977  32.117  60.623  1.00  0.00     0.018 A 
HETATM   21  C   UNL     1       7.915  32.454  61.462  1.00  0.00     0.003 A 
HETATM   22  C   UNL     1       6.596  32.267  61.037  1.00  0.00     0.029 A 
BRANCH  19  23
HETATM   23  C   UNL     1       9.792  31.189  58.409  1.00  0.00     0.293 C 
HETATM   24  O   UNL     1      10.644  31.975  58.020  1.00  0.00    -0.259 OA
BRANCH  23  25
HETATM   25  O   UNL     1       9.679  29.888  58.055  1.00  0.00    -0.323 OA
HETATM   26  C   UNL     1      10.373  29.540  56.856  1.00  0.00     0.213 C 
ENDBRANCH  23  25
ENDBRANCH  19  23
ENDBRANCH  15  17
ENDBRANCH  13  15
ENDBRANCH  11  13
ENDBRANCH  10  11
ENDBRANCH   4  10
BRANCH   1  27
HETATM   27  C   UNL     1       6.684  26.389  53.619  1.00  0.00     0.038 C 
HETATM   28  N   UNL     1       7.108  25.530  52.631  1.00  0.00    -0.277 N 
HETATM   29  C   UNL     1       8.145  24.527  52.614  1.00  0.00     0.179 C 
HETATM   30  N   UNL     1       6.406  25.650  51.492  1.00  0.00    -0.172 NA
HETATM   31  C   UNL     1       5.606  26.706  51.661  1.00  0.00     0.089 C 
HETATM   32  C   UNL     1       5.759  27.203  52.975  1.00  0.00     0.061 C 
BRANCH  31  33
HETATM   33  C   UNL     1       4.702  27.176  50.611  1.00  0.00    -0.005 A 
HETATM   34  C   UNL     1       4.574  26.462  49.413  1.00  0.00     0.016 A 
HETATM   35  C   UNL     1       3.676  26.881  48.428  1.00  0.00     0.037 A 
HETATM   36  C   UNL     1       2.891  28.019  48.618  1.00  0.00     0.068 A 
HETATM   37  C   UNL     1       3.033  28.755  49.794  1.00  0.00     0.037 A 
HETATM   38  C   UNL     1       3.933  28.335  50.784  1.00  0.00     0.016 A 
BRANCH  36  39
HETATM   39  O   UNL     1       2.040  28.308  47.589  1.00  0.00    -0.356 OA
HETATM   40  C   UNL     1       0.844  27.543  47.511  1.00  0.00     0.210 C 
ENDBRANCH  36  39
ENDBRANCH  31  33
ENDBRANCH   1  27
TORSDOF 10
ENDMDL
MODEL 5
REMARK VINA RESULT:      -9.3      2.452     11.010
REMARK  10 active torsions:
REMARK  status: ('A' for Active; 'I' for Inactive)
REMARK    1  A    between atoms: C_4  and  C_5 
REMARK    2  A    between atoms: C_8  and  O_9 
REMARK    3  A    between atoms: C_14  and  C_15 
REMARK    4  A    between atoms: C_18  and  C_19 
REMARK    5  A    between atoms: C_19  and  N_20 
REMARK    6  A    between atoms: N_20  and  C_21 
REMARK    7  A    between atoms: C_21  and  N_22 
REMARK    8  A    between atoms: N_22  and  C_23 
REMARK    9  A    between atoms: C_25  and  C_26 
REMARK   10  A    between atoms: C_26  and  O_27 
ROOT
HETATM    1  C   UNL     1       8.107  29.970  58.136  1.00  0.00     0.067 C 
HETATM    2  C   UNL     1       8.183  30.134  56.606  1.00  0.00     0.001 C 
HETATM    3  C   UNL     1       6.957  29.523  55.897  1.00  0.00     0.040 C 
HETATM    4  C   UNL     1       6.851  28.008  56.129  1.00  0.00     0.206 C 
HETATM    5  N   UNL     1       7.865  27.658  57.216  1.00  0.00    -0.065 N 
HETATM    6  H   UNL     1       7.750  26.671  57.484  1.00  0.00     0.280 HD
HETATM    7  C   UNL     1       7.686  28.521  58.469  1.00  0.00     0.246 C 
HETATM    8  C   UNL     1       9.398  29.286  56.142  1.00  0.00     0.033 C 
HETATM    9  C   UNL     1       9.272  27.844  56.659  1.00  0.00     0.236 C 
ENDROOT
BRANCH   4  10
HETATM   10  C   UNL     1       5.422  27.529  56.477  1.00  0.00     0.155 C 
BRANCH  10  11
HETATM   11  N   UNL     1       4.533  27.529  55.316  1.00  0.00    -0.365 N 
HETATM   12  H   UNL     1       3.861  28.289  55.250  1.00  0.00     0.161 HD
BRANCH  11  13
HETATM   13  C   UNL     1       4.807  26.979  54.093  1.00  0.00     0.172 C 
HETATM   14  S   UNL     1       4.966  27.835  52.668  1.00  0.00    -0.041 SA
BRANCH  13  15
HETATM   15  N   UNL     1       4.933  25.620  54.034  1.00  0.00    -0.333 N 
HETATM   16  H   UNL     1       4.040  25.153  53.900  1.00  0.00     0.168 HD
BRANCH  15  17
HETATM   17  C   UNL     1       6.064  24.776  53.980  1.00  0.00     0.035 A 
HETATM   18  C   UNL     1       6.705  24.254  55.104  1.00  0.00     0.047 A 
HETATM   19  C   UNL     1       7.839  23.434  54.978  1.00  0.00     0.041 A 
HETATM   20  C   UNL     1       8.353  23.156  53.709  1.00  0.00     0.018 A 
HETATM   21  C   UNL     1       7.739  23.702  52.582  1.00  0.00     0.003 A 
HETATM   22  C   UNL     1       6.604  24.508  52.719  1.00  0.00     0.029 A 
BRANCH  19  23
HETATM   23  C   UNL     1       8.435  22.891  56.229  1.00  0.00     0.293 C 
HETATM   24  O   UNL     1       8.487  23.532  57.269  1.00  0.00    -0.259 OA
BRANCH  23  25
HETATM   25  O   UNL     1       8.893  21.633  56.038  1.00  0.00    -0.323 OA
HETATM   26  C   UNL     1       7.936  20.608  56.309  1.00  0.00     0.213 C 
ENDBRANCH  23  25
ENDBRANCH  19  23
ENDBRANCH  15  17
ENDBRANCH  13  15
ENDBRANCH  11  13
ENDBRANCH  10  11
ENDBRANCH   4  10
BRANCH   1  27
HETATM   27  C   UNL     1       7.395  30.978  58.998  1.00  0.00     0.038 C 
HETATM   28  N   UNL     1       6.299  31.776  58.760  1.00  0.00    -0.277 N 
HETATM   29  C   UNL     1       5.538  32.025  57.560  1.00  0.00     0.179 C 
HETATM   30  N   UNL     1       5.866  32.416  59.859  1.00  0.00    -0.172 NA
HETATM   31  C   UNL     1       6.770  32.169  60.810  1.00  0.00     0.089 C 
HETATM   32  C   UNL     1       7.748  31.282  60.308  1.00  0.00     0.061 C 
BRANCH  31  33
HETATM   33  C   UNL     1       6.658  32.731  62.157  1.00  0.00    -0.005 A 
HETATM   34  C   UNL     1       5.477  33.360  62.567  1.00  0.00     0.016 A 
HETATM   35  C   UNL     1       5.349  33.854  63.868  1.00  0.00     0.037 A 
HETATM   36  C   UNL     1       6.397  33.732  64.782  1.00  0.00     0.068 A 
HETATM   37  C   UNL     1       7.589  33.135  64.374  1.00  0.00     0.037 A 
HETATM   38  C   UNL     1       7.718  32.637  63.069  1.00  0.00     0.016 A 
BRANCH  36  39
HETATM   39  O   UNL     1       6.137  34.237  66.024  1.00  0.00    -0.356 OA
HETATM   40  C   UNL     1       4.842  33.993  66.559  1.00  0.00     0.210 C 
ENDBRANCH  36  39
ENDBRANCH  31  33
ENDBRANCH   1  27
TORSDOF 10
ENDMDL
MODEL 6
REMARK VINA RESULT:      -9.2      1.514      2.018
REMARK  10 active torsions:
REMARK  status: ('A' for Active; 'I' for Inactive)
REMARK    1  A    between atoms: C_4  and  C_5 
REMARK    2  A    between atoms: C_8  and  O_9 
REMARK    3  A    between atoms: C_14  and  C_15 
REMARK    4  A    between atoms: C_18  and  C_19 
REMARK    5  A    between atoms: C_19  and  N_20 
REMARK    6  A    between atoms: N_20  and  C_21 
REMARK    7  A    between atoms: C_21  and  N_22 
REMARK    8  A    between atoms: N_22  and  C_23 
REMARK    9  A    between atoms: C_25  and  C_26 
REMARK   10  A    between atoms: C_26  and  O_27 
ROOT
HETATM    1  C   UNL     1       4.498  29.328  55.609  1.00  0.00     0.067 C 
HETATM    2  C   UNL     1       4.855  30.731  55.080  1.00  0.00     0.001 C 
HETATM    3  C   UNL     1       5.445  31.632  56.184  1.00  0.00     0.040 C 
HETATM    4  C   UNL     1       4.445  31.880  57.324  1.00  0.00     0.206 C 
HETATM    5  N   UNL     1       3.277  30.922  57.099  1.00  0.00    -0.065 N 
HETATM    6  H   UNL     1       2.634  30.973  57.902  1.00  0.00     0.280 HD
HETATM    7  C   UNL     1       3.744  29.470  56.950  1.00  0.00     0.246 C 
HETATM    8  C   UNL     1       3.511  31.394  54.676  1.00  0.00     0.033 C 
HETATM    9  C   UNL     1       2.518  31.350  55.847  1.00  0.00     0.236 C 
ENDROOT
BRANCH   4  10
HETATM   10  C   UNL     1       5.060  31.742  58.735  1.00  0.00     0.155 C 
BRANCH  10  11
HETATM   11  N   UNL     1       6.477  32.101  58.767  1.00  0.00    -0.365 N 
HETATM   12  H   UNL     1       6.756  32.922  58.235  1.00  0.00     0.161 HD
BRANCH  11  13
HETATM   13  C   UNL     1       7.356  31.823  59.778  1.00  0.00     0.172 C 
HETATM   14  S   UNL     1       9.019  31.828  59.634  1.00  0.00    -0.041 SA
BRANCH  13  15
HETATM   15  N   UNL     1       6.825  31.491  60.992  1.00  0.00    -0.333 N 
HETATM   16  H   UNL     1       6.598  30.501  61.059  1.00  0.00     0.168 HD
BRANCH  15  17
HETATM   17  C   UNL     1       6.674  32.221  62.191  1.00  0.00     0.035 A 
HETATM   18  C   UNL     1       5.509  32.896  62.554  1.00  0.00     0.047 A 
HETATM   19  C   UNL     1       5.432  33.620  63.756  1.00  0.00     0.041 A 
HETATM   20  C   UNL     1       6.551  33.692  64.591  1.00  0.00     0.018 A 
HETATM   21  C   UNL     1       7.731  33.049  64.219  1.00  0.00     0.003 A 
HETATM   22  C   UNL     1       7.791  32.321  63.026  1.00  0.00     0.029 A 
BRANCH  19  23
HETATM   23  C   UNL     1       4.138  34.278  64.080  1.00  0.00     0.293 C 
HETATM   24  O   UNL     1       3.066  33.690  64.030  1.00  0.00    -0.259 OA
BRANCH  23  25
HETATM   25  O   UNL     1       4.327  35.574  64.420  1.00  0.00    -0.323 OA
HETATM   26  C   UNL     1       3.729  36.512  63.524  1.00  0.00     0.213 C 
ENDBRANCH  23  25
ENDBRANCH  19  23
ENDBRANCH  15  17
ENDBRANCH  13  15
ENDBRANCH  11  13
ENDBRANCH  10  11
ENDBRANCH   4  10
BRANCH   1  27
HETATM   27  C   UNL     1       5.517  28.222  55.646  1.00  0.00     0.038 C 
HETATM   28  N   UNL     1       6.568  27.973  56.499  1.00  0.00    -0.277 N 
HETATM   29  C   UNL     1       7.141  28.756  57.567  1.00  0.00     0.179 C 
HETATM   30  N   UNL     1       7.137  26.773  56.296  1.00  0.00    -0.172 NA
HETATM   31  C   UNL     1       6.567  26.276  55.196  1.00  0.00     0.089 C 
HETATM   32  C   UNL     1       5.555  27.157  54.753  1.00  0.00     0.061 C 
BRANCH  31  33
HETATM   33  C   UNL     1       6.955  24.981  54.634  1.00  0.00    -0.005 A 
HETATM   34  C   UNL     1       7.300  24.869  53.282  1.00  0.00     0.016 A 
HETATM   35  C   UNL     1       7.717  23.644  52.754  1.00  0.00     0.037 A 
HETATM   36  C   UNL     1       7.797  22.511  53.562  1.00  0.00     0.068 A 
HETATM   37  C   UNL     1       7.426  22.604  54.903  1.00  0.00     0.037 A 
HETATM   38  C   UNL     1       7.009  23.832  55.435  1.00  0.00     0.016 A 
BRANCH  36  39
HETATM   39  O   UNL     1       8.238  21.383  52.929  1.00  0.00    -0.356 OA
HETATM   40  C   UNL     1       8.690  20.318  53.755  1.00  0.00     0.210 C 
ENDBRANCH  36  39
ENDBRANCH  31  33
ENDBRANCH   1  27
TORSDOF 10
ENDMDL
MODEL 7
REMARK VINA RESULT:      -9.0      2.849      3.917
REMARK  10 active torsions:
REMARK  status: ('A' for Active; 'I' for Inactive)
REMARK    1  A    between atoms: C_4  and  C_5 
REMARK    2  A    between atoms: C_8  and  O_9 
REMARK    3  A    between atoms: C_14  and  C_15 
REMARK    4  A    between atoms: C_18  and  C_19 
REMARK    5  A    between atoms: C_19  and  N_20 
REMARK    6  A    between atoms: N_20  and  C_21 
REMARK    7  A    between atoms: C_21  and  N_22 
REMARK    8  A    between atoms: N_22  and  C_23 
REMARK    9  A    between atoms: C_25  and  C_26 
REMARK   10  A    between atoms: C_26  and  O_27 
ROOT
HETATM    1  C   UNL     1       4.659  29.768  54.933  1.00  0.00     0.067 C 
HETATM    2  C   UNL     1       5.118  31.238  54.972  1.00  0.00     0.001 C 
HETATM    3  C   UNL     1       4.996  31.844  56.386  1.00  0.00     0.040 C 
HETATM    4  C   UNL     1       3.541  31.870  56.879  1.00  0.00     0.206 C 
HETATM    5  N   UNL     1       2.728  31.033  55.894  1.00  0.00    -0.065 N 
HETATM    6  H   UNL     1       1.767  30.928  56.247  1.00  0.00     0.280 HD
HETATM    7  C   UNL     1       3.323  29.635  55.698  1.00  0.00     0.246 C 
HETATM    8  C   UNL     1       4.112  32.028  54.092  1.00  0.00     0.033 C 
HETATM    9  C   UNL     1       2.672  31.761  54.555  1.00  0.00     0.236 C 
ENDROOT
BRANCH   4  10
HETATM   10  C   UNL     1       3.370  31.393  58.341  1.00  0.00     0.155 C 
BRANCH  10  11
HETATM   11  N   UNL     1       4.507  31.758  59.185  1.00  0.00    -0.365 N 
HETATM   12  H   UNL     1       5.360  32.043  58.711  1.00  0.00     0.161 HD
BRANCH  11  13
HETATM   13  C   UNL     1       4.437  32.254  60.458  1.00  0.00     0.172 C 
HETATM   14  S   UNL     1       3.312  33.365  60.996  1.00  0.00    -0.041 SA
BRANCH  13  15
HETATM   15  N   UNL     1       5.379  31.823  61.349  1.00  0.00    -0.333 N 
HETATM   16  H   UNL     1       4.978  31.266  62.099  1.00  0.00     0.168 HD
BRANCH  15  17
HETATM   17  C   UNL     1       6.790  31.884  61.338  1.00  0.00     0.035 A 
HETATM   18  C   UNL     1       7.577  31.603  60.222  1.00  0.00     0.047 A 
HETATM   19  C   UNL     1       8.979  31.666  60.286  1.00  0.00     0.041 A 
HETATM   20  C   UNL     1       9.601  31.986  61.496  1.00  0.00     0.018 A 
HETATM   21  C   UNL     1       8.823  32.234  62.627  1.00  0.00     0.003 A 
HETATM   22  C   UNL     1       7.428  32.180  62.547  1.00  0.00     0.029 A 
BRANCH  19  23
HETATM   23  C   UNL     1       9.737  31.388  59.036  1.00  0.00     0.293 C 
HETATM   24  O   UNL     1      10.415  32.234  58.471  1.00  0.00    -0.259 OA
BRANCH  23  25
HETATM   25  O   UNL     1       9.561  30.106  58.641  1.00  0.00    -0.323 OA
HETATM   26  C   UNL     1      10.074  29.813  57.341  1.00  0.00     0.213 C 
ENDBRANCH  23  25
ENDBRANCH  19  23
ENDBRANCH  15  17
ENDBRANCH  13  15
ENDBRANCH  11  13
ENDBRANCH  10  11
ENDBRANCH   4  10
BRANCH   1  27
HETATM   27  C   UNL     1       5.606  28.642  55.247  1.00  0.00     0.038 C 
HETATM   28  N   UNL     1       6.288  28.312  56.396  1.00  0.00    -0.277 N 
HETATM   29  C   UNL     1       6.439  29.005  57.653  1.00  0.00     0.179 C 
HETATM   30  N   UNL     1       6.901  27.119  56.320  1.00  0.00    -0.172 NA
HETATM   31  C   UNL     1       6.762  26.713  55.055  1.00  0.00     0.089 C 
HETATM   32  C   UNL     1       5.967  27.643  54.350  1.00  0.00     0.061 C 
BRANCH  31  33
HETATM   33  C   UNL     1       7.333  25.455  54.573  1.00  0.00    -0.005 A 
HETATM   34  C   UNL     1       7.820  24.504  55.478  1.00  0.00     0.016 A 
HETATM   35  C   UNL     1       8.322  23.281  55.023  1.00  0.00     0.037 A 
HETATM   36  C   UNL     1       8.349  22.986  53.660  1.00  0.00     0.068 A 
HETATM   37  C   UNL     1       7.896  23.939  52.748  1.00  0.00     0.037 A 
HETATM   38  C   UNL     1       7.390  25.165  53.203  1.00  0.00     0.016 A 
BRANCH  36  39
HETATM   39  O   UNL     1       8.843  21.751  53.349  1.00  0.00    -0.356 OA
HETATM   40  C   UNL     1       7.917  20.672  53.339  1.00  0.00     0.210 C 
ENDBRANCH  36  39
ENDBRANCH  31  33
ENDBRANCH   1  27
TORSDOF 10
ENDMDL
MODEL 8
REMARK VINA RESULT:      -9.0      2.108     11.454
REMARK  10 active torsions:
REMARK  status: ('A' for Active; 'I' for Inactive)
REMARK    1  A    between atoms: C_4  and  C_5 
REMARK    2  A    between atoms: C_8  and  O_9 
REMARK    3  A    between atoms: C_14  and  C_15 
REMARK    4  A    between atoms: C_18  and  C_19 
REMARK    5  A    between atoms: C_19  and  N_20 
REMARK    6  A    between atoms: N_20  and  C_21 
REMARK    7  A    between atoms: C_21  and  N_22 
REMARK    8  A    between atoms: N_22  and  C_23 
REMARK    9  A    between atoms: C_25  and  C_26 
REMARK   10  A    between atoms: C_26  and  O_27 
ROOT
HETATM    1  C   UNL     1       5.608  32.274  58.109  1.00  0.00     0.067 C 
HETATM    2  C   UNL     1       4.082  32.198  57.919  1.00  0.00     0.001 C 
HETATM    3  C   UNL     1       3.562  30.748  57.989  1.00  0.00     0.040 C 
HETATM    4  C   UNL     1       4.145  29.870  56.870  1.00  0.00     0.206 C 
HETATM    5  N   UNL     1       5.262  30.679  56.215  1.00  0.00    -0.065 N 
HETATM    6  H   UNL     1       5.758  30.087  55.534  1.00  0.00     0.280 HD
HETATM    7  C   UNL     1       6.281  31.188  57.240  1.00  0.00     0.246 C 
HETATM    8  C   UNL     1       3.805  32.670  56.465  1.00  0.00     0.033 C 
HETATM    9  C   UNL     1       4.648  31.859  55.470  1.00  0.00     0.236 C 
ENDROOT
BRANCH   4  10
HETATM   10  C   UNL     1       4.625  28.482  57.354  1.00  0.00     0.155 C 
BRANCH  10  11
HETATM   11  N   UNL     1       4.556  27.468  56.303  1.00  0.00    -0.365 N 
HETATM   12  H   UNL     1       3.705  27.437  55.749  1.00  0.00     0.161 HD
BRANCH  11  13
HETATM   13  C   UNL     1       5.621  26.924  55.639  1.00  0.00     0.172 C 
HETATM   14  S   UNL     1       7.164  27.561  55.611  1.00  0.00    -0.041 SA
BRANCH  13  15
HETATM   15  N   UNL     1       5.393  25.783  54.922  1.00  0.00    -0.333 N 
HETATM   16  H   UNL     1       4.401  25.587  54.810  1.00  0.00     0.168 HD
BRANCH  15  17
HETATM   17  C   UNL     1       6.256  24.929  54.202  1.00  0.00     0.035 A 
HETATM   18  C   UNL     1       6.827  23.770  54.728  1.00  0.00     0.047 A 
HETATM   19  C   UNL     1       7.694  22.974  53.960  1.00  0.00     0.041 A 
HETATM   20  C   UNL     1       8.016  23.362  52.657  1.00  0.00     0.018 A 
HETATM   21  C   UNL     1       7.477  24.538  52.135  1.00  0.00     0.003 A 
HETATM   22  C   UNL     1       6.606  25.316  52.904  1.00  0.00     0.029 A 
BRANCH  19  23
HETATM   23  C   UNL     1       8.226  21.735  54.590  1.00  0.00     0.293 C 
HETATM   24  O   UNL     1       9.172  21.112  54.128  1.00  0.00    -0.259 OA
BRANCH  23  25
HETATM   25  O   UNL     1       7.526  21.421  55.704  1.00  0.00    -0.323 OA
HETATM   26  C   UNL     1       8.331  21.029  56.817  1.00  0.00     0.213 C 
ENDBRANCH  23  25
ENDBRANCH  19  23
ENDBRANCH  15  17
ENDBRANCH  13  15
ENDBRANCH  11  13
ENDBRANCH  10  11
ENDBRANCH   4  10
BRANCH   1  27
HETATM   27  C   UNL     1       6.224  32.363  59.479  1.00  0.00     0.038 C 
HETATM   28  N   UNL     1       7.510  32.154  59.922  1.00  0.00    -0.277 N 
HETATM   29  C   UNL     1       8.682  31.644  59.252  1.00  0.00     0.179 C 
HETATM   30  N   UNL     1       7.690  32.511  61.204  1.00  0.00    -0.172 NA
HETATM   31  C   UNL     1       6.479  32.817  61.675  1.00  0.00     0.089 C 
HETATM   32  C   UNL     1       5.533  32.727  60.630  1.00  0.00     0.061 C 
BRANCH  31  33
HETATM   33  C   UNL     1       6.263  33.226  63.064  1.00  0.00    -0.005 A 
HETATM   34  C   UNL     1       4.973  33.506  63.529  1.00  0.00     0.016 A 
HETATM   35  C   UNL     1       4.758  33.850  64.867  1.00  0.00     0.037 A 
HETATM   36  C   UNL     1       5.824  33.921  65.763  1.00  0.00     0.068 A 
HETATM   37  C   UNL     1       7.117  33.675  65.303  1.00  0.00     0.037 A 
HETATM   38  C   UNL     1       7.335  33.328  63.962  1.00  0.00     0.016 A 
BRANCH  36  39
HETATM   39  O   UNL     1       5.477  34.247  67.044  1.00  0.00    -0.356 OA
HETATM   40  C   UNL     1       4.651  35.392  67.214  1.00  0.00     0.210 C 
ENDBRANCH  36  39
ENDBRANCH  31  33
ENDBRANCH   1  27
TORSDOF 10
ENDMDL
MODEL 9
REMARK VINA RESULT:      -8.8      4.993      8.834
REMARK  10 active torsions:
REMARK  status: ('A' for Active; 'I' for Inactive)
REMARK    1  A    between atoms: C_4  and  C_5 
REMARK    2  A    between atoms: C_8  and  O_9 
REMARK    3  A    between atoms: C_14  and  C_15 
REMARK    4  A    between atoms: C_18  and  C_19 
REMARK    5  A    between atoms: C_19  and  N_20 
REMARK    6  A    between atoms: N_20  and  C_21 
REMARK    7  A    between atoms: C_21  and  N_22 
REMARK    8  A    between atoms: N_22  and  C_23 
REMARK    9  A    between atoms: C_25  and  C_26 
REMARK   10  A    between atoms: C_26  and  O_27 
ROOT
HETATM    1  C   UNL     1       5.581  30.548  57.272  1.00  0.00     0.067 C 
HETATM    2  C   UNL     1       4.095  30.458  57.668  1.00  0.00     0.001 C 
HETATM    3  C   UNL     1       3.208  30.013  56.488  1.00  0.00     0.040 C 
HETATM    4  C   UNL     1       3.247  31.017  55.325  1.00  0.00     0.206 C 
HETATM    5  N   UNL     1       4.375  32.000  55.632  1.00  0.00    -0.065 N 
HETATM    6  H   UNL     1       4.513  32.625  54.825  1.00  0.00     0.280 HD
HETATM    7  C   UNL     1       5.699  31.286  55.919  1.00  0.00     0.246 C 
HETATM    8  C   UNL     1       3.649  31.907  58.003  1.00  0.00     0.033 C 
HETATM    9  C   UNL     1       3.978  32.850  56.835  1.00  0.00     0.236 C 
ENDROOT
BRANCH   4  10
HETATM   10  C   UNL     1       3.401  30.357  53.936  1.00  0.00     0.155 C 
BRANCH  10  11
HETATM   11  N   UNL     1       3.714  31.325  52.886  1.00  0.00    -0.365 N 
HETATM   12  H   UNL     1       3.839  32.292  53.174  1.00  0.00     0.161 HD
BRANCH  11  13
HETATM   13  C   UNL     1       4.351  31.055  51.706  1.00  0.00     0.172 C 
HETATM   14  S   UNL     1       4.030  31.801  50.247  1.00  0.00    -0.041 SA
BRANCH  13  15
HETATM   15  N   UNL     1       5.307  30.079  51.722  1.00  0.00    -0.333 N 
HETATM   16  H   UNL     1       6.160  30.379  52.189  1.00  0.00     0.168 HD
BRANCH  15  17
HETATM   17  C   UNL     1       5.277  28.717  51.349  1.00  0.00     0.035 A 
HETATM   18  C   UNL     1       4.858  28.258  50.101  1.00  0.00     0.047 A 
HETATM   19  C   UNL     1       4.836  26.885  49.802  1.00  0.00     0.041 A 
HETATM   20  C   UNL     1       5.210  25.959  50.779  1.00  0.00     0.018 A 
HETATM   21  C   UNL     1       5.596  26.408  52.042  1.00  0.00     0.003 A 
HETATM   22  C   UNL     1       5.626  27.777  52.324  1.00  0.00     0.029 A 
BRANCH  19  23
HETATM   23  C   UNL     1       4.411  26.488  48.432  1.00  0.00     0.293 C 
HETATM   24  O   UNL     1       5.103  26.680  47.443  1.00  0.00    -0.259 OA
BRANCH  23  25
HETATM   25  O   UNL     1       3.188  25.908  48.456  1.00  0.00    -0.323 OA
HETATM   26  C   UNL     1       2.134  26.735  47.961  1.00  0.00     0.213 C 
ENDBRANCH  23  25
ENDBRANCH  19  23
ENDBRANCH  15  17
ENDBRANCH  13  15
ENDBRANCH  11  13
ENDBRANCH  10  11
ENDBRANCH   4  10
BRANCH   1  27
HETATM   27  C   UNL     1       6.486  29.348  57.343  1.00  0.00     0.038 C 
HETATM   28  N   UNL     1       7.603  29.085  58.104  1.00  0.00    -0.277 N 
HETATM   29  C   UNL     1       8.371  29.919  58.995  1.00  0.00     0.179 C 
HETATM   30  N   UNL     1       8.025  27.815  57.996  1.00  0.00    -0.172 NA
HETATM   31  C   UNL     1       7.283  27.259  57.036  1.00  0.00     0.089 C 
HETATM   32  C   UNL     1       6.315  28.189  56.595  1.00  0.00     0.061 C 
BRANCH  31  33
HETATM   33  C   UNL     1       7.474  25.873  56.607  1.00  0.00    -0.005 A 
HETATM   34  C   UNL     1       8.243  24.992  57.376  1.00  0.00     0.016 A 
HETATM   35  C   UNL     1       8.388  23.655  56.994  1.00  0.00     0.037 A 
HETATM   36  C   UNL     1       7.771  23.174  55.839  1.00  0.00     0.068 A 
HETATM   37  C   UNL     1       7.028  24.051  55.049  1.00  0.00     0.037 A 
HETATM   38  C   UNL     1       6.880  25.392  55.432  1.00  0.00     0.016 A 
BRANCH  36  39
HETATM   39  O   UNL     1       7.974  21.846  55.589  1.00  0.00    -0.356 OA
HETATM   40  C   UNL     1       8.414  21.048  56.680  1.00  0.00     0.210 C 
ENDBRANCH  36  39
ENDBRANCH  31  33
ENDBRANCH   1  27
TORSDOF 10
ENDMDL
MODEL 10
REMARK VINA RESULT:      -8.7      3.891      7.651
REMARK  10 active torsions:
REMARK  status: ('A' for Active; 'I' for Inactive)
REMARK    1  A    between atoms: C_4  and  C_5 
REMARK    2  A    between atoms: C_8  and  O_9 
REMARK    3  A    between atoms: C_14  and  C_15 
REMARK    4  A    between atoms: C_18  and  C_19 
REMARK    5  A    between atoms: C_19  and  N_20 
REMARK    6  A    between atoms: N_20  and  C_21 
REMARK    7  A    between atoms: C_21  and  N_22 
REMARK    8  A    between atoms: N_22  and  C_23 
REMARK    9  A    between atoms: C_25  and  C_26 
REMARK   10  A    between atoms: C_26  and  O_27 
ROOT
HETATM    1  C   UNL     1       3.581  34.241  61.364  1.00  0.00     0.067 C 
HETATM    2  C   UNL     1       4.792  35.093  61.789  1.00  0.00     0.001 C 
HETATM    3  C   UNL     1       6.031  34.225  62.091  1.00  0.00     0.040 C 
HETATM    4  C   UNL     1       5.790  33.263  63.265  1.00  0.00     0.206 C 
HETATM    5  N   UNL     1       4.295  33.308  63.571  1.00  0.00    -0.065 N 
HETATM    6  H   UNL     1       4.069  32.594  64.277  1.00  0.00     0.280 HD
HETATM    7  C   UNL     1       3.444  33.040  62.325  1.00  0.00     0.246 C 
HETATM    8  C   UNL     1       4.404  35.749  63.142  1.00  0.00     0.033 C 
HETATM    9  C   UNL     1       3.948  34.678  64.145  1.00  0.00     0.236 C 
ENDROOT
BRANCH   4  10
HETATM   10  C   UNL     1       6.297  31.825  63.006  1.00  0.00     0.155 C 
BRANCH  10  11
HETATM   11  N   UNL     1       6.715  31.619  61.621  1.00  0.00    -0.365 N 
HETATM   12  H   UNL     1       6.217  32.144  60.907  1.00  0.00     0.161 HD
BRANCH  11  13
HETATM   13  C   UNL     1       7.963  31.244  61.204  1.00  0.00     0.172 C 
HETATM   14  S   UNL     1       9.110  30.493  62.158  1.00  0.00    -0.041 SA
BRANCH  13  15
HETATM   15  N   UNL     1       8.302  31.531  59.912  1.00  0.00    -0.333 N 
HETATM   16  H   UNL     1       8.264  32.527  59.713  1.00  0.00     0.168 HD
BRANCH  15  17
HETATM   17  C   UNL     1       8.825  30.733  58.871  1.00  0.00     0.035 A 
HETATM   18  C   UNL     1       8.274  29.517  58.465  1.00  0.00     0.047 A 
HETATM   19  C   UNL     1       8.856  28.764  57.432  1.00  0.00     0.041 A 
HETATM   20  C   UNL     1      10.025  29.222  56.817  1.00  0.00     0.018 A 
HETATM   21  C   UNL     1      10.602  30.419  57.241  1.00  0.00     0.003 A 
HETATM   22  C   UNL     1      10.007  31.166  58.262  1.00  0.00     0.029 A 
BRANCH  19  23
HETATM   23  C   UNL     1       8.179  27.498  57.039  1.00  0.00     0.293 C 
HETATM   24  O   UNL     1       7.979  26.583  57.826  1.00  0.00    -0.259 OA
BRANCH  23  25
HETATM   25  O   UNL     1       7.838  27.520  55.730  1.00  0.00    -0.323 OA
HETATM   26  C   UNL     1       7.116  26.369  55.289  1.00  0.00     0.213 C 
ENDBRANCH  23  25
ENDBRANCH  19  23
ENDBRANCH  15  17
ENDBRANCH  13  15
ENDBRANCH  11  13
ENDBRANCH  10  11
ENDBRANCH   4  10
BRANCH   1  27
HETATM   27  C   UNL     1       3.367  33.844  59.928  1.00  0.00     0.038 C 
HETATM   28  N   UNL     1       2.651  34.433  58.911  1.00  0.00    -0.277 N 
HETATM   29  C   UNL     1       1.748  35.558  58.902  1.00  0.00     0.179 C 
HETATM   30  N   UNL     1       2.859  33.853  57.717  1.00  0.00    -0.172 NA
HETATM   31  C   UNL     1       3.597  32.767  57.958  1.00  0.00     0.089 C 
HETATM   32  C   UNL     1       3.928  32.721  59.331  1.00  0.00     0.061 C 
BRANCH  31  33
HETATM   33  C   UNL     1       4.004  31.849  56.893  1.00  0.00    -0.005 A 
HETATM   34  C   UNL     1       5.230  31.177  56.965  1.00  0.00     0.016 A 
HETATM   35  C   UNL     1       5.599  30.263  55.974  1.00  0.00     0.037 A 
HETATM   36  C   UNL     1       4.754  30.004  54.895  1.00  0.00     0.068 A 
HETATM   37  C   UNL     1       3.545  30.691  54.797  1.00  0.00     0.037 A 
HETATM   38  C   UNL     1       3.172  31.607  55.791  1.00  0.00     0.016 A 
BRANCH  36  39
HETATM   39  O   UNL     1       5.223  29.076  54.009  1.00  0.00    -0.356 OA
HETATM   40  C   UNL     1       4.681  29.112  52.695  1.00  0.00     0.210 C 
ENDBRANCH  36  39
ENDBRANCH  31  33
ENDBRANCH   1  27
TORSDOF 10
ENDMDL
