MODEL 1
REMARK VINA RESULT:     -10.0      0.000      0.000
REMARK  6 active torsions:
REMARK  status: ('A' for Active; 'I' for Inactive)
REMARK    1  A    between atoms: C_2  and  C_3 
REMARK    2  A    between atoms: C_7  and  C_8 
REMARK       I    between atoms: C_8  and  N_9 
REMARK    3  A    between atoms: N_9  and  C_10 
REMARK    4  A    between atoms: C_13  and  C_14 
REMARK       I    between atoms: C_14  and  N_15 
REMARK    5  A    between atoms: N_15  and  C_16 
REMARK    6  A    between atoms: C_16  and  C_17 
ROOT
HETATM    1  C   UNL     1       7.403  28.982  57.708  1.00  0.00     0.035 A 
HETATM    2  C   UNL     1       7.183  29.524  56.440  1.00  0.00     0.030 A 
HETATM    3  C   UNL     1       7.184  28.706  55.302  1.00  0.00     0.019 A 
HETATM    4  C   UNL     1       7.402  27.330  55.424  1.00  0.00     0.032 A 
HETATM    5  C   UNL     1       7.660  26.789  56.687  1.00  0.00     0.019 A 
HETATM    6  C   UNL     1       7.658  27.609  57.820  1.00  0.00     0.030 A 
ENDROOT
BRANCH   1   7
HETATM    7  N   UNL     1       7.378  29.725  58.904  1.00  0.00    -0.322 N 
HETATM    8  C   UNL     1       8.409  30.440  59.484  1.00  0.00     0.274 C 
HETATM    9  O   UNL     1       9.552  30.514  59.047  1.00  0.00    -0.266 OA
HETATM   10  H   UNL     1       6.484  29.767  59.374  1.00  0.00     0.169 HD
BRANCH   8  11
HETATM   11  C   UNL     1       8.042  31.146  60.689  1.00  0.00     0.120 A 
HETATM   12  N   UNL     1       6.739  31.491  60.936  1.00  0.00    -0.273 N 
HETATM   13  N   UNL     1       6.551  32.136  62.099  1.00  0.00    -0.179 NA
HETATM   14  H   UNL     1       5.939  31.306  60.340  1.00  0.00     0.189 HD
HETATM   15  C   UNL     1       7.777  32.214  62.626  1.00  0.00     0.056 A 
HETATM   16  C   UNL     1       8.744  31.613  61.785  1.00  0.00     0.065 A 
BRANCH  15  17
HETATM   17  C   UNL     1       7.991  32.874  63.947  1.00  0.00     0.056 C 
HETATM   18  C   UNL     1       6.685  33.318  64.588  1.00  0.00     0.011 C 
ENDBRANCH  15  17
ENDBRANCH   8  11
ENDBRANCH   1   7
BRANCH   4  19
HETATM   19  C   UNL     1       7.353  26.402  54.262  1.00  0.00     0.251 C 
HETATM   20  N   UNL     1       6.633  25.242  54.433  1.00  0.00    -0.353 N 
HETATM   21  H   UNL     1       6.146  25.057  55.298  1.00  0.00     0.163 HD
HETATM   22  O   UNL     1       7.982  26.661  53.242  1.00  0.00    -0.268 OA
BRANCH  20  23
HETATM   23  C   UNL     1       6.606  24.218  53.413  1.00  0.00     0.161 C 
BRANCH  23  24
HETATM   24  C   UNL     1       7.279  22.950  53.882  1.00  0.00    -0.040 A 
HETATM   25  C   UNL     1       7.799  22.037  52.950  1.00  0.00     0.012 A 
HETATM   26  C   UNL     1       8.446  20.877  53.382  1.00  0.00     0.043 A 
HETATM   27  C   UNL     1       8.579  20.630  54.743  1.00  0.00     0.116 A 
HETATM   28  F   UNL     1       9.198  19.517  55.155  1.00  0.00    -0.206 F 
HETATM   29  C   UNL     1       8.085  21.526  55.683  1.00  0.00     0.043 A 
HETATM   30  C   UNL     1       7.444  22.689  55.254  1.00  0.00     0.012 A 
ENDBRANCH  23  24
ENDBRANCH  20  23
ENDBRANCH   4  19
TORSDOF 6
ENDMDL
MODEL 2
REMARK VINA RESULT:      -9.4      3.644     10.619
REMARK  6 active torsions:
REMARK  status: ('A' for Active; 'I' for Inactive)
REMARK    1  A    between atoms: C_2  and  C_3 
REMARK    2  A    between atoms: C_7  and  C_8 
REMARK       I    between atoms: C_8  and  N_9 
REMARK    3  A    between atoms: N_9  and  C_10 
REMARK    4  A    between atoms: C_13  and  C_14 
REMARK       I    between atoms: C_14  and  N_15 
REMARK    5  A    between atoms: N_15  and  C_16 
REMARK    6  A    between atoms: C_16  and  C_17 
ROOT
HETATM    1  C   UNL     1       8.403  28.250  56.828  1.00  0.00     0.035 A 
HETATM    2  C   UNL     1       9.615  28.938  56.740  1.00  0.00     0.030 A 
HETATM    3  C   UNL     1       9.909  29.986  57.623  1.00  0.00     0.019 A 
HETATM    4  C   UNL     1       8.990  30.354  58.610  1.00  0.00     0.032 A 
HETATM    5  C   UNL     1       7.760  29.694  58.677  1.00  0.00     0.019 A 
HETATM    6  C   UNL     1       7.470  28.649  57.794  1.00  0.00     0.030 A 
ENDROOT
BRANCH   1   7
HETATM    7  N   UNL     1       8.047  27.162  56.008  1.00  0.00    -0.322 N 
HETATM    8  C   UNL     1       7.225  27.167  54.896  1.00  0.00     0.274 C 
HETATM    9  O   UNL     1       6.635  28.147  54.456  1.00  0.00    -0.266 OA
HETATM   10  H   UNL     1       8.474  26.278  56.245  1.00  0.00     0.169 HD
BRANCH   8  11
HETATM   11  C   UNL     1       7.106  25.887  54.237  1.00  0.00     0.120 A 
HETATM   12  N   UNL     1       6.000  25.578  53.490  1.00  0.00    -0.273 N 
HETATM   13  N   UNL     1       6.037  24.358  52.932  1.00  0.00    -0.179 NA
HETATM   14  H   UNL     1       5.192  26.170  53.329  1.00  0.00     0.189 HD
HETATM   15  C   UNL     1       7.208  23.854  53.333  1.00  0.00     0.056 A 
HETATM   16  C   UNL     1       7.914  24.769  54.151  1.00  0.00     0.065 A 
BRANCH  15  17
HETATM   17  C   UNL     1       7.628  22.486  52.911  1.00  0.00     0.056 C 
HETATM   18  C   UNL     1       8.765  21.944  53.763  1.00  0.00     0.011 C 
ENDBRANCH  15  17
ENDBRANCH   8  11
ENDBRANCH   1   7
BRANCH   4  19
HETATM   19  C   UNL     1       9.271  31.416  59.614  1.00  0.00     0.251 C 
HETATM   20  N   UNL     1       9.232  31.034  60.936  1.00  0.00    -0.353 N 
HETATM   21  H   UNL     1       9.048  30.075  61.194  1.00  0.00     0.163 HD
HETATM   22  O   UNL     1       9.464  32.570  59.251  1.00  0.00    -0.268 OA
BRANCH  20  23
HETATM   23  C   UNL     1       9.380  32.002  62.001  1.00  0.00     0.161 C 
BRANCH  23  24
HETATM   24  C   UNL     1       8.062  32.286  62.681  1.00  0.00    -0.040 A 
HETATM   25  C   UNL     1       6.868  31.765  62.157  1.00  0.00     0.012 A 
HETATM   26  C   UNL     1       5.651  32.003  62.800  1.00  0.00     0.043 A 
HETATM   27  C   UNL     1       5.626  32.757  63.967  1.00  0.00     0.116 A 
HETATM   28  F   UNL     1       4.457  32.986  64.580  1.00  0.00    -0.206 F 
HETATM   29  C   UNL     1       6.796  33.271  64.511  1.00  0.00     0.043 A 
HETATM   30  C   UNL     1       8.014  33.028  63.875  1.00  0.00     0.012 A 
ENDBRANCH  23  24
ENDBRANCH  20  23
ENDBRANCH   4  19
TORSDOF 6
ENDMDL
MODEL 3
REMARK VINA RESULT:      -9.4      1.390      1.932
REMARK  6 active torsions:
REMARK  status: ('A' for Active; 'I' for Inactive)
REMARK    1  A    between atoms: C_2  and  C_3 
REMARK    2  A    between atoms: C_7  and  C_8 
REMARK       I    between atoms: C_8  and  N_9 
REMARK    3  A    between atoms: N_9  and  C_10 
REMARK    4  A    between atoms: C_13  and  C_14 
REMARK       I    between atoms: C_14  and  N_15 
REMARK    5  A    between atoms: N_15  and  C_16 
REMARK    6  A    between atoms: C_16  and  C_17 
ROOT
HETATM    1  C   UNL     1       7.370  30.208  58.243  1.00  0.00     0.035 A 
HETATM    2  C   UNL     1       6.319  30.248  57.324  1.00  0.00     0.030 A 
HETATM    3  C   UNL     1       6.402  29.547  56.112  1.00  0.00     0.019 A 
HETATM    4  C   UNL     1       7.540  28.794  55.810  1.00  0.00     0.032 A 
HETATM    5  C   UNL     1       8.609  28.782  56.710  1.00  0.00     0.019 A 
HETATM    6  C   UNL     1       8.524  29.482  57.918  1.00  0.00     0.030 A 
ENDROOT
BRANCH   1   7
HETATM    7  N   UNL     1       7.352  30.847  59.498  1.00  0.00    -0.322 N 
HETATM    8  C   UNL     1       8.116  31.920  59.917  1.00  0.00     0.274 C 
HETATM    9  O   UNL     1       8.979  32.479  59.249  1.00  0.00    -0.266 OA
HETATM   10  H   UNL     1       6.671  30.498  60.156  1.00  0.00     0.169 HD
BRANCH   8  11
HETATM   11  C   UNL     1       7.815  32.381  61.252  1.00  0.00     0.120 A 
HETATM   12  N   UNL     1       8.570  31.984  62.323  1.00  0.00    -0.273 N 
HETATM   13  N   UNL     1       8.175  32.501  63.498  1.00  0.00    -0.179 NA
HETATM   14  H   UNL     1       9.370  31.360  62.304  1.00  0.00     0.189 HD
HETATM   15  C   UNL     1       7.122  33.260  63.178  1.00  0.00     0.056 A 
HETATM   16  C   UNL     1       6.855  33.219  61.789  1.00  0.00     0.065 A 
BRANCH  15  17
HETATM   17  C   UNL     1       6.389  34.020  64.232  1.00  0.00     0.056 C 
HETATM   18  C   UNL     1       6.930  33.739  65.627  1.00  0.00     0.011 C 
ENDBRANCH  15  17
ENDBRANCH   8  11
ENDBRANCH   1   7
BRANCH   4  19
HETATM   19  C   UNL     1       7.659  27.981  54.569  1.00  0.00     0.251 C 
HETATM   20  N   UNL     1       6.938  26.809  54.533  1.00  0.00    -0.353 N 
HETATM   21  H   UNL     1       6.342  26.543  55.303  1.00  0.00     0.163 HD
HETATM   22  O   UNL     1       8.415  28.335  53.673  1.00  0.00    -0.268 OA
BRANCH  20  23
HETATM   23  C   UNL     1       7.061  25.886  53.426  1.00  0.00     0.161 C 
BRANCH  23  24
HETATM   24  C   UNL     1       7.568  24.539  53.881  1.00  0.00    -0.040 A 
HETATM   25  C   UNL     1       7.852  24.309  55.236  1.00  0.00     0.012 A 
HETATM   26  C   UNL     1       8.295  23.056  55.664  1.00  0.00     0.043 A 
HETATM   27  C   UNL     1       8.451  22.030  54.739  1.00  0.00     0.116 A 
HETATM   28  F   UNL     1       8.877  20.829  55.151  1.00  0.00    -0.206 F 
HETATM   29  C   UNL     1       8.162  22.229  53.395  1.00  0.00     0.043 A 
HETATM   30  C   UNL     1       7.712  23.479  52.967  1.00  0.00     0.012 A 
ENDBRANCH  23  24
ENDBRANCH  20  23
ENDBRANCH   4  19
TORSDOF 6
ENDMDL
MODEL 4
REMARK VINA RESULT:      -9.1      3.666     10.795
REMARK  6 active torsions:
REMARK  status: ('A' for Active; 'I' for Inactive)
REMARK    1  A    between atoms: C_2  and  C_3 
REMARK    2  A    between atoms: C_7  and  C_8 
REMARK       I    between atoms: C_8  and  N_9 
REMARK    3  A    between atoms: N_9  and  C_10 
REMARK    4  A    between atoms: C_13  and  C_14 
REMARK       I    between atoms: C_14  and  N_15 
REMARK    5  A    between atoms: N_15  and  C_16 
REMARK    6  A    between atoms: C_16  and  C_17 
ROOT
HETATM    1  C   UNL     1       7.327  27.404  56.851  1.00  0.00     0.035 A 
HETATM    2  C   UNL     1       6.100  28.051  57.017  1.00  0.00     0.030 A 
HETATM    3  C   UNL     1       6.028  29.292  57.665  1.00  0.00     0.019 A 
HETATM    4  C   UNL     1       7.188  29.902  58.151  1.00  0.00     0.032 A 
HETATM    5  C   UNL     1       8.413  29.240  58.021  1.00  0.00     0.019 A 
HETATM    6  C   UNL     1       8.481  28.002  57.374  1.00  0.00     0.030 A 
ENDROOT
BRANCH   1   7
HETATM    7  N   UNL     1       7.492  26.178  56.178  1.00  0.00    -0.322 N 
HETATM    8  C   UNL     1       7.482  25.948  54.815  1.00  0.00     0.274 C 
HETATM    9  O   UNL     1       7.290  26.799  53.954  1.00  0.00    -0.266 OA
HETATM   10  H   UNL     1       7.675  25.378  56.766  1.00  0.00     0.169 HD
BRANCH   8  11
HETATM   11  C   UNL     1       7.740  24.577  54.440  1.00  0.00     0.120 A 
HETATM   12  N   UNL     1       8.582  23.790  55.180  1.00  0.00    -0.273 N 
HETATM   13  N   UNL     1       8.716  22.537  54.714  1.00  0.00    -0.179 NA
HETATM   14  H   UNL     1       9.089  24.061  56.017  1.00  0.00     0.189 HD
HETATM   15  C   UNL     1       7.935  22.511  53.630  1.00  0.00     0.056 A 
HETATM   16  C   UNL     1       7.305  23.760  53.414  1.00  0.00     0.065 A 
BRANCH  15  17
HETATM   17  C   UNL     1       7.811  21.267  52.817  1.00  0.00     0.056 C 
HETATM   18  C   UNL     1       8.778  20.183  53.270  1.00  0.00     0.011 C 
ENDBRANCH  15  17
ENDBRANCH   8  11
ENDBRANCH   1   7
BRANCH   4  19
HETATM   19  C   UNL     1       7.183  31.245  58.791  1.00  0.00     0.251 C 
HETATM   20  N   UNL     1       6.065  31.569  59.525  1.00  0.00    -0.353 N 
HETATM   21  H   UNL     1       5.309  30.910  59.637  1.00  0.00     0.163 HD
HETATM   22  O   UNL     1       8.115  32.019  58.605  1.00  0.00    -0.268 OA
BRANCH  20  23
HETATM   23  C   UNL     1       5.901  32.886  60.101  1.00  0.00     0.161 C 
BRANCH  23  24
HETATM   24  C   UNL     1       6.277  32.902  61.563  1.00  0.00    -0.040 A 
HETATM   25  C   UNL     1       7.598  32.640  61.959  1.00  0.00     0.012 A 
HETATM   26  C   UNL     1       7.955  32.681  63.308  1.00  0.00     0.043 A 
HETATM   27  C   UNL     1       6.994  32.990  64.263  1.00  0.00     0.116 A 
HETATM   28  F   UNL     1       7.338  33.028  65.557  1.00  0.00    -0.206 F 
HETATM   29  C   UNL     1       5.684  33.268  63.895  1.00  0.00     0.043 A 
HETATM   30  C   UNL     1       5.327  33.233  62.547  1.00  0.00     0.012 A 
ENDBRANCH  23  24
ENDBRANCH  20  23
ENDBRANCH   4  19
TORSDOF 6
ENDMDL
MODEL 5
REMARK VINA RESULT:      -8.9      3.455      6.021
REMARK  6 active torsions:
REMARK  status: ('A' for Active; 'I' for Inactive)
REMARK    1  A    between atoms: C_2  and  C_3 
REMARK    2  A    between atoms: C_7  and  C_8 
REMARK       I    between atoms: C_8  and  N_9 
REMARK    3  A    between atoms: N_9  and  C_10 
REMARK    4  A    between atoms: C_13  and  C_14 
REMARK       I    between atoms: C_14  and  N_15 
REMARK    5  A    between atoms: N_15  and  C_16 
REMARK    6  A    between atoms: C_16  and  C_17 
ROOT
HETATM    1  C   UNL     1       7.489  32.808  61.997  1.00  0.00     0.035 A 
HETATM    2  C   UNL     1       6.779  32.714  60.798  1.00  0.00     0.030 A 
HETATM    3  C   UNL     1       7.391  32.208  59.642  1.00  0.00     0.019 A 
HETATM    4  C   UNL     1       8.723  31.785  59.679  1.00  0.00     0.032 A 
HETATM    5  C   UNL     1       9.448  31.913  60.867  1.00  0.00     0.019 A 
HETATM    6  C   UNL     1       8.834  32.418  62.017  1.00  0.00     0.030 A 
ENDROOT
BRANCH   1   7
HETATM    7  N   UNL     1       6.939  33.266  63.211  1.00  0.00    -0.322 N 
HETATM    8  C   UNL     1       5.859  32.751  63.903  1.00  0.00     0.274 C 
HETATM    9  O   UNL     1       5.170  31.804  63.539  1.00  0.00    -0.266 OA
HETATM   10  H   UNL     1       7.418  34.044  63.641  1.00  0.00     0.169 HD
BRANCH   8  11
HETATM   11  C   UNL     1       5.581  33.417  65.154  1.00  0.00     0.120 A 
HETATM   12  N   UNL     1       4.293  33.636  65.566  1.00  0.00    -0.273 N 
HETATM   13  N   UNL     1       4.193  34.257  66.752  1.00  0.00    -0.179 NA
HETATM   14  H   UNL     1       3.445  33.378  65.072  1.00  0.00     0.189 HD
HETATM   15  C   UNL     1       5.462  34.450  67.124  1.00  0.00     0.056 A 
HETATM   16  C   UNL     1       6.368  33.946  66.160  1.00  0.00     0.065 A 
BRANCH  15  17
HETATM   17  C   UNL     1       5.778  35.125  68.416  1.00  0.00     0.056 C 
HETATM   18  C   UNL     1       7.177  34.793  68.913  1.00  0.00     0.011 C 
ENDBRANCH  15  17
ENDBRANCH   8  11
ENDBRANCH   1   7
BRANCH   4  19
HETATM   19  C   UNL     1       9.407  31.182  58.502  1.00  0.00     0.251 C 
HETATM   20  N   UNL     1       8.730  30.177  57.849  1.00  0.00    -0.353 N 
HETATM   21  H   UNL     1       7.808  29.894  58.147  1.00  0.00     0.163 HD
HETATM   22  O   UNL     1      10.536  31.544  58.196  1.00  0.00    -0.268 OA
BRANCH  20  23
HETATM   23  C   UNL     1       9.342  29.444  56.762  1.00  0.00     0.161 C 
BRANCH  23  24
HETATM   24  C   UNL     1       8.499  28.262  56.347  1.00  0.00    -0.040 A 
HETATM   25  C   UNL     1       8.269  27.206  57.242  1.00  0.00     0.012 A 
HETATM   26  C   UNL     1       7.468  26.125  56.870  1.00  0.00     0.043 A 
HETATM   27  C   UNL     1       6.891  26.099  55.606  1.00  0.00     0.116 A 
HETATM   28  F   UNL     1       6.124  25.060  55.251  1.00  0.00    -0.206 F 
HETATM   29  C   UNL     1       7.092  27.140  54.708  1.00  0.00     0.043 A 
HETATM   30  C   UNL     1       7.887  28.224  55.080  1.00  0.00     0.012 A 
ENDBRANCH  23  24
ENDBRANCH  20  23
ENDBRANCH   4  19
TORSDOF 6
ENDMDL
MODEL 6
REMARK VINA RESULT:      -8.4      2.511      2.759
REMARK  6 active torsions:
REMARK  status: ('A' for Active; 'I' for Inactive)
REMARK    1  A    between atoms: C_2  and  C_3 
REMARK    2  A    between atoms: C_7  and  C_8 
REMARK       I    between atoms: C_8  and  N_9 
REMARK    3  A    between atoms: N_9  and  C_10 
REMARK    4  A    between atoms: C_13  and  C_14 
REMARK       I    between atoms: C_14  and  N_15 
REMARK    5  A    between atoms: N_15  and  C_16 
REMARK    6  A    between atoms: C_16  and  C_17 
ROOT
HETATM    1  C   UNL     1       4.778  29.971  57.505  1.00  0.00     0.035 A 
HETATM    2  C   UNL     1       3.885  29.985  56.431  1.00  0.00     0.030 A 
HETATM    3  C   UNL     1       4.084  29.149  55.324  1.00  0.00     0.019 A 
HETATM    4  C   UNL     1       5.181  28.284  55.284  1.00  0.00     0.032 A 
HETATM    5  C   UNL     1       6.098  28.294  56.339  1.00  0.00     0.019 A 
HETATM    6  C   UNL     1       5.896  29.130  57.441  1.00  0.00     0.030 A 
ENDROOT
BRANCH   1   7
HETATM    7  N   UNL     1       4.629  30.748  58.671  1.00  0.00    -0.322 N 
HETATM    8  C   UNL     1       5.241  31.949  58.976  1.00  0.00     0.274 C 
HETATM    9  O   UNL     1       6.059  32.527  58.270  1.00  0.00    -0.266 OA
HETATM   10  H   UNL     1       3.967  30.397  59.348  1.00  0.00     0.169 HD
BRANCH   8  11
HETATM   11  C   UNL     1       4.830  32.524  60.236  1.00  0.00     0.120 A 
HETATM   12  N   UNL     1       4.176  31.771  61.176  1.00  0.00    -0.273 N 
HETATM   13  N   UNL     1       3.866  32.440  62.298  1.00  0.00    -0.179 NA
HETATM   14  H   UNL     1       3.921  30.792  61.099  1.00  0.00     0.189 HD
HETATM   15  C   UNL     1       4.332  33.673  62.078  1.00  0.00     0.056 A 
HETATM   16  C   UNL     1       4.941  33.779  60.805  1.00  0.00     0.065 A 
BRANCH  15  17
HETATM   17  C   UNL     1       4.179  34.735  63.115  1.00  0.00     0.056 C 
HETATM   18  C   UNL     1       5.516  35.171  63.695  1.00  0.00     0.011 C 
ENDBRANCH  15  17
ENDBRANCH   8  11
ENDBRANCH   1   7
BRANCH   4  19
HETATM   19  C   UNL     1       5.412  27.329  54.165  1.00  0.00     0.251 C 
HETATM   20  N   UNL     1       5.084  26.014  54.404  1.00  0.00    -0.353 N 
HETATM   21  H   UNL     1       4.684  25.732  55.287  1.00  0.00     0.163 HD
HETATM   22  O   UNL     1       5.923  27.717  53.121  1.00  0.00    -0.268 OA
BRANCH  20  23
HETATM   23  C   UNL     1       5.366  24.982  53.432  1.00  0.00     0.161 C 
BRANCH  23  24
HETATM   24  C   UNL     1       6.533  24.124  53.856  1.00  0.00    -0.040 A 
HETATM   25  C   UNL     1       7.276  23.413  52.899  1.00  0.00     0.012 A 
HETATM   26  C   UNL     1       8.373  22.641  53.286  1.00  0.00     0.043 A 
HETATM   27  C   UNL     1       8.733  22.581  54.627  1.00  0.00     0.116 A 
HETATM   28  F   UNL     1       9.785  21.839  54.995  1.00  0.00    -0.206 F 
HETATM   29  C   UNL     1       8.023  23.287  55.589  1.00  0.00     0.043 A 
HETATM   30  C   UNL     1       6.930  24.064  55.204  1.00  0.00     0.012 A 
ENDBRANCH  23  24
ENDBRANCH  20  23
ENDBRANCH   4  19
TORSDOF 6
ENDMDL
MODEL 7
REMARK VINA RESULT:      -8.3      1.955      2.381
REMARK  6 active torsions:
REMARK  status: ('A' for Active; 'I' for Inactive)
REMARK    1  A    between atoms: C_2  and  C_3 
REMARK    2  A    between atoms: C_7  and  C_8 
REMARK       I    between atoms: C_8  and  N_9 
REMARK    3  A    between atoms: N_9  and  C_10 
REMARK    4  A    between atoms: C_13  and  C_14 
REMARK       I    between atoms: C_14  and  N_15 
REMARK    5  A    between atoms: N_15  and  C_16 
REMARK    6  A    between atoms: C_16  and  C_17 
ROOT
HETATM    1  C   UNL     1       6.549  30.723  58.083  1.00  0.00     0.035 A 
HETATM    2  C   UNL     1       5.717  31.088  57.022  1.00  0.00     0.030 A 
HETATM    3  C   UNL     1       5.627  30.286  55.875  1.00  0.00     0.019 A 
HETATM    4  C   UNL     1       6.368  29.105  55.783  1.00  0.00     0.032 A 
HETATM    5  C   UNL     1       7.231  28.756  56.826  1.00  0.00     0.019 A 
HETATM    6  C   UNL     1       7.318  29.558  57.968  1.00  0.00     0.030 A 
ENDROOT
BRANCH   1   7
HETATM    7  N   UNL     1       6.666  31.449  59.285  1.00  0.00    -0.322 N 
HETATM    8  C   UNL     1       5.655  32.009  60.042  1.00  0.00     0.274 C 
HETATM    9  O   UNL     1       4.462  31.987  59.760  1.00  0.00    -0.266 OA
HETATM   10  H   UNL     1       7.603  31.538  59.651  1.00  0.00     0.169 HD
BRANCH   8  11
HETATM   11  C   UNL     1       6.104  32.643  61.260  1.00  0.00     0.120 A 
HETATM   12  N   UNL     1       5.770  33.941  61.545  1.00  0.00    -0.273 N 
HETATM   13  N   UNL     1       6.252  34.389  62.715  1.00  0.00    -0.179 NA
HETATM   14  H   UNL     1       5.210  34.564  60.971  1.00  0.00     0.189 HD
HETATM   15  C   UNL     1       6.926  33.346  63.207  1.00  0.00     0.056 A 
HETATM   16  C   UNL     1       6.866  32.231  62.337  1.00  0.00     0.065 A 
BRANCH  15  17
HETATM   17  C   UNL     1       7.621  33.447  64.524  1.00  0.00     0.056 C 
HETATM   18  C   UNL     1       6.677  33.859  65.644  1.00  0.00     0.011 C 
ENDBRANCH  15  17
ENDBRANCH   8  11
ENDBRANCH   1   7
BRANCH   4  19
HETATM   19  C   UNL     1       6.267  28.182  54.619  1.00  0.00     0.251 C 
HETATM   20  N   UNL     1       7.363  27.387  54.371  1.00  0.00    -0.353 N 
HETATM   21  H   UNL     1       8.174  27.419  54.971  1.00  0.00     0.163 HD
HETATM   22  O   UNL     1       5.271  28.198  53.906  1.00  0.00    -0.268 OA
BRANCH  20  23
HETATM   23  C   UNL     1       7.422  26.533  53.205  1.00  0.00     0.161 C 
BRANCH  23  24
HETATM   24  C   UNL     1       7.471  25.073  53.590  1.00  0.00    -0.040 A 
HETATM   25  C   UNL     1       7.883  24.108  52.657  1.00  0.00     0.012 A 
HETATM   26  C   UNL     1       7.955  22.761  53.019  1.00  0.00     0.043 A 
HETATM   27  C   UNL     1       7.621  22.378  54.312  1.00  0.00     0.116 A 
HETATM   28  F   UNL     1       7.690  21.085  54.656  1.00  0.00    -0.206 F 
HETATM   29  C   UNL     1       7.225  23.316  55.256  1.00  0.00     0.043 A 
HETATM   30  C   UNL     1       7.159  24.663  54.899  1.00  0.00     0.012 A 
ENDBRANCH  23  24
ENDBRANCH  20  23
ENDBRANCH   4  19
TORSDOF 6
ENDMDL
MODEL 8
REMARK VINA RESULT:      -8.3      4.017     10.674
REMARK  6 active torsions:
REMARK  status: ('A' for Active; 'I' for Inactive)
REMARK    1  A    between atoms: C_2  and  C_3 
REMARK    2  A    between atoms: C_7  and  C_8 
REMARK       I    between atoms: C_8  and  N_9 
REMARK    3  A    between atoms: N_9  and  C_10 
REMARK    4  A    between atoms: C_13  and  C_14 
REMARK       I    between atoms: C_14  and  N_15 
REMARK    5  A    between atoms: N_15  and  C_16 
REMARK    6  A    between atoms: C_16  and  C_17 
ROOT
HETATM    1  C   UNL     1       5.817  27.760  56.013  1.00  0.00     0.035 A 
HETATM    2  C   UNL     1       4.492  28.183  55.887  1.00  0.00     0.030 A 
HETATM    3  C   UNL     1       4.036  29.319  56.571  1.00  0.00     0.019 A 
HETATM    4  C   UNL     1       4.908  30.047  57.387  1.00  0.00     0.032 A 
HETATM    5  C   UNL     1       6.224  29.604  57.545  1.00  0.00     0.019 A 
HETATM    6  C   UNL     1       6.675  28.471  56.861  1.00  0.00     0.030 A 
ENDROOT
BRANCH   1   7
HETATM    7  N   UNL     1       6.365  26.656  55.330  1.00  0.00    -0.322 N 
HETATM    8  C   UNL     1       6.458  25.348  55.765  1.00  0.00     0.274 C 
HETATM    9  O   UNL     1       6.093  24.938  56.861  1.00  0.00    -0.266 OA
HETATM   10  H   UNL     1       6.698  26.842  54.395  1.00  0.00     0.169 HD
BRANCH   8  11
HETATM   11  C   UNL     1       7.024  24.437  54.798  1.00  0.00     0.120 A 
HETATM   12  N   UNL     1       7.636  24.902  53.664  1.00  0.00    -0.273 N 
HETATM   13  N   UNL     1       8.122  23.938  52.865  1.00  0.00    -0.179 NA
HETATM   14  H   UNL     1       7.751  25.873  53.391  1.00  0.00     0.189 HD
HETATM   15  C   UNL     1       7.812  22.805  53.502  1.00  0.00     0.056 A 
HETATM   16  C   UNL     1       7.125  23.060  54.713  1.00  0.00     0.065 A 
BRANCH  15  17
HETATM   17  C   UNL     1       8.191  21.483  52.923  1.00  0.00     0.056 C 
HETATM   18  C   UNL     1       8.280  20.394  53.981  1.00  0.00     0.011 C 
ENDBRANCH  15  17
ENDBRANCH   8  11
ENDBRANCH   1   7
BRANCH   4  19
HETATM   19  C   UNL     1       4.499  31.294  58.088  1.00  0.00     0.251 C 
HETATM   20  N   UNL     1       5.466  31.919  58.841  1.00  0.00    -0.353 N 
HETATM   21  H   UNL     1       6.407  31.554  58.883  1.00  0.00     0.163 HD
HETATM   22  O   UNL     1       3.338  31.683  58.025  1.00  0.00    -0.268 OA
BRANCH  20  23
HETATM   23  C   UNL     1       5.156  33.075  59.652  1.00  0.00     0.161 C 
BRANCH  23  24
HETATM   24  C   UNL     1       5.950  33.082  60.936  1.00  0.00    -0.040 A 
HETATM   25  C   UNL     1       5.667  34.021  61.941  1.00  0.00     0.012 A 
HETATM   26  C   UNL     1       6.382  34.011  63.140  1.00  0.00     0.043 A 
HETATM   27  C   UNL     1       7.377  33.061  63.340  1.00  0.00     0.116 A 
HETATM   28  F   UNL     1       8.062  33.054  64.491  1.00  0.00    -0.206 F 
HETATM   29  C   UNL     1       7.665  32.112  62.367  1.00  0.00     0.043 A 
HETATM   30  C   UNL     1       6.947  32.116  61.170  1.00  0.00     0.012 A 
ENDBRANCH  23  24
ENDBRANCH  20  23
ENDBRANCH   4  19
TORSDOF 6
ENDMDL
MODEL 9
REMARK VINA RESULT:      -8.2      6.509     10.779
REMARK  6 active torsions:
REMARK  status: ('A' for Active; 'I' for Inactive)
REMARK    1  A    between atoms: C_2  and  C_3 
REMARK    2  A    between atoms: C_7  and  C_8 
REMARK       I    between atoms: C_8  and  N_9 
REMARK    3  A    between atoms: N_9  and  C_10 
REMARK    4  A    between atoms: C_13  and  C_14 
REMARK       I    between atoms: C_14  and  N_15 
REMARK    5  A    between atoms: N_15  and  C_16 
REMARK    6  A    between atoms: C_16  and  C_17 
ROOT
HETATM    1  C   UNL     1       3.781  27.354  49.849  1.00  0.00     0.035 A 
HETATM    2  C   UNL     1       4.517  26.167  49.834  1.00  0.00     0.030 A 
HETATM    3  C   UNL     1       5.490  25.916  50.813  1.00  0.00     0.019 A 
HETATM    4  C   UNL     1       5.732  26.854  51.820  1.00  0.00     0.032 A 
HETATM    5  C   UNL     1       5.025  28.060  51.816  1.00  0.00     0.019 A 
HETATM    6  C   UNL     1       4.056  28.306  50.839  1.00  0.00     0.030 A 
ENDROOT
BRANCH   1   7
HETATM    7  N   UNL     1       2.760  27.665  48.930  1.00  0.00    -0.322 N 
HETATM    8  C   UNL     1       2.730  27.408  47.572  1.00  0.00     0.274 C 
HETATM    9  O   UNL     1       3.631  26.878  46.931  1.00  0.00    -0.266 OA
HETATM   10  H   UNL     1       1.937  28.099  49.322  1.00  0.00     0.169 HD
BRANCH   8  11
HETATM   11  C   UNL     1       1.505  27.804  46.917  1.00  0.00     0.120 A 
HETATM   12  N   UNL     1       0.829  26.937  46.100  1.00  0.00    -0.273 N 
HETATM   13  N   UNL     1      -0.296  27.443  45.570  1.00  0.00    -0.179 NA
HETATM   14  H   UNL     1       1.095  25.984  45.873  1.00  0.00     0.189 HD
HETATM   15  C   UNL     1      -0.352  28.686  46.060  1.00  0.00     0.056 A 
HETATM   16  C   UNL     1       0.749  28.961  46.905  1.00  0.00     0.065 A 
BRANCH  15  17
HETATM   17  C   UNL     1      -1.482  29.591  45.698  1.00  0.00     0.056 C 
HETATM   18  C   UNL     1      -1.462  30.885  46.497  1.00  0.00     0.011 C 
ENDBRANCH  15  17
ENDBRANCH   8  11
ENDBRANCH   1   7
BRANCH   4  19
HETATM   19  C   UNL     1       6.707  26.618  52.920  1.00  0.00     0.251 C 
HETATM   20  N   UNL     1       6.870  25.312  53.325  1.00  0.00    -0.353 N 
HETATM   21  H   UNL     1       6.368  24.562  52.872  1.00  0.00     0.163 HD
HETATM   22  O   UNL     1       7.273  27.564  53.454  1.00  0.00    -0.268 OA
BRANCH  20  23
HETATM   23  C   UNL     1       7.707  24.976  54.456  1.00  0.00     0.161 C 
BRANCH  23  24
HETATM   24  C   UNL     1       8.065  23.509  54.463  1.00  0.00    -0.040 A 
HETATM   25  C   UNL     1       7.917  22.737  53.300  1.00  0.00     0.012 A 
HETATM   26  C   UNL     1       8.274  21.387  53.297  1.00  0.00     0.043 A 
HETATM   27  C   UNL     1       8.783  20.808  54.453  1.00  0.00     0.116 A 
HETATM   28  F   UNL     1       9.123  19.512  54.448  1.00  0.00    -0.206 F 
HETATM   29  C   UNL     1       8.952  21.555  55.612  1.00  0.00     0.043 A 
HETATM   30  C   UNL     1       8.603  22.906  55.615  1.00  0.00     0.012 A 
ENDBRANCH  23  24
ENDBRANCH  20  23
ENDBRANCH   4  19
TORSDOF 6
ENDMDL
MODEL 10
REMARK VINA RESULT:      -8.2      4.637     10.685
REMARK  6 active torsions:
REMARK  status: ('A' for Active; 'I' for Inactive)
REMARK    1  A    between atoms: C_2  and  C_3 
REMARK    2  A    between atoms: C_7  and  C_8 
REMARK       I    between atoms: C_8  and  N_9 
REMARK    3  A    between atoms: N_9  and  C_10 
REMARK    4  A    between atoms: C_13  and  C_14 
REMARK       I    between atoms: C_14  and  N_15 
REMARK    5  A    between atoms: N_15  and  C_16 
REMARK    6  A    between atoms: C_16  and  C_17 
ROOT
HETATM    1  C   UNL     1       8.056  27.856  57.007  1.00  0.00     0.035 A 
HETATM    2  C   UNL     1       9.199  28.597  57.316  1.00  0.00     0.030 A 
HETATM    3  C   UNL     1       9.098  29.813  58.006  1.00  0.00     0.019 A 
HETATM    4  C   UNL     1       7.847  30.298  58.398  1.00  0.00     0.032 A 
HETATM    5  C   UNL     1       6.698  29.579  58.058  1.00  0.00     0.019 A 
HETATM    6  C   UNL     1       6.803  28.366  57.369  1.00  0.00     0.030 A 
ENDROOT
BRANCH   1   7
HETATM    7  N   UNL     1       8.072  26.608  56.354  1.00  0.00    -0.322 N 
HETATM    8  C   UNL     1       8.253  25.357  56.915  1.00  0.00     0.274 C 
HETATM    9  O   UNL     1       8.466  25.137  58.102  1.00  0.00    -0.266 OA
HETATM   10  H   UNL     1       7.895  26.632  55.360  1.00  0.00     0.169 HD
BRANCH   8  11
HETATM   11  C   UNL     1       8.157  24.264  55.975  1.00  0.00     0.120 A 
HETATM   12  N   UNL     1       8.246  22.963  56.395  1.00  0.00    -0.273 N 
HETATM   13  N   UNL     1       8.130  22.058  55.410  1.00  0.00    -0.179 NA
HETATM   14  H   UNL     1       8.383  22.640  57.348  1.00  0.00     0.189 HD
HETATM   15  C   UNL     1       7.962  22.798  54.310  1.00  0.00     0.056 A 
HETATM   16  C   UNL     1       7.973  24.181  54.608  1.00  0.00     0.065 A 
BRANCH  15  17
HETATM   17  C   UNL     1       7.792  22.146  52.979  1.00  0.00     0.056 C 
HETATM   18  C   UNL     1       8.113  20.659  53.019  1.00  0.00     0.011 C 
ENDBRANCH  15  17
ENDBRANCH   8  11
ENDBRANCH   1   7
BRANCH   4  19
HETATM   19  C   UNL     1       7.682  31.550  59.186  1.00  0.00     0.251 C 
HETATM   20  N   UNL     1       6.540  31.648  59.948  1.00  0.00    -0.353 N 
HETATM   21  H   UNL     1       5.872  30.891  59.982  1.00  0.00     0.163 HD
HETATM   22  O   UNL     1       8.508  32.450  59.091  1.00  0.00    -0.268 OA
BRANCH  20  23
HETATM   23  C   UNL     1       6.219  32.861  60.668  1.00  0.00     0.161 C 
BRANCH  23  24
HETATM   24  C   UNL     1       5.001  33.542  60.092  1.00  0.00    -0.040 A 
HETATM   25  C   UNL     1       4.632  33.325  58.756  1.00  0.00     0.012 A 
HETATM   26  C   UNL     1       3.490  33.932  58.229  1.00  0.00     0.043 A 
HETATM   27  C   UNL     1       2.713  34.753  59.038  1.00  0.00     0.116 A 
HETATM   28  F   UNL     1       1.619  35.335  58.530  1.00  0.00    -0.206 F 
HETATM   29  C   UNL     1       3.050  34.972  60.368  1.00  0.00     0.043 A 
HETATM   30  C   UNL     1       4.187  34.361  60.897  1.00  0.00     0.012 A 
ENDBRANCH  23  24
ENDBRANCH  20  23
ENDBRANCH   4  19
TORSDOF 6
ENDMDL
