MODEL 1
REMARK VINA RESULT:     -10.4      0.000      0.000
REMARK  4 active torsions:
REMARK  status: ('A' for Active; 'I' for Inactive)
REMARK    1  A    between atoms: N_4  and  C_5 
REMARK    2  A    between atoms: C_14  and  C_15 
REMARK       I    between atoms: C_15  and  N_16 
REMARK    3  A    between atoms: N_16  and  N_17 
REMARK       I    between atoms: N_17  and  C_18 
REMARK       I    between atoms: C_18  and  N_19 
REMARK    4  A    between atoms: N_19  and  C_20 
ROOT
HETATM    1  C   UNL     1       7.580  28.778  55.672  1.00  0.00     0.277 C 
HETATM    2  N   UNL     1       8.835  28.934  56.226  1.00  0.00    -0.261 N 
HETATM    3  O   UNL     1       6.753  29.688  55.702  1.00  0.00    -0.265 OA
HETATM    4  H   UNL     1       9.495  28.158  56.299  1.00  0.00     0.190 HD
ENDROOT
BRANCH   1   5
HETATM    5  C   UNL     1       7.327  27.479  55.063  1.00  0.00     0.077 A 
HETATM    6  S   UNL     1       8.009  26.017  55.739  1.00  0.00    -0.064 SA
HETATM    7  C   UNL     1       7.259  25.094  54.574  1.00  0.00     0.113 A 
HETATM    8  N   UNL     1       7.117  23.781  54.198  1.00  0.00    -0.226 N 
HETATM    9  C   UNL     1       6.548  25.833  53.717  1.00  0.00     0.027 A 
HETATM   10  N   UNL     1       6.323  23.717  53.063  1.00  0.00    -0.171 NA
HETATM   11  C   UNL     1       5.979  24.989  52.782  1.00  0.00     0.064 A 
HETATM   12  C   UNL     1       5.125  25.306  51.617  1.00  0.00     0.073 C 
HETATM   13  C   UNL     1       6.536  27.206  53.946  1.00  0.00     0.041 A 
BRANCH   8  14
HETATM   14  C   UNL     1       7.624  22.583  54.783  1.00  0.00     0.059 A 
HETATM   15  C   UNL     1       7.854  21.469  53.959  1.00  0.00     0.031 A 
HETATM   16  C   UNL     1       8.336  20.272  54.497  1.00  0.00     0.002 A 
HETATM   17  C   UNL     1       8.593  20.174  55.861  1.00  0.00     0.000 A 
HETATM   18  C   UNL     1       8.371  21.274  56.687  1.00  0.00     0.002 A 
HETATM   19  C   UNL     1       7.888  22.474  56.154  1.00  0.00     0.031 A 
ENDBRANCH   8  14
ENDBRANCH   1   5
BRANCH   2  20
HETATM   20  N   UNL     1       9.137  30.075  56.987  1.00  0.00    -0.249 N 
HETATM   21  C   UNL     1       8.656  30.072  58.290  1.00  0.00     0.339 C 
HETATM   22  N   UNL     1       8.893  31.266  58.931  1.00  0.00    -0.308 N 
HETATM   23  O   UNL     1       8.121  29.071  58.757  1.00  0.00    -0.245 OA
HETATM   24  H   UNL     1       9.393  31.962  58.399  1.00  0.00     0.170 HD
HETATM   25  H   UNL     1       9.186  30.941  56.457  1.00  0.00     0.192 HD
BRANCH  22  26
HETATM   26  C   UNL     1       8.582  31.595  60.267  1.00  0.00     0.036 A 
HETATM   27  C   UNL     1       9.138  30.955  61.378  1.00  0.00     0.031 A 
HETATM   28  C   UNL     1       8.791  31.350  62.676  1.00  0.00     0.026 A 
HETATM   29  C   UNL     1       7.884  32.386  62.867  1.00  0.00     0.034 A 
HETATM   30 CL   UNL     1       7.463  32.873  64.461  1.00  0.00    -0.084 Cl
HETATM   31  C   UNL     1       7.317  33.030  61.771  1.00  0.00     0.026 A 
HETATM   32  C   UNL     1       7.666  32.635  60.475  1.00  0.00     0.031 A 
ENDBRANCH  22  26
ENDBRANCH   2  20
TORSDOF 4
ENDMDL
MODEL 2
REMARK VINA RESULT:     -10.1      2.524      3.931
REMARK  4 active torsions:
REMARK  status: ('A' for Active; 'I' for Inactive)
REMARK    1  A    between atoms: N_4  and  C_5 
REMARK    2  A    between atoms: C_14  and  C_15 
REMARK       I    between atoms: C_15  and  N_16 
REMARK    3  A    between atoms: N_16  and  N_17 
REMARK       I    between atoms: N_17  and  C_18 
REMARK       I    between atoms: C_18  and  N_19 
REMARK    4  A    between atoms: N_19  and  C_20 
ROOT
HETATM    1  C   UNL     1       8.438  30.072  58.592  1.00  0.00     0.277 C 
HETATM    2  N   UNL     1       7.595  30.458  59.614  1.00  0.00    -0.261 N 
HETATM    3  O   UNL     1       9.646  30.302  58.640  1.00  0.00    -0.265 OA
HETATM    4  H   UNL     1       6.581  30.365  59.544  1.00  0.00     0.190 HD
ENDROOT
BRANCH   1   5
HETATM    5  C   UNL     1       7.793  29.385  57.481  1.00  0.00     0.077 A 
HETATM    6  S   UNL     1       8.368  27.830  56.924  1.00  0.00    -0.064 SA
HETATM    7  C   UNL     1       7.163  27.761  55.778  1.00  0.00     0.113 A 
HETATM    8  N   UNL     1       6.687  26.929  54.796  1.00  0.00    -0.226 N 
HETATM    9  C   UNL     1       6.379  28.844  55.797  1.00  0.00     0.027 A 
HETATM   10  N   UNL     1       5.602  27.530  54.177  1.00  0.00    -0.171 NA
HETATM   11  C   UNL     1       5.424  28.707  54.807  1.00  0.00     0.064 A 
HETATM   12  C   UNL     1       4.341  29.630  54.403  1.00  0.00     0.073 C 
HETATM   13  C   UNL     1       6.678  29.808  56.755  1.00  0.00     0.041 A 
BRANCH   8  14
HETATM   14  C   UNL     1       7.119  25.634  54.381  1.00  0.00     0.059 A 
HETATM   15  C   UNL     1       7.589  25.463  53.068  1.00  0.00     0.031 A 
HETATM   16  C   UNL     1       8.007  24.207  52.618  1.00  0.00     0.002 A 
HETATM   17  C   UNL     1       7.961  23.110  53.473  1.00  0.00     0.000 A 
HETATM   18  C   UNL     1       7.499  23.269  54.777  1.00  0.00     0.002 A 
HETATM   19  C   UNL     1       7.079  24.523  55.232  1.00  0.00     0.031 A 
ENDBRANCH   8  14
ENDBRANCH   1   5
BRANCH   2  20
HETATM   20  N   UNL     1       8.070  31.274  60.655  1.00  0.00    -0.249 N 
HETATM   21  C   UNL     1       7.094  31.892  61.425  1.00  0.00     0.339 C 
HETATM   22  N   UNL     1       7.635  32.760  62.346  1.00  0.00    -0.308 N 
HETATM   23  O   UNL     1       5.906  31.623  61.266  1.00  0.00    -0.245 OA
HETATM   24  H   UNL     1       8.642  32.816  62.362  1.00  0.00     0.170 HD
HETATM   25  H   UNL     1       8.950  31.745  60.460  1.00  0.00     0.192 HD
BRANCH  22  26
HETATM   26  C   UNL     1       6.944  33.518  63.314  1.00  0.00     0.036 A 
HETATM   27  C   UNL     1       6.082  34.575  63.007  1.00  0.00     0.031 A 
HETATM   28  C   UNL     1       5.419  35.272  64.024  1.00  0.00     0.026 A 
HETATM   29  C   UNL     1       5.618  34.915  65.353  1.00  0.00     0.034 A 
HETATM   30 CL   UNL     1       4.798  35.769  66.601  1.00  0.00    -0.084 Cl
HETATM   31  C   UNL     1       6.477  33.870  65.676  1.00  0.00     0.026 A 
HETATM   32  C   UNL     1       7.138  33.173  64.658  1.00  0.00     0.031 A 
ENDBRANCH  22  26
ENDBRANCH   2  20
TORSDOF 4
ENDMDL
MODEL 3
REMARK VINA RESULT:      -9.8      5.741      8.906
REMARK  4 active torsions:
REMARK  status: ('A' for Active; 'I' for Inactive)
REMARK    1  A    between atoms: N_4  and  C_5 
REMARK    2  A    between atoms: C_14  and  C_15 
REMARK       I    between atoms: C_15  and  N_16 
REMARK    3  A    between atoms: N_16  and  N_17 
REMARK       I    between atoms: N_17  and  C_18 
REMARK       I    between atoms: C_18  and  N_19 
REMARK    4  A    between atoms: N_19  and  C_20 
ROOT
HETATM    1  C   UNL     1       4.240  27.307  52.898  1.00  0.00     0.277 C 
HETATM    2  N   UNL     1       4.292  27.051  51.542  1.00  0.00    -0.261 N 
HETATM    3  O   UNL     1       3.517  28.195  53.351  1.00  0.00    -0.265 OA
HETATM    4  H   UNL     1       4.958  26.389  51.142  1.00  0.00     0.190 HD
ENDROOT
BRANCH   1   5
HETATM    5  C   UNL     1       5.088  26.459  53.724  1.00  0.00     0.077 A 
HETATM    6  S   UNL     1       5.577  24.870  53.183  1.00  0.00    -0.064 SA
HETATM    7  C   UNL     1       6.470  24.640  54.569  1.00  0.00     0.113 A 
HETATM    8  N   UNL     1       7.288  23.706  55.154  1.00  0.00    -0.226 N 
HETATM    9  C   UNL     1       6.400  25.685  55.399  1.00  0.00     0.027 A 
HETATM   10  N   UNL     1       7.707  24.178  56.389  1.00  0.00    -0.171 NA
HETATM   11  C   UNL     1       7.153  25.399  56.523  1.00  0.00     0.064 A 
HETATM   12  C   UNL     1       7.383  26.209  57.739  1.00  0.00     0.073 C 
HETATM   13  C   UNL     1       5.634  26.765  54.972  1.00  0.00     0.041 A 
BRANCH   8  14
HETATM   14  C   UNL     1       7.735  22.435  54.687  1.00  0.00     0.059 A 
HETATM   15  C   UNL     1       8.102  21.456  55.626  1.00  0.00     0.031 A 
HETATM   16  C   UNL     1       8.560  20.203  55.209  1.00  0.00     0.002 A 
HETATM   17  C   UNL     1       8.655  19.913  53.851  1.00  0.00     0.000 A 
HETATM   18  C   UNL     1       8.290  20.874  52.911  1.00  0.00     0.002 A 
HETATM   19  C   UNL     1       7.833  22.130  53.324  1.00  0.00     0.031 A 
ENDBRANCH   8  14
ENDBRANCH   1   5
BRANCH   2  20
HETATM   20  N   UNL     1       3.652  27.908  50.633  1.00  0.00    -0.249 N 
HETATM   21  C   UNL     1       4.490  28.731  49.892  1.00  0.00     0.339 C 
HETATM   22  N   UNL     1       3.786  29.617  49.110  1.00  0.00    -0.308 N 
HETATM   23  O   UNL     1       5.709  28.602  49.955  1.00  0.00    -0.245 OA
HETATM   24  H   UNL     1       2.780  29.544  49.154  1.00  0.00     0.170 HD
HETATM   25  H   UNL     1       2.735  28.236  50.928  1.00  0.00     0.192 HD
BRANCH  22  26
HETATM   26  C   UNL     1       4.311  30.563  48.205  1.00  0.00     0.036 A 
HETATM   27  C   UNL     1       4.952  31.743  48.593  1.00  0.00     0.031 A 
HETATM   28  C   UNL     1       5.463  32.625  47.635  1.00  0.00     0.026 A 
HETATM   29  C   UNL     1       5.331  32.332  46.282  1.00  0.00     0.034 A 
HETATM   30 CL   UNL     1       5.963  33.415  45.105  1.00  0.00    -0.084 Cl
HETATM   31  C   UNL     1       4.690  31.165  45.877  1.00  0.00     0.026 A 
HETATM   32  C   UNL     1       4.182  30.283  46.838  1.00  0.00     0.031 A 
ENDBRANCH  22  26
ENDBRANCH   2  20
TORSDOF 4
ENDMDL
MODEL 4
REMARK VINA RESULT:      -9.8      4.303     11.138
REMARK  4 active torsions:
REMARK  status: ('A' for Active; 'I' for Inactive)
REMARK    1  A    between atoms: N_4  and  C_5 
REMARK    2  A    between atoms: C_14  and  C_15 
REMARK       I    between atoms: C_15  and  N_16 
REMARK    3  A    between atoms: N_16  and  N_17 
REMARK       I    between atoms: N_17  and  C_18 
REMARK       I    between atoms: C_18  and  N_19 
REMARK    4  A    between atoms: N_19  and  C_20 
ROOT
HETATM    1  C   UNL     1       5.520  30.192  57.331  1.00  0.00     0.277 C 
HETATM    2  N   UNL     1       4.957  28.980  57.677  1.00  0.00    -0.261 N 
HETATM    3  O   UNL     1       5.628  30.532  56.154  1.00  0.00    -0.265 OA
HETATM    4  H   UNL     1       4.953  28.640  58.639  1.00  0.00     0.190 HD
ENDROOT
BRANCH   1   5
HETATM    5  C   UNL     1       5.961  31.014  58.450  1.00  0.00     0.077 A 
HETATM    6  S   UNL     1       4.880  32.155  59.214  1.00  0.00    -0.064 SA
HETATM    7  C   UNL     1       6.059  32.587  60.307  1.00  0.00     0.113 A 
HETATM    8  N   UNL     1       6.246  33.415  61.385  1.00  0.00    -0.226 N 
HETATM    9  C   UNL     1       7.204  31.926  60.108  1.00  0.00     0.027 A 
HETATM   10  N   UNL     1       7.550  33.282  61.841  1.00  0.00    -0.171 NA
HETATM   11  C   UNL     1       8.124  32.359  61.045  1.00  0.00     0.064 A 
HETATM   12  C   UNL     1       9.536  31.961  61.239  1.00  0.00     0.073 C 
HETATM   13  C   UNL     1       7.213  31.003  59.068  1.00  0.00     0.041 A 
BRANCH   8  14
HETATM   14  C   UNL     1       5.347  34.303  62.046  1.00  0.00     0.059 A 
HETATM   15  C   UNL     1       5.776  35.608  62.345  1.00  0.00     0.031 A 
HETATM   16  C   UNL     1       4.930  36.503  63.005  1.00  0.00     0.002 A 
HETATM   17  C   UNL     1       3.647  36.107  63.374  1.00  0.00     0.000 A 
HETATM   18  C   UNL     1       3.210  34.818  63.080  1.00  0.00     0.002 A 
HETATM   19  C   UNL     1       4.054  33.918  62.420  1.00  0.00     0.031 A 
ENDBRANCH   8  14
ENDBRANCH   1   5
BRANCH   2  20
HETATM   20  N   UNL     1       4.650  28.032  56.687  1.00  0.00    -0.249 N 
HETATM   21  C   UNL     1       5.619  27.062  56.464  1.00  0.00     0.339 C 
HETATM   22  N   UNL     1       5.296  26.244  55.406  1.00  0.00    -0.308 N 
HETATM   23  O   UNL     1       6.607  26.985  57.188  1.00  0.00    -0.245 OA
HETATM   24  H   UNL     1       4.413  26.430  54.955  1.00  0.00     0.170 HD
HETATM   25  H   UNL     1       4.087  28.386  55.917  1.00  0.00     0.192 HD
BRANCH  22  26
HETATM   26  C   UNL     1       6.025  25.133  54.931  1.00  0.00     0.036 A 
HETATM   27  C   UNL     1       6.641  24.192  55.761  1.00  0.00     0.031 A 
HETATM   28  C   UNL     1       7.335  23.106  55.215  1.00  0.00     0.026 A 
HETATM   29  C   UNL     1       7.417  22.958  53.835  1.00  0.00     0.034 A 
HETATM   30 CL   UNL     1       8.264  21.620  53.165  1.00  0.00    -0.084 Cl
HETATM   31  C   UNL     1       6.814  23.889  52.994  1.00  0.00     0.026 A 
HETATM   32  C   UNL     1       6.120  24.973  53.542  1.00  0.00     0.031 A 
ENDBRANCH  22  26
ENDBRANCH   2  20
TORSDOF 4
ENDMDL
MODEL 5
REMARK VINA RESULT:      -9.7      2.317      2.854
REMARK  4 active torsions:
REMARK  status: ('A' for Active; 'I' for Inactive)
REMARK    1  A    between atoms: N_4  and  C_5 
REMARK    2  A    between atoms: C_14  and  C_15 
REMARK       I    between atoms: C_15  and  N_16 
REMARK    3  A    between atoms: N_16  and  N_17 
REMARK       I    between atoms: N_17  and  C_18 
REMARK       I    between atoms: C_18  and  N_19 
REMARK    4  A    between atoms: N_19  and  C_20 
ROOT
HETATM    1  C   UNL     1       7.338  28.094  57.125  1.00  0.00     0.277 C 
HETATM    2  N   UNL     1       6.735  29.303  56.844  1.00  0.00    -0.261 N 
HETATM    3  O   UNL     1       7.999  27.934  58.150  1.00  0.00    -0.265 OA
HETATM    4  H   UNL     1       6.270  29.482  55.954  1.00  0.00     0.190 HD
ENDROOT
BRANCH   1   5
HETATM    5  C   UNL     1       7.130  27.050  56.130  1.00  0.00     0.077 A 
HETATM    6  S   UNL     1       7.857  25.471  56.313  1.00  0.00    -0.064 SA
HETATM    7  C   UNL     1       7.141  24.945  54.905  1.00  0.00     0.113 A 
HETATM    8  N   UNL     1       7.044  23.818  54.127  1.00  0.00    -0.226 N 
HETATM    9  C   UNL     1       6.408  25.897  54.320  1.00  0.00     0.027 A 
HETATM   10  N   UNL     1       6.255  24.095  53.021  1.00  0.00    -0.171 NA
HETATM   11  C   UNL     1       5.870  25.379  53.156  1.00  0.00     0.064 A 
HETATM   12  C   UNL     1       5.008  26.026  52.142  1.00  0.00     0.073 C 
HETATM   13  C   UNL     1       6.350  27.124  54.974  1.00  0.00     0.041 A 
BRANCH   8  14
HETATM   14  C   UNL     1       7.589  22.512  54.306  1.00  0.00     0.059 A 
HETATM   15  C   UNL     1       8.150  21.852  53.200  1.00  0.00     0.031 A 
HETATM   16  C   UNL     1       8.680  20.565  53.331  1.00  0.00     0.002 A 
HETATM   17  C   UNL     1       8.657  19.924  54.566  1.00  0.00     0.000 A 
HETATM   18  C   UNL     1       8.106  20.570  55.670  1.00  0.00     0.002 A 
HETATM   19  C   UNL     1       7.573  21.857  55.544  1.00  0.00     0.031 A 
ENDBRANCH   8  14
ENDBRANCH   1   5
BRANCH   2  20
HETATM   20  N   UNL     1       7.003  30.430  57.639  1.00  0.00    -0.249 N 
HETATM   21  C   UNL     1       5.893  31.040  58.208  1.00  0.00     0.339 C 
HETATM   22  N   UNL     1       6.224  32.198  58.874  1.00  0.00    -0.308 N 
HETATM   23  O   UNL     1       4.780  30.530  58.113  1.00  0.00    -0.245 OA
HETATM   24  H   UNL     1       7.204  32.437  58.885  1.00  0.00     0.170 HD
HETATM   25  H   UNL     1       7.799  30.986  57.336  1.00  0.00     0.192 HD
BRANCH  22  26
HETATM   26  C   UNL     1       5.360  33.043  59.600  1.00  0.00     0.036 A 
HETATM   27  C   UNL     1       4.467  33.941  59.009  1.00  0.00     0.031 A 
HETATM   28  C   UNL     1       3.628  34.736  59.797  1.00  0.00     0.026 A 
HETATM   29  C   UNL     1       3.680  34.638  61.183  1.00  0.00     0.034 A 
HETATM   30 CL   UNL     1       2.645  35.612  62.151  1.00  0.00    -0.084 Cl
HETATM   31  C   UNL     1       4.566  33.753  61.789  1.00  0.00     0.026 A 
HETATM   32  C   UNL     1       5.404  32.957  60.999  1.00  0.00     0.031 A 
ENDBRANCH  22  26
ENDBRANCH   2  20
TORSDOF 4
ENDMDL
MODEL 6
REMARK VINA RESULT:      -9.7      3.960     10.282
REMARK  4 active torsions:
REMARK  status: ('A' for Active; 'I' for Inactive)
REMARK    1  A    between atoms: N_4  and  C_5 
REMARK    2  A    between atoms: C_14  and  C_15 
REMARK       I    between atoms: C_15  and  N_16 
REMARK    3  A    between atoms: N_16  and  N_17 
REMARK       I    between atoms: N_17  and  C_18 
REMARK       I    between atoms: C_18  and  N_19 
REMARK    4  A    between atoms: N_19  and  C_20 
ROOT
HETATM    1  C   UNL     1       7.595  29.919  56.503  1.00  0.00     0.277 C 
HETATM    2  N   UNL     1       6.824  29.506  55.435  1.00  0.00    -0.261 N 
HETATM    3  O   UNL     1       8.779  29.597  56.596  1.00  0.00    -0.265 OA
HETATM    4  H   UNL     1       5.819  29.679  55.395  1.00  0.00     0.190 HD
ENDROOT
BRANCH   1   5
HETATM    5  C   UNL     1       6.906  30.747  57.483  1.00  0.00     0.077 A 
HETATM    6  S   UNL     1       7.484  30.867  59.129  1.00  0.00    -0.064 SA
HETATM    7  C   UNL     1       6.267  31.937  59.510  1.00  0.00     0.113 A 
HETATM    8  N   UNL     1       5.808  32.679  60.569  1.00  0.00    -0.226 N 
HETATM    9  C   UNL     1       5.462  32.184  58.472  1.00  0.00     0.027 A 
HETATM   10  N   UNL     1       4.675  33.377  60.179  1.00  0.00    -0.171 NA
HETATM   11  C   UNL     1       4.477  33.063  58.884  1.00  0.00     0.064 A 
HETATM   12  C   UNL     1       3.339  33.630  58.129  1.00  0.00     0.073 C 
HETATM   13  C   UNL     1       5.778  31.543  57.278  1.00  0.00     0.041 A 
BRANCH   8  14
HETATM   14  C   UNL     1       6.314  32.824  61.895  1.00  0.00     0.059 A 
HETATM   15  C   UNL     1       7.675  32.574  62.135  1.00  0.00     0.031 A 
HETATM   16  C   UNL     1       8.206  32.689  63.423  1.00  0.00     0.002 A 
HETATM   17  C   UNL     1       7.384  33.055  64.485  1.00  0.00     0.000 A 
HETATM   18  C   UNL     1       6.034  33.309  64.259  1.00  0.00     0.002 A 
HETATM   19  C   UNL     1       5.498  33.194  62.971  1.00  0.00     0.031 A 
ENDBRANCH   8  14
ENDBRANCH   1   5
BRANCH   2  20
HETATM   20  N   UNL     1       7.326  28.569  54.517  1.00  0.00    -0.249 N 
HETATM   21  C   UNL     1       7.145  27.236  54.862  1.00  0.00     0.339 C 
HETATM   22  N   UNL     1       7.762  26.384  53.974  1.00  0.00    -0.308 N 
HETATM   23  O   UNL     1       6.472  26.928  55.841  1.00  0.00    -0.245 OA
HETATM   24  H   UNL     1       8.233  26.821  53.196  1.00  0.00     0.170 HD
HETATM   25  H   UNL     1       8.163  28.864  54.020  1.00  0.00     0.192 HD
BRANCH  22  26
HETATM   26  C   UNL     1       7.747  24.974  53.992  1.00  0.00     0.036 A 
HETATM   27  C   UNL     1       7.684  24.180  52.843  1.00  0.00     0.031 A 
HETATM   28  C   UNL     1       7.690  22.784  52.940  1.00  0.00     0.026 A 
HETATM   29  C   UNL     1       7.755  22.175  54.188  1.00  0.00     0.034 A 
HETATM   30 CL   UNL     1       7.767  20.460  54.306  1.00  0.00    -0.084 Cl
HETATM   31  C   UNL     1       7.812  22.951  55.343  1.00  0.00     0.026 A 
HETATM   32  C   UNL     1       7.808  24.347  55.243  1.00  0.00     0.031 A 
ENDBRANCH  22  26
ENDBRANCH   2  20
TORSDOF 4
ENDMDL
MODEL 7
REMARK VINA RESULT:      -9.6      4.714     11.499
REMARK  4 active torsions:
REMARK  status: ('A' for Active; 'I' for Inactive)
REMARK    1  A    between atoms: N_4  and  C_5 
REMARK    2  A    between atoms: C_14  and  C_15 
REMARK       I    between atoms: C_15  and  N_16 
REMARK    3  A    between atoms: N_16  and  N_17 
REMARK       I    between atoms: N_17  and  C_18 
REMARK       I    between atoms: C_18  and  N_19 
REMARK    4  A    between atoms: N_19  and  C_20 
ROOT
HETATM    1  C   UNL     1       7.376  31.816  59.658  1.00  0.00     0.277 C 
HETATM    2  N   UNL     1       6.948  30.629  59.099  1.00  0.00    -0.261 N 
HETATM    3  O   UNL     1       8.448  32.325  59.330  1.00  0.00    -0.265 OA
HETATM    4  H   UNL     1       6.114  30.144  59.432  1.00  0.00     0.190 HD
ENDROOT
BRANCH   1   5
HETATM    5  C   UNL     1       6.475  32.401  60.642  1.00  0.00     0.077 A 
HETATM    6  S   UNL     1       6.929  32.513  62.327  1.00  0.00    -0.064 SA
HETATM    7  C   UNL     1       5.491  33.266  62.695  1.00  0.00     0.113 A 
HETATM    8  N   UNL     1       4.829  33.811  63.767  1.00  0.00    -0.226 N 
HETATM    9  C   UNL     1       4.705  33.416  61.623  1.00  0.00     0.027 A 
HETATM   10  N   UNL     1       3.592  34.279  63.348  1.00  0.00    -0.171 NA
HETATM   11  C   UNL     1       3.534  34.030  62.025  1.00  0.00     0.064 A 
HETATM   12  C   UNL     1       2.339  34.398  61.234  1.00  0.00     0.073 C 
HETATM   13  C   UNL     1       5.213  32.951  60.414  1.00  0.00     0.041 A 
BRANCH   8  14
HETATM   14  C   UNL     1       5.223  33.956  65.130  1.00  0.00     0.059 A 
HETATM   15  C   UNL     1       4.230  34.123  66.110  1.00  0.00     0.031 A 
HETATM   16  C   UNL     1       4.576  34.285  67.455  1.00  0.00     0.002 A 
HETATM   17  C   UNL     1       5.915  34.281  67.836  1.00  0.00     0.000 A 
HETATM   18  C   UNL     1       6.907  34.113  66.872  1.00  0.00     0.002 A 
HETATM   19  C   UNL     1       6.566  33.952  65.525  1.00  0.00     0.031 A 
ENDBRANCH   8  14
ENDBRANCH   1   5
BRANCH   2  20
HETATM   20  N   UNL     1       7.804  29.887  58.268  1.00  0.00    -0.249 N 
HETATM   21  C   UNL     1       7.219  28.812  57.612  1.00  0.00     0.339 C 
HETATM   22  N   UNL     1       8.141  28.070  56.911  1.00  0.00    -0.308 N 
HETATM   23  O   UNL     1       6.006  28.627  57.671  1.00  0.00    -0.245 OA
HETATM   24  H   UNL     1       9.093  28.404  56.941  1.00  0.00     0.170 HD
HETATM   25  H   UNL     1       8.768  29.835  58.586  1.00  0.00     0.192 HD
BRANCH  22  26
HETATM   26  C   UNL     1       7.893  26.943  56.100  1.00  0.00     0.036 A 
HETATM   27  C   UNL     1       7.996  25.622  56.547  1.00  0.00     0.031 A 
HETATM   28  C   UNL     1       7.717  24.555  55.686  1.00  0.00     0.026 A 
HETATM   29  C   UNL     1       7.338  24.804  54.372  1.00  0.00     0.034 A 
HETATM   30 CL   UNL     1       6.991  23.491  53.316  1.00  0.00    -0.084 Cl
HETATM   31  C   UNL     1       7.236  26.112  53.909  1.00  0.00     0.026 A 
HETATM   32  C   UNL     1       7.513  27.178  54.772  1.00  0.00     0.031 A 
ENDBRANCH  22  26
ENDBRANCH   2  20
TORSDOF 4
ENDMDL
MODEL 8
REMARK VINA RESULT:      -9.4      2.078      4.625
REMARK  4 active torsions:
REMARK  status: ('A' for Active; 'I' for Inactive)
REMARK    1  A    between atoms: N_4  and  C_5 
REMARK    2  A    between atoms: C_14  and  C_15 
REMARK       I    between atoms: C_15  and  N_16 
REMARK    3  A    between atoms: N_16  and  N_17 
REMARK       I    between atoms: N_17  and  C_18 
REMARK       I    between atoms: C_18  and  N_19 
REMARK    4  A    between atoms: N_19  and  C_20 
ROOT
HETATM    1  C   UNL     1       7.872  27.501  57.022  1.00  0.00     0.277 C 
HETATM    2  N   UNL     1       8.296  28.814  57.039  1.00  0.00    -0.261 N 
HETATM    3  O   UNL     1       7.828  26.832  58.055  1.00  0.00    -0.265 OA
HETATM    4  H   UNL     1       8.435  29.349  56.181  1.00  0.00     0.190 HD
ENDROOT
BRANCH   1   5
HETATM    5  C   UNL     1       7.491  26.987  55.714  1.00  0.00     0.077 A 
HETATM    6  S   UNL     1       6.598  27.976  54.581  1.00  0.00    -0.064 SA
HETATM    7  C   UNL     1       6.622  26.755  53.450  1.00  0.00     0.113 A 
HETATM    8  N   UNL     1       6.205  26.495  52.169  1.00  0.00    -0.226 N 
HETATM    9  C   UNL     1       7.249  25.661  53.894  1.00  0.00     0.027 A 
HETATM   10  N   UNL     1       6.559  25.198  51.829  1.00  0.00    -0.171 NA
HETATM   11  C   UNL     1       7.204  24.700  52.901  1.00  0.00     0.064 A 
HETATM   12  C   UNL     1       7.729  23.317  52.898  1.00  0.00     0.073 C 
HETATM   13  C   UNL     1       7.780  25.731  55.179  1.00  0.00     0.041 A 
BRANCH   8  14
HETATM   14  C   UNL     1       5.529  27.321  51.223  1.00  0.00     0.059 A 
HETATM   15  C   UNL     1       4.867  26.716  50.141  1.00  0.00     0.031 A 
HETATM   16  C   UNL     1       4.206  27.492  49.184  1.00  0.00     0.002 A 
HETATM   17  C   UNL     1       4.198  28.879  49.296  1.00  0.00     0.000 A 
HETATM   18  C   UNL     1       4.847  29.490  50.366  1.00  0.00     0.002 A 
HETATM   19  C   UNL     1       5.511  28.717  51.326  1.00  0.00     0.031 A 
ENDBRANCH   8  14
ENDBRANCH   1   5
BRANCH   2  20
HETATM   20  N   UNL     1       8.848  29.367  58.206  1.00  0.00    -0.249 N 
HETATM   21  C   UNL     1       8.007  30.201  58.930  1.00  0.00     0.339 C 
HETATM   22  N   UNL     1       8.653  30.791  59.993  1.00  0.00    -0.308 N 
HETATM   23  O   UNL     1       6.826  30.325  58.618  1.00  0.00    -0.245 OA
HETATM   24  H   UNL     1       9.619  30.531  60.122  1.00  0.00     0.170 HD
HETATM   25  H   UNL     1       9.847  29.555  58.159  1.00  0.00     0.192 HD
BRANCH  22  26
HETATM   26  C   UNL     1       8.097  31.656  60.958  1.00  0.00     0.036 A 
HETATM   27  C   UNL     1       7.095  32.591  60.683  1.00  0.00     0.031 A 
HETATM   28  C   UNL     1       6.580  33.404  61.699  1.00  0.00     0.026 A 
HETATM   29  C   UNL     1       7.069  33.288  62.995  1.00  0.00     0.034 A 
HETATM   30 CL   UNL     1       6.432  34.284  64.244  1.00  0.00    -0.084 Cl
HETATM   31  C   UNL     1       8.070  32.366  63.286  1.00  0.00     0.026 A 
HETATM   32  C   UNL     1       8.582  31.552  62.268  1.00  0.00     0.031 A 
ENDBRANCH  22  26
ENDBRANCH   2  20
TORSDOF 4
ENDMDL
MODEL 9
REMARK VINA RESULT:      -9.0      4.020      4.636
REMARK  4 active torsions:
REMARK  status: ('A' for Active; 'I' for Inactive)
REMARK    1  A    between atoms: N_4  and  C_5 
REMARK    2  A    between atoms: C_14  and  C_15 
REMARK       I    between atoms: C_15  and  N_16 
REMARK    3  A    between atoms: N_16  and  N_17 
REMARK       I    between atoms: N_17  and  C_18 
REMARK       I    between atoms: C_18  and  N_19 
REMARK    4  A    between atoms: N_19  and  C_20 
ROOT
HETATM    1  C   UNL     1       5.258  27.997  56.653  1.00  0.00     0.277 C 
HETATM    2  N   UNL     1       4.026  28.590  56.460  1.00  0.00    -0.261 N 
HETATM    3  O   UNL     1       5.991  28.338  57.581  1.00  0.00    -0.265 OA
HETATM    4  H   UNL     1       3.452  28.391  55.640  1.00  0.00     0.190 HD
ENDROOT
BRANCH   1   5
HETATM    5  C   UNL     1       5.607  26.962  55.690  1.00  0.00     0.077 A 
HETATM    6  S   UNL     1       6.446  25.511  56.190  1.00  0.00    -0.064 SA
HETATM    7  C   UNL     1       6.408  24.919  54.634  1.00  0.00     0.113 A 
HETATM    8  N   UNL     1       6.789  23.812  53.917  1.00  0.00    -0.226 N 
HETATM    9  C   UNL     1       5.814  25.760  53.782  1.00  0.00     0.027 A 
HETATM   10  N   UNL     1       6.447  23.992  52.585  1.00  0.00    -0.171 NA
HETATM   11  C   UNL     1       5.845  25.196  52.520  1.00  0.00     0.064 A 
HETATM   12  C   UNL     1       5.344  25.727  51.234  1.00  0.00     0.073 C 
HETATM   13  C   UNL     1       5.323  26.944  54.324  1.00  0.00     0.041 A 
BRANCH   8  14
HETATM   14  C   UNL     1       7.421  22.603  54.334  1.00  0.00     0.059 A 
HETATM   15  C   UNL     1       7.887  21.707  53.357  1.00  0.00     0.031 A 
HETATM   16  C   UNL     1       8.497  20.504  53.725  1.00  0.00     0.002 A 
HETATM   17  C   UNL     1       8.650  20.183  55.070  1.00  0.00     0.000 A 
HETATM   18  C   UNL     1       8.195  21.065  56.047  1.00  0.00     0.002 A 
HETATM   19  C   UNL     1       7.583  22.270  55.684  1.00  0.00     0.031 A 
ENDBRANCH   8  14
ENDBRANCH   1   5
BRANCH   2  20
HETATM   20  N   UNL     1       3.652  29.712  57.217  1.00  0.00    -0.249 N 
HETATM   21  C   UNL     1       3.768  30.936  56.572  1.00  0.00     0.339 C 
HETATM   22  N   UNL     1       3.494  31.991  57.412  1.00  0.00    -0.308 N 
HETATM   23  O   UNL     1       4.054  30.991  55.379  1.00  0.00    -0.245 OA
HETATM   24  H   UNL     1       3.228  31.749  58.354  1.00  0.00     0.170 HD
HETATM   25  H   UNL     1       3.836  29.635  58.215  1.00  0.00     0.192 HD
BRANCH  22  26
HETATM   26  C   UNL     1       3.473  33.362  57.082  1.00  0.00     0.036 A 
HETATM   27  C   UNL     1       2.519  33.949  56.245  1.00  0.00     0.031 A 
HETATM   28  C   UNL     1       2.554  35.322  55.977  1.00  0.00     0.026 A 
HETATM   29  C   UNL     1       3.545  36.115  56.545  1.00  0.00     0.034 A 
HETATM   30 CL   UNL     1       3.584  37.803  56.220  1.00  0.00    -0.084 Cl
HETATM   31  C   UNL     1       4.505  35.547  57.376  1.00  0.00     0.026 A 
HETATM   32  C   UNL     1       4.468  34.173  57.644  1.00  0.00     0.031 A 
ENDBRANCH  22  26
ENDBRANCH   2  20
TORSDOF 4
ENDMDL
MODEL 10
REMARK VINA RESULT:      -9.0      3.042      4.591
REMARK  4 active torsions:
REMARK  status: ('A' for Active; 'I' for Inactive)
REMARK    1  A    between atoms: N_4  and  C_5 
REMARK    2  A    between atoms: C_14  and  C_15 
REMARK       I    between atoms: C_15  and  N_16 
REMARK    3  A    between atoms: N_16  and  N_17 
REMARK       I    between atoms: N_17  and  C_18 
REMARK       I    between atoms: C_18  and  N_19 
REMARK    4  A    between atoms: N_19  and  C_20 
ROOT
HETATM    1  C   UNL     1       5.849  30.837  57.833  1.00  0.00     0.277 C 
HETATM    2  N   UNL     1       6.856  31.330  58.637  1.00  0.00    -0.261 N 
HETATM    3  O   UNL     1       4.798  31.458  57.675  1.00  0.00    -0.265 OA
HETATM    4  H   UNL     1       7.689  30.783  58.858  1.00  0.00     0.190 HD
ENDROOT
BRANCH   1   5
HETATM    5  C   UNL     1       6.129  29.554  57.202  1.00  0.00     0.077 A 
HETATM    6  S   UNL     1       5.480  29.162  55.626  1.00  0.00    -0.064 SA
HETATM    7  C   UNL     1       6.247  27.685  55.645  1.00  0.00     0.113 A 
HETATM    8  N   UNL     1       6.416  26.574  54.857  1.00  0.00    -0.226 N 
HETATM    9  C   UNL     1       6.940  27.485  56.770  1.00  0.00     0.027 A 
HETATM   10  N   UNL     1       7.209  25.656  55.530  1.00  0.00    -0.171 NA
HETATM   11  C   UNL     1       7.525  26.234  56.704  1.00  0.00     0.064 A 
HETATM   12  C   UNL     1       8.370  25.531  57.695  1.00  0.00     0.073 C 
HETATM   13  C   UNL     1       6.924  28.520  57.700  1.00  0.00     0.041 A 
BRANCH   8  14
HETATM   14  C   UNL     1       5.936  26.278  53.547  1.00  0.00     0.059 A 
HETATM   15  C   UNL     1       6.118  27.226  52.526  1.00  0.00     0.031 A 
HETATM   16  C   UNL     1       5.648  26.980  51.233  1.00  0.00     0.002 A 
HETATM   17  C   UNL     1       4.993  25.787  50.944  1.00  0.00     0.000 A 
HETATM   18  C   UNL     1       4.811  24.838  51.948  1.00  0.00     0.002 A 
HETATM   19  C   UNL     1       5.278  25.080  53.244  1.00  0.00     0.031 A 
ENDBRANCH   8  14
ENDBRANCH   1   5
BRANCH   2  20
HETATM   20  N   UNL     1       6.639  32.469  59.429  1.00  0.00    -0.249 N 
HETATM   21  C   UNL     1       6.675  32.261  60.801  1.00  0.00     0.339 C 
HETATM   22  N   UNL     1       6.341  33.396  61.505  1.00  0.00    -0.308 N 
HETATM   23  O   UNL     1       7.007  31.173  61.262  1.00  0.00    -0.245 OA
HETATM   24  H   UNL     1       6.142  34.216  60.953  1.00  0.00     0.170 HD
HETATM   25  H   UNL     1       6.002  33.153  59.027  1.00  0.00     0.192 HD
BRANCH  22  26
HETATM   26  C   UNL     1       6.318  33.557  62.906  1.00  0.00     0.036 A 
HETATM   27  C   UNL     1       7.440  33.411  63.727  1.00  0.00     0.031 A 
HETATM   28  C   UNL     1       7.342  33.603  65.110  1.00  0.00     0.026 A 
HETATM   29  C   UNL     1       6.118  33.940  65.678  1.00  0.00     0.034 A 
HETATM   30 CL   UNL     1       5.999  34.181  67.377  1.00  0.00    -0.084 Cl
HETATM   31  C   UNL     1       4.990  34.084  64.877  1.00  0.00     0.026 A 
HETATM   32  C   UNL     1       5.091  33.892  63.494  1.00  0.00     0.031 A 
ENDBRANCH  22  26
ENDBRANCH   2  20
TORSDOF 4
ENDMDL
