MODEL 1
REMARK VINA RESULT:     -11.0      0.000      0.000
REMARK  9 active torsions:
REMARK  status: ('A' for Active; 'I' for Inactive)
REMARK    1  A    between atoms: C_2  and  C_3 
REMARK    2  A    between atoms: C_3  and  O_4 
REMARK    3  A    between atoms: O_4  and  C_5 
REMARK    4  A    between atoms: C_8  and  C_9 
REMARK       I    between atoms: C_9  and  N_10 
REMARK    5  A    between atoms: N_10  and  C_11 
REMARK    6  A    between atoms: C_11  and  N_12 
REMARK    7  A    between atoms: N_12  and  C_13 
REMARK    8  A    between atoms: C_15  and  C_16 
REMARK    9  A    between atoms: C_27  and  O_28 
ROOT
HETATM    1  C   UNL     1       7.480  28.902  57.814  1.00  0.00     0.035 A 
HETATM    2  C   UNL     1       7.786  27.644  57.283  1.00  0.00     0.048 A 
HETATM    3  C   UNL     1       6.921  27.015  56.364  1.00  0.00     0.052 A 
HETATM    4  C   UNL     1       5.741  27.680  55.993  1.00  0.00     0.080 A 
HETATM    5  C   UNL     1       5.428  28.929  56.514  1.00  0.00     0.040 A 
HETATM    6  C   UNL     1       6.291  29.533  57.427  1.00  0.00     0.032 A 
ENDROOT
BRANCH   1   7
HETATM    7  N   UNL     1       8.241  29.560  58.801  1.00  0.00    -0.333 N 
HETATM    8  H   UNL     1       8.151  29.179  59.740  1.00  0.00     0.168 HD
BRANCH   7   9
HETATM    9  C   UNL     1       9.256  30.473  58.713  1.00  0.00     0.179 C 
HETATM   10  S   UNL     1      10.244  30.365  57.364  1.00  0.00    -0.040 SA
BRANCH   9  11
HETATM   11  N   UNL     1       9.432  31.319  59.782  1.00  0.00    -0.299 N 
HETATM   12  C   UNL     1       9.024  31.012  61.069  1.00  0.00     0.257 C 
HETATM   13  O   UNL     1       9.471  30.044  61.681  1.00  0.00    -0.267 OA
HETATM   14  H   UNL     1       9.396  32.284  59.497  1.00  0.00     0.171 HD
BRANCH  12  15
HETATM   15  C   UNL     1       8.090  31.948  61.768  1.00  0.00     0.032 A 
HETATM   16  C   UNL     1       8.344  32.204  63.126  1.00  0.00     0.020 A 
HETATM   17  C   UNL     1       7.494  33.015  63.883  1.00  0.00     0.038 A 
HETATM   18  C   UNL     1       6.373  33.592  63.293  1.00  0.00     0.068 A 
HETATM   19  C   UNL     1       6.118  33.351  61.940  1.00  0.00     0.038 A 
HETATM   20  C   UNL     1       6.963  32.529  61.178  1.00  0.00     0.020 A 
BRANCH  18  21
HETATM   21  O   UNL     1       5.461  34.396  63.921  1.00  0.00    -0.351 OA
BRANCH  21  22
HETATM   22  C   UNL     1       4.867  33.883  65.116  1.00  0.00     0.175 C 
BRANCH  22  23
HETATM   23  C   UNL     1       3.522  34.575  65.319  1.00  0.00     0.022 C 
HETATM   24  C   UNL     1       3.606  35.667  66.372  1.00  0.00     0.007 C 
ENDBRANCH  22  23
ENDBRANCH  21  22
ENDBRANCH  18  21
ENDBRANCH  12  15
ENDBRANCH   9  11
ENDBRANCH   7   9
ENDBRANCH   1   7
BRANCH   3  25
HETATM   25  C   UNL     1       7.211  25.687  55.831  1.00  0.00     0.183 A 
HETATM   26  O   UNL     1       7.562  24.705  56.721  1.00  0.00    -0.289 OA
HETATM   27  C   UNL     1       7.749  23.605  55.936  1.00  0.00     0.107 A 
HETATM   28  C   UNL     1       7.513  23.972  54.625  1.00  0.00     0.094 A 
HETATM   29  C   UNL     1       8.105  22.327  56.346  1.00  0.00     0.047 A 
HETATM   30  N   UNL     1       7.186  25.304  54.564  1.00  0.00    -0.221 NA
HETATM   31  C   UNL     1       7.627  23.006  53.619  1.00  0.00     0.041 A 
HETATM   32  C   UNL     1       7.987  21.687  53.977  1.00  0.00    -0.054 A 
HETATM   33  C   UNL     1       8.216  21.351  55.334  1.00  0.00    -0.053 A 
HETATM   34  C   UNL     1       8.067  20.649  52.887  1.00  0.00     0.049 C 
HETATM   35  C   UNL     1       8.593  19.947  55.733  1.00  0.00     0.049 C 
ENDBRANCH   3  25
BRANCH   4  36
HETATM   36  O   UNL     1       4.824  27.148  55.123  1.00  0.00    -0.360 OA
HETATM   37  H   UNL     1       5.153  26.278  54.812  1.00  0.00     0.217 HD
ENDBRANCH   4  36
TORSDOF 9
ENDMDL
MODEL 2
REMARK VINA RESULT:     -10.8      0.756      1.643
REMARK  9 active torsions:
REMARK  status: ('A' for Active; 'I' for Inactive)
REMARK    1  A    between atoms: C_2  and  C_3 
REMARK    2  A    between atoms: C_3  and  O_4 
REMARK    3  A    between atoms: O_4  and  C_5 
REMARK    4  A    between atoms: C_8  and  C_9 
REMARK       I    between atoms: C_9  and  N_10 
REMARK    5  A    between atoms: N_10  and  C_11 
REMARK    6  A    between atoms: C_11  and  N_12 
REMARK    7  A    between atoms: N_12  and  C_13 
REMARK    8  A    between atoms: C_15  and  C_16 
REMARK    9  A    between atoms: C_27  and  O_28 
ROOT
HETATM    1  C   UNL     1       7.737  29.112  57.749  1.00  0.00     0.035 A 
HETATM    2  C   UNL     1       7.974  27.768  57.439  1.00  0.00     0.048 A 
HETATM    3  C   UNL     1       7.256  27.122  56.412  1.00  0.00     0.052 A 
HETATM    4  C   UNL     1       6.291  27.859  55.705  1.00  0.00     0.080 A 
HETATM    5  C   UNL     1       6.047  29.193  56.005  1.00  0.00     0.040 A 
HETATM    6  C   UNL     1       6.762  29.814  57.028  1.00  0.00     0.032 A 
ENDROOT
BRANCH   1   7
HETATM    7  N   UNL     1       8.344  29.806  58.814  1.00  0.00    -0.333 N 
HETATM    8  H   UNL     1       8.071  29.494  59.743  1.00  0.00     0.168 HD
BRANCH   7   9
HETATM    9  C   UNL     1       9.404  30.672  58.853  1.00  0.00     0.179 C 
HETATM   10  S   UNL     1      10.476  30.599  57.567  1.00  0.00    -0.040 SA
BRANCH   9  11
HETATM   11  N   UNL     1       9.544  31.439  59.985  1.00  0.00    -0.299 N 
HETATM   12  C   UNL     1       9.092  31.042  61.233  1.00  0.00     0.257 C 
HETATM   13  O   UNL     1       9.518  30.032  61.789  1.00  0.00    -0.267 OA
HETATM   14  H   UNL     1       9.519  32.421  59.768  1.00  0.00     0.171 HD
BRANCH  12  15
HETATM   15  C   UNL     1       8.137  31.930  61.965  1.00  0.00     0.032 A 
HETATM   16  C   UNL     1       7.083  32.482  61.218  1.00  0.00     0.020 A 
HETATM   17  C   UNL     1       6.174  33.373  61.796  1.00  0.00     0.038 A 
HETATM   18  C   UNL     1       6.298  33.724  63.136  1.00  0.00     0.068 A 
HETATM   19  C   UNL     1       7.338  33.171  63.889  1.00  0.00     0.038 A 
HETATM   20  C   UNL     1       8.260  32.284  63.312  1.00  0.00     0.020 A 
BRANCH  18  21
HETATM   21  O   UNL     1       5.483  34.587  63.818  1.00  0.00    -0.351 OA
BRANCH  21  22
HETATM   22  C   UNL     1       4.677  34.025  64.856  1.00  0.00     0.175 C 
BRANCH  22  23
HETATM   23  C   UNL     1       3.254  34.552  64.698  1.00  0.00     0.022 C 
HETATM   24  C   UNL     1       2.653  34.150  63.362  1.00  0.00     0.007 C 
ENDBRANCH  22  23
ENDBRANCH  21  22
ENDBRANCH  18  21
ENDBRANCH  12  15
ENDBRANCH   9  11
ENDBRANCH   7   9
ENDBRANCH   1   7
BRANCH   3  25
HETATM   25  C   UNL     1       7.469  25.711  56.103  1.00  0.00     0.183 A 
HETATM   26  O   UNL     1       7.391  25.327  54.789  1.00  0.00    -0.289 OA
HETATM   27  C   UNL     1       7.646  23.987  54.825  1.00  0.00     0.107 A 
HETATM   28  C   UNL     1       7.854  23.629  56.144  1.00  0.00     0.094 A 
HETATM   29  C   UNL     1       7.702  23.110  53.750  1.00  0.00     0.047 A 
HETATM   30  N   UNL     1       7.724  24.729  56.954  1.00  0.00    -0.221 NA
HETATM   31  C   UNL     1       8.152  22.295  56.445  1.00  0.00     0.041 A 
HETATM   32  C   UNL     1       8.221  21.356  55.391  1.00  0.00    -0.054 A 
HETATM   33  C   UNL     1       8.006  21.766  54.052  1.00  0.00    -0.053 A 
HETATM   34  C   UNL     1       8.581  19.932  55.728  1.00  0.00     0.049 C 
HETATM   35  C   UNL     1       8.085  20.779  52.916  1.00  0.00     0.049 C 
ENDBRANCH   3  25
BRANCH   4  36
HETATM   36  O   UNL     1       5.524  27.321  54.704  1.00  0.00    -0.360 OA
HETATM   37  H   UNL     1       4.605  27.218  55.032  1.00  0.00     0.217 HD
ENDBRANCH   4  36
TORSDOF 9
ENDMDL
MODEL 3
REMARK VINA RESULT:     -10.5      1.953      2.468
REMARK  9 active torsions:
REMARK  status: ('A' for Active; 'I' for Inactive)
REMARK    1  A    between atoms: C_2  and  C_3 
REMARK    2  A    between atoms: C_3  and  O_4 
REMARK    3  A    between atoms: O_4  and  C_5 
REMARK    4  A    between atoms: C_8  and  C_9 
REMARK       I    between atoms: C_9  and  N_10 
REMARK    5  A    between atoms: N_10  and  C_11 
REMARK    6  A    between atoms: C_11  and  N_12 
REMARK    7  A    between atoms: N_12  and  C_13 
REMARK    8  A    between atoms: C_15  and  C_16 
REMARK    9  A    between atoms: C_27  and  O_28 
ROOT
HETATM    1  C   UNL     1       5.771  29.233  55.128  1.00  0.00     0.035 A 
HETATM    2  C   UNL     1       6.368  27.970  55.043  1.00  0.00     0.048 A 
HETATM    3  C   UNL     1       5.775  26.938  54.289  1.00  0.00     0.052 A 
HETATM    4  C   UNL     1       4.567  27.204  53.623  1.00  0.00     0.080 A 
HETATM    5  C   UNL     1       3.966  28.454  53.701  1.00  0.00     0.040 A 
HETATM    6  C   UNL     1       4.563  29.461  54.457  1.00  0.00     0.032 A 
ENDROOT
BRANCH   1   7
HETATM    7  N   UNL     1       6.248  30.290  55.929  1.00  0.00    -0.333 N 
HETATM    8  H   UNL     1       6.683  31.055  55.419  1.00  0.00     0.168 HD
BRANCH   7   9
HETATM    9  C   UNL     1       6.044  30.602  57.246  1.00  0.00     0.179 C 
HETATM   10  S   UNL     1       4.479  30.429  57.821  1.00  0.00    -0.040 SA
BRANCH   9  11
HETATM   11  N   UNL     1       7.110  31.122  57.940  1.00  0.00    -0.299 N 
HETATM   12  C   UNL     1       7.707  30.478  59.011  1.00  0.00     0.257 C 
HETATM   13  O   UNL     1       8.239  29.376  58.894  1.00  0.00    -0.267 OA
HETATM   14  H   UNL     1       7.084  32.128  57.953  1.00  0.00     0.171 HD
BRANCH  12  15
HETATM   15  C   UNL     1       7.794  31.195  60.321  1.00  0.00     0.032 A 
HETATM   16  C   UNL     1       8.813  30.792  61.199  1.00  0.00     0.020 A 
HETATM   17  C   UNL     1       8.940  31.358  62.471  1.00  0.00     0.038 A 
HETATM   18  C   UNL     1       8.051  32.343  62.888  1.00  0.00     0.068 A 
HETATM   19  C   UNL     1       7.039  32.756  62.016  1.00  0.00     0.038 A 
HETATM   20  C   UNL     1       6.901  32.185  60.741  1.00  0.00     0.020 A 
BRANCH  18  21
HETATM   21  O   UNL     1       8.060  32.969  64.105  1.00  0.00    -0.351 OA
BRANCH  21  22
HETATM   22  C   UNL     1       7.059  33.967  64.323  1.00  0.00     0.175 C 
BRANCH  22  23
HETATM   23  C   UNL     1       6.503  33.789  65.733  1.00  0.00     0.022 C 
HETATM   24  C   UNL     1       4.984  33.758  65.735  1.00  0.00     0.007 C 
ENDBRANCH  22  23
ENDBRANCH  21  22
ENDBRANCH  18  21
ENDBRANCH  12  15
ENDBRANCH   9  11
ENDBRANCH   7   9
ENDBRANCH   1   7
BRANCH   3  25
HETATM   25  C   UNL     1       6.369  25.605  54.221  1.00  0.00     0.183 A 
HETATM   26  O   UNL     1       6.563  24.933  55.401  1.00  0.00    -0.289 OA
HETATM   27  C   UNL     1       7.105  23.743  55.013  1.00  0.00     0.107 A 
HETATM   28  C   UNL     1       7.218  23.756  53.635  1.00  0.00     0.094 A 
HETATM   29  C   UNL     1       7.479  22.682  55.826  1.00  0.00     0.047 A 
HETATM   30  N   UNL     1       6.762  24.951  53.139  1.00  0.00    -0.221 NA
HETATM   31  C   UNL     1       7.739  22.629  52.987  1.00  0.00     0.041 A 
HETATM   32  C   UNL     1       8.138  21.519  53.764  1.00  0.00    -0.054 A 
HETATM   33  C   UNL     1       8.000  21.545  55.174  1.00  0.00    -0.053 A 
HETATM   34  C   UNL     1       8.659  20.299  53.049  1.00  0.00     0.049 C 
HETATM   35  C   UNL     1       8.414  20.365  56.016  1.00  0.00     0.049 C 
ENDBRANCH   3  25
BRANCH   4  36
HETATM   36  O   UNL     1       3.899  26.265  52.880  1.00  0.00    -0.360 OA
HETATM   37  H   UNL     1       3.997  25.391  53.316  1.00  0.00     0.217 HD
ENDBRANCH   4  36
TORSDOF 9
ENDMDL
MODEL 4
REMARK VINA RESULT:     -10.5      1.855      2.258
REMARK  9 active torsions:
REMARK  status: ('A' for Active; 'I' for Inactive)
REMARK    1  A    between atoms: C_2  and  C_3 
REMARK    2  A    between atoms: C_3  and  O_4 
REMARK    3  A    between atoms: O_4  and  C_5 
REMARK    4  A    between atoms: C_8  and  C_9 
REMARK       I    between atoms: C_9  and  N_10 
REMARK    5  A    between atoms: N_10  and  C_11 
REMARK    6  A    between atoms: C_11  and  N_12 
REMARK    7  A    between atoms: N_12  and  C_13 
REMARK    8  A    between atoms: C_15  and  C_16 
REMARK    9  A    between atoms: C_27  and  O_28 
ROOT
HETATM    1  C   UNL     1       6.115  29.266  55.516  1.00  0.00     0.035 A 
HETATM    2  C   UNL     1       6.642  27.983  55.322  1.00  0.00     0.048 A 
HETATM    3  C   UNL     1       5.948  27.022  54.559  1.00  0.00     0.052 A 
HETATM    4  C   UNL     1       4.712  27.380  53.997  1.00  0.00     0.080 A 
HETATM    5  C   UNL     1       4.180  28.650  54.183  1.00  0.00     0.040 A 
HETATM    6  C   UNL     1       4.876  29.585  54.946  1.00  0.00     0.032 A 
ENDROOT
BRANCH   1   7
HETATM    7  N   UNL     1       6.698  30.254  56.335  1.00  0.00    -0.333 N 
HETATM    8  H   UNL     1       6.557  31.211  56.021  1.00  0.00     0.168 HD
BRANCH   7   9
HETATM    9  C   UNL     1       7.229  30.198  57.595  1.00  0.00     0.179 C 
HETATM   10  S   UNL     1       8.730  29.468  57.741  1.00  0.00    -0.040 SA
BRANCH   9  11
HETATM   11  N   UNL     1       6.441  30.649  58.627  1.00  0.00    -0.299 N 
HETATM   12  C   UNL     1       6.368  31.980  59.002  1.00  0.00     0.257 C 
HETATM   13  O   UNL     1       5.968  32.852  58.233  1.00  0.00    -0.267 OA
HETATM   14  H   UNL     1       6.348  29.953  59.348  1.00  0.00     0.171 HD
BRANCH  12  15
HETATM   15  C   UNL     1       6.686  32.346  60.416  1.00  0.00     0.032 A 
HETATM   16  C   UNL     1       7.931  31.930  60.916  1.00  0.00     0.020 A 
HETATM   17  C   UNL     1       8.297  32.168  62.244  1.00  0.00     0.038 A 
HETATM   18  C   UNL     1       7.423  32.833  63.099  1.00  0.00     0.068 A 
HETATM   19  C   UNL     1       6.186  33.259  62.607  1.00  0.00     0.038 A 
HETATM   20  C   UNL     1       5.810  33.014  61.277  1.00  0.00     0.020 A 
BRANCH  18  21
HETATM   21  O   UNL     1       7.655  33.121  64.417  1.00  0.00    -0.351 OA
BRANCH  21  22
HETATM   22  C   UNL     1       6.513  33.442  65.215  1.00  0.00     0.175 C 
BRANCH  22  23
HETATM   23  C   UNL     1       6.993  34.164  66.471  1.00  0.00     0.022 C 
HETATM   24  C   UNL     1       5.842  34.472  67.414  1.00  0.00     0.007 C 
ENDBRANCH  22  23
ENDBRANCH  21  22
ENDBRANCH  18  21
ENDBRANCH  12  15
ENDBRANCH   9  11
ENDBRANCH   7   9
ENDBRANCH   1   7
BRANCH   3  25
HETATM   25  C   UNL     1       6.470  25.670  54.379  1.00  0.00     0.183 A 
HETATM   26  O   UNL     1       6.697  24.920  55.504  1.00  0.00    -0.289 OA
HETATM   27  C   UNL     1       7.155  23.731  55.016  1.00  0.00     0.107 A 
HETATM   28  C   UNL     1       7.191  23.822  53.637  1.00  0.00     0.094 A 
HETATM   29  C   UNL     1       7.522  22.606  55.743  1.00  0.00     0.047 A 
HETATM   30  N   UNL     1       6.767  25.066  53.239  1.00  0.00    -0.221 NA
HETATM   31  C   UNL     1       7.616  22.714  52.895  1.00  0.00     0.041 A 
HETATM   32  C   UNL     1       8.003  21.541  53.581  1.00  0.00    -0.054 A 
HETATM   33  C   UNL     1       7.947  21.488  54.996  1.00  0.00    -0.053 A 
HETATM   34  C   UNL     1       8.421  20.344  52.767  1.00  0.00     0.049 C 
HETATM   35  C   UNL     1       8.349  20.241  55.742  1.00  0.00     0.049 C 
ENDBRANCH   3  25
BRANCH   4  36
HETATM   36  O   UNL     1       3.948  26.515  53.256  1.00  0.00    -0.360 OA
HETATM   37  H   UNL     1       3.308  26.069  53.852  1.00  0.00     0.217 HD
ENDBRANCH   4  36
TORSDOF 9
ENDMDL
MODEL 5
REMARK VINA RESULT:     -10.3      2.146     11.767
REMARK  9 active torsions:
REMARK  status: ('A' for Active; 'I' for Inactive)
REMARK    1  A    between atoms: C_2  and  C_3 
REMARK    2  A    between atoms: C_3  and  O_4 
REMARK    3  A    between atoms: O_4  and  C_5 
REMARK    4  A    between atoms: C_8  and  C_9 
REMARK       I    between atoms: C_9  and  N_10 
REMARK    5  A    between atoms: N_10  and  C_11 
REMARK    6  A    between atoms: C_11  and  N_12 
REMARK    7  A    between atoms: N_12  and  C_13 
REMARK    8  A    between atoms: C_15  and  C_16 
REMARK    9  A    between atoms: C_27  and  O_28 
ROOT
HETATM    1  C   UNL     1       7.967  29.520  57.190  1.00  0.00     0.035 A 
HETATM    2  C   UNL     1       7.570  30.177  58.361  1.00  0.00     0.048 A 
HETATM    3  C   UNL     1       8.452  31.042  59.041  1.00  0.00     0.052 A 
HETATM    4  C   UNL     1       9.742  31.229  58.518  1.00  0.00     0.080 A 
HETATM    5  C   UNL     1      10.146  30.581  57.357  1.00  0.00     0.040 A 
HETATM    6  C   UNL     1       9.264  29.725  56.701  1.00  0.00     0.032 A 
ENDROOT
BRANCH   1   7
HETATM    7  N   UNL     1       7.183  28.574  56.500  1.00  0.00    -0.333 N 
HETATM    8  H   UNL     1       7.058  27.686  56.979  1.00  0.00     0.168 HD
BRANCH   7   9
HETATM    9  C   UNL     1       6.366  28.688  55.408  1.00  0.00     0.179 C 
HETATM   10  S   UNL     1       5.002  29.645  55.592  1.00  0.00    -0.040 SA
BRANCH   9  11
HETATM   11  N   UNL     1       6.683  27.930  54.306  1.00  0.00    -0.299 N 
HETATM   12  C   UNL     1       5.941  26.834  53.899  1.00  0.00     0.257 C 
HETATM   13  O   UNL     1       4.760  26.932  53.570  1.00  0.00    -0.267 OA
HETATM   14  H   UNL     1       7.677  27.907  54.149  1.00  0.00     0.171 HD
BRANCH  12  15
HETATM   15  C   UNL     1       6.629  25.514  53.758  1.00  0.00     0.032 A 
HETATM   16  C   UNL     1       7.347  25.295  52.571  1.00  0.00     0.020 A 
HETATM   17  C   UNL     1       7.974  24.072  52.316  1.00  0.00     0.038 A 
HETATM   18  C   UNL     1       7.898  23.043  53.250  1.00  0.00     0.068 A 
HETATM   19  C   UNL     1       7.194  23.255  54.438  1.00  0.00     0.038 A 
HETATM   20  C   UNL     1       6.555  24.478  54.695  1.00  0.00     0.020 A 
BRANCH  18  21
HETATM   21  O   UNL     1       8.458  21.800  53.120  1.00  0.00    -0.351 OA
BRANCH  21  22
HETATM   22  C   UNL     1       7.797  20.724  53.791  1.00  0.00     0.175 C 
BRANCH  22  23
HETATM   23  C   UNL     1       8.814  20.019  54.684  1.00  0.00     0.022 C 
HETATM   24  C   UNL     1       8.537  20.270  56.156  1.00  0.00     0.007 C 
ENDBRANCH  22  23
ENDBRANCH  21  22
ENDBRANCH  18  21
ENDBRANCH  12  15
ENDBRANCH   9  11
ENDBRANCH   7   9
ENDBRANCH   1   7
BRANCH   3  25
HETATM   25  C   UNL     1       8.062  31.705  60.282  1.00  0.00     0.183 A 
HETATM   26  O   UNL     1       7.007  32.578  60.234  1.00  0.00    -0.289 OA
HETATM   27  C   UNL     1       6.882  33.011  61.523  1.00  0.00     0.107 A 
HETATM   28  C   UNL     1       7.862  32.392  62.276  1.00  0.00     0.094 A 
HETATM   29  C   UNL     1       5.947  33.905  62.025  1.00  0.00     0.047 A 
HETATM   30  N   UNL     1       8.620  31.573  61.476  1.00  0.00    -0.221 NA
HETATM   31  C   UNL     1       7.935  32.662  63.647  1.00  0.00     0.041 A 
HETATM   32  C   UNL     1       7.009  33.565  64.215  1.00  0.00    -0.054 A 
HETATM   33  C   UNL     1       6.016  34.174  63.408  1.00  0.00    -0.053 A 
HETATM   34  C   UNL     1       7.076  33.815  65.700  1.00  0.00     0.049 C 
HETATM   35  C   UNL     1       5.016  35.134  64.000  1.00  0.00     0.049 C 
ENDBRANCH   3  25
BRANCH   4  36
HETATM   36  O   UNL     1      10.681  32.031  59.113  1.00  0.00    -0.360 OA
HETATM   37  H   UNL     1      11.428  31.471  59.416  1.00  0.00     0.217 HD
ENDBRANCH   4  36
TORSDOF 9
ENDMDL
MODEL 6
REMARK VINA RESULT:      -9.7      1.894     11.761
REMARK  9 active torsions:
REMARK  status: ('A' for Active; 'I' for Inactive)
REMARK    1  A    between atoms: C_2  and  C_3 
REMARK    2  A    between atoms: C_3  and  O_4 
REMARK    3  A    between atoms: O_4  and  C_5 
REMARK    4  A    between atoms: C_8  and  C_9 
REMARK       I    between atoms: C_9  and  N_10 
REMARK    5  A    between atoms: N_10  and  C_11 
REMARK    6  A    between atoms: C_11  and  N_12 
REMARK    7  A    between atoms: N_12  and  C_13 
REMARK    8  A    between atoms: C_15  and  C_16 
REMARK    9  A    between atoms: C_27  and  O_28 
ROOT
HETATM    1  C   UNL     1       7.443  30.687  59.153  1.00  0.00     0.035 A 
HETATM    2  C   UNL     1       7.332  31.119  60.480  1.00  0.00     0.048 A 
HETATM    3  C   UNL     1       6.494  32.199  60.823  1.00  0.00     0.052 A 
HETATM    4  C   UNL     1       5.771  32.836  59.802  1.00  0.00     0.080 A 
HETATM    5  C   UNL     1       5.874  32.415  58.482  1.00  0.00     0.040 A 
HETATM    6  C   UNL     1       6.713  31.350  58.159  1.00  0.00     0.032 A 
ENDROOT
BRANCH   1   7
HETATM    7  N   UNL     1       8.322  29.677  58.712  1.00  0.00    -0.333 N 
HETATM    8  H   UNL     1       8.310  28.824  59.265  1.00  0.00     0.168 HD
BRANCH   7   9
HETATM    9  C   UNL     1       9.031  29.528  57.552  1.00  0.00     0.179 C 
HETATM   10  S   UNL     1      10.385  30.500  57.373  1.00  0.00    -0.040 SA
BRANCH   9  11
HETATM   11  N   UNL     1       8.512  28.678  56.605  1.00  0.00    -0.299 N 
HETATM   12  C   UNL     1       7.538  27.734  56.884  1.00  0.00     0.257 C 
HETATM   13  O   UNL     1       6.425  28.050  57.301  1.00  0.00    -0.267 OA
HETATM   14  H   UNL     1       9.194  28.453  55.900  1.00  0.00     0.171 HD
BRANCH  12  15
HETATM   15  C   UNL     1       7.817  26.299  56.567  1.00  0.00     0.032 A 
HETATM   16  C   UNL     1       8.493  25.552  57.546  1.00  0.00     0.020 A 
HETATM   17  C   UNL     1       8.855  24.220  57.321  1.00  0.00     0.038 A 
HETATM   18  C   UNL     1       8.543  23.608  56.111  1.00  0.00     0.068 A 
HETATM   19  C   UNL     1       7.863  24.342  55.135  1.00  0.00     0.038 A 
HETATM   20  C   UNL     1       7.505  25.682  55.352  1.00  0.00     0.020 A 
BRANCH  18  21
HETATM   21  O   UNL     1       8.847  22.320  55.763  1.00  0.00    -0.351 OA
BRANCH  21  22
HETATM   22  C   UNL     1       7.807  21.560  55.142  1.00  0.00     0.175 C 
BRANCH  22  23
HETATM   23  C   UNL     1       8.450  20.431  54.341  1.00  0.00     0.022 C 
HETATM   24  C   UNL     1       8.114  20.532  52.862  1.00  0.00     0.007 C 
ENDBRANCH  22  23
ENDBRANCH  21  22
ENDBRANCH  18  21
ENDBRANCH  12  15
ENDBRANCH   9  11
ENDBRANCH   7   9
ENDBRANCH   1   7
BRANCH   3  25
HETATM   25  C   UNL     1       6.397  32.682  62.199  1.00  0.00     0.183 A 
HETATM   26  O   UNL     1       5.147  32.950  62.693  1.00  0.00    -0.289 OA
HETATM   27  C   UNL     1       5.384  33.358  63.974  1.00  0.00     0.107 A 
HETATM   28  C   UNL     1       6.749  33.325  64.185  1.00  0.00     0.094 A 
HETATM   29  C   UNL     1       4.447  33.738  64.925  1.00  0.00     0.047 A 
HETATM   30  N   UNL     1       7.390  32.908  63.045  1.00  0.00    -0.221 NA
HETATM   31  C   UNL     1       7.250  33.689  65.441  1.00  0.00     0.041 A 
HETATM   32  C   UNL     1       6.343  34.086  66.449  1.00  0.00    -0.054 A 
HETATM   33  C   UNL     1       4.949  34.100  66.192  1.00  0.00    -0.053 A 
HETATM   34  C   UNL     1       6.894  34.436  67.806  1.00  0.00     0.049 C 
HETATM   35  C   UNL     1       3.968  34.514  67.259  1.00  0.00     0.049 C 
ENDBRANCH   3  25
BRANCH   4  36
HETATM   36  O   UNL     1       4.945  33.907  60.025  1.00  0.00    -0.360 OA
HETATM   37  H   UNL     1       4.467  34.115  59.193  1.00  0.00     0.217 HD
ENDBRANCH   4  36
TORSDOF 9
ENDMDL
MODEL 7
REMARK VINA RESULT:      -9.4      2.945      4.248
REMARK  9 active torsions:
REMARK  status: ('A' for Active; 'I' for Inactive)
REMARK    1  A    between atoms: C_2  and  C_3 
REMARK    2  A    between atoms: C_3  and  O_4 
REMARK    3  A    between atoms: O_4  and  C_5 
REMARK    4  A    between atoms: C_8  and  C_9 
REMARK       I    between atoms: C_9  and  N_10 
REMARK    5  A    between atoms: N_10  and  C_11 
REMARK    6  A    between atoms: C_11  and  N_12 
REMARK    7  A    between atoms: N_12  and  C_13 
REMARK    8  A    between atoms: C_15  and  C_16 
REMARK    9  A    between atoms: C_27  and  O_28 
ROOT
HETATM    1  C   UNL     1       4.859  29.213  53.092  1.00  0.00     0.035 A 
HETATM    2  C   UNL     1       5.457  28.045  53.578  1.00  0.00     0.048 A 
HETATM    3  C   UNL     1       5.435  26.852  52.827  1.00  0.00     0.052 A 
HETATM    4  C   UNL     1       4.796  26.860  51.577  1.00  0.00     0.080 A 
HETATM    5  C   UNL     1       4.199  28.014  51.085  1.00  0.00     0.040 A 
HETATM    6  C   UNL     1       4.224  29.183  51.844  1.00  0.00     0.032 A 
ENDROOT
BRANCH   1   7
HETATM    7  N   UNL     1       4.757  30.419  53.814  1.00  0.00    -0.333 N 
HETATM    8  H   UNL     1       4.528  31.237  53.255  1.00  0.00     0.168 HD
BRANCH   7   9
HETATM    9  C   UNL     1       4.685  30.677  55.156  1.00  0.00     0.179 C 
HETATM   10  S   UNL     1       3.178  31.099  55.755  1.00  0.00    -0.040 SA
BRANCH   9  11
HETATM   11  N   UNL     1       5.866  30.668  55.860  1.00  0.00    -0.299 N 
HETATM   12  C   UNL     1       6.029  29.996  57.060  1.00  0.00     0.257 C 
HETATM   13  O   UNL     1       5.895  28.777  57.148  1.00  0.00    -0.267 OA
HETATM   14  H   UNL     1       6.378  31.524  55.729  1.00  0.00     0.171 HD
BRANCH  12  15
HETATM   15  C   UNL     1       6.485  30.767  58.258  1.00  0.00     0.032 A 
HETATM   16  C   UNL     1       5.542  31.611  58.867  1.00  0.00     0.020 A 
HETATM   17  C   UNL     1       5.887  32.419  59.954  1.00  0.00     0.038 A 
HETATM   18  C   UNL     1       7.185  32.396  60.456  1.00  0.00     0.068 A 
HETATM   19  C   UNL     1       8.127  31.552  59.861  1.00  0.00     0.038 A 
HETATM   20  C   UNL     1       7.788  30.745  58.764  1.00  0.00     0.020 A 
BRANCH  18  21
HETATM   21  O   UNL     1       7.652  33.141  61.505  1.00  0.00    -0.351 OA
BRANCH  21  22
HETATM   22  C   UNL     1       6.672  33.726  62.365  1.00  0.00     0.175 C 
BRANCH  22  23
HETATM   23  C   UNL     1       6.614  32.910  63.653  1.00  0.00     0.022 C 
HETATM   24  C   UNL     1       7.401  33.572  64.772  1.00  0.00     0.007 C 
ENDBRANCH  22  23
ENDBRANCH  21  22
ENDBRANCH  18  21
ENDBRANCH  12  15
ENDBRANCH   9  11
ENDBRANCH   7   9
ENDBRANCH   1   7
BRANCH   3  25
HETATM   25  C   UNL     1       6.025  25.618  53.339  1.00  0.00     0.183 A 
HETATM   26  O   UNL     1       6.565  24.745  52.431  1.00  0.00    -0.289 OA
HETATM   27  C   UNL     1       7.038  23.723  53.202  1.00  0.00     0.107 A 
HETATM   28  C   UNL     1       6.755  24.020  54.521  1.00  0.00     0.094 A 
HETATM   29  C   UNL     1       7.696  22.578  52.773  1.00  0.00     0.047 A 
HETATM   30  N   UNL     1       6.096  25.221  54.600  1.00  0.00    -0.221 NA
HETATM   31  C   UNL     1       7.156  23.123  55.519  1.00  0.00     0.041 A 
HETATM   32  C   UNL     1       7.829  21.940  55.142  1.00  0.00    -0.054 A 
HETATM   33  C   UNL     1       8.104  21.676  53.778  1.00  0.00    -0.053 A 
HETATM   34  C   UNL     1       8.289  21.004  56.231  1.00  0.00     0.049 C 
HETATM   35  C   UNL     1       8.829  20.422  53.360  1.00  0.00     0.049 C 
ENDBRANCH   3  25
BRANCH   4  36
HETATM   36  O   UNL     1       4.701  25.751  50.777  1.00  0.00    -0.360 OA
HETATM   37  H   UNL     1       4.116  25.959  50.017  1.00  0.00     0.217 HD
ENDBRANCH   4  36
TORSDOF 9
ENDMDL
MODEL 8
REMARK VINA RESULT:      -9.4      2.297      2.975
REMARK  9 active torsions:
REMARK  status: ('A' for Active; 'I' for Inactive)
REMARK    1  A    between atoms: C_2  and  C_3 
REMARK    2  A    between atoms: C_3  and  O_4 
REMARK    3  A    between atoms: O_4  and  C_5 
REMARK    4  A    between atoms: C_8  and  C_9 
REMARK       I    between atoms: C_9  and  N_10 
REMARK    5  A    between atoms: N_10  and  C_11 
REMARK    6  A    between atoms: C_11  and  N_12 
REMARK    7  A    between atoms: N_12  and  C_13 
REMARK    8  A    between atoms: C_15  and  C_16 
REMARK    9  A    between atoms: C_27  and  O_28 
ROOT
HETATM    1  C   UNL     1       5.565  29.330  55.155  1.00  0.00     0.035 A 
HETATM    2  C   UNL     1       6.140  28.056  55.230  1.00  0.00     0.048 A 
HETATM    3  C   UNL     1       5.633  26.985  54.467  1.00  0.00     0.052 A 
HETATM    4  C   UNL     1       4.532  27.223  53.628  1.00  0.00     0.080 A 
HETATM    5  C   UNL     1       3.953  28.483  53.546  1.00  0.00     0.040 A 
HETATM    6  C   UNL     1       4.463  29.529  54.313  1.00  0.00     0.032 A 
ENDROOT
BRANCH   1   7
HETATM    7  N   UNL     1       5.951  30.430  55.946  1.00  0.00    -0.333 N 
HETATM    8  H   UNL     1       6.570  31.094  55.487  1.00  0.00     0.168 HD
BRANCH   7   9
HETATM    9  C   UNL     1       5.483  30.905  57.140  1.00  0.00     0.179 C 
HETATM   10  S   UNL     1       3.886  30.553  57.509  1.00  0.00    -0.040 SA
BRANCH   9  11
HETATM   11  N   UNL     1       6.326  31.708  57.870  1.00  0.00    -0.299 N 
HETATM   12  C   UNL     1       6.955  31.292  59.032  1.00  0.00     0.257 C 
HETATM   13  O   UNL     1       7.742  30.347  59.044  1.00  0.00    -0.267 OA
HETATM   14  H   UNL     1       6.061  32.677  57.802  1.00  0.00     0.171 HD
BRANCH  12  15
HETATM   15  C   UNL     1       6.747  32.084  60.283  1.00  0.00     0.032 A 
HETATM   16  C   UNL     1       5.492  32.692  60.449  1.00  0.00     0.020 A 
HETATM   17  C   UNL     1       5.220  33.504  61.555  1.00  0.00     0.038 A 
HETATM   18  C   UNL     1       6.200  33.720  62.519  1.00  0.00     0.068 A 
HETATM   19  C   UNL     1       7.448  33.111  62.366  1.00  0.00     0.038 A 
HETATM   20  C   UNL     1       7.730  32.302  61.254  1.00  0.00     0.020 A 
BRANCH  18  21
HETATM   21  O   UNL     1       6.065  34.495  63.639  1.00  0.00    -0.351 OA
BRANCH  21  22
HETATM   22  C   UNL     1       5.188  35.620  63.541  1.00  0.00     0.175 C 
BRANCH  22  23
HETATM   23  C   UNL     1       5.967  36.785  62.938  1.00  0.00     0.022 C 
HETATM   24  C   UNL     1       5.315  38.120  63.260  1.00  0.00     0.007 C 
ENDBRANCH  22  23
ENDBRANCH  21  22
ENDBRANCH  18  21
ENDBRANCH  12  15
ENDBRANCH   9  11
ENDBRANCH   7   9
ENDBRANCH   1   7
BRANCH   3  25
HETATM   25  C   UNL     1       6.202  25.643  54.564  1.00  0.00     0.183 A 
HETATM   26  O   UNL     1       6.502  24.992  53.396  1.00  0.00    -0.289 OA
HETATM   27  C   UNL     1       7.018  23.799  53.810  1.00  0.00     0.107 A 
HETATM   28  C   UNL     1       6.998  23.784  55.192  1.00  0.00     0.094 A 
HETATM   29  C   UNL     1       7.496  22.765  53.016  1.00  0.00     0.047 A 
HETATM   30  N   UNL     1       6.462  24.956  55.665  1.00  0.00    -0.221 NA
HETATM   31  C   UNL     1       7.495  22.662  55.865  1.00  0.00     0.041 A 
HETATM   32  C   UNL     1       7.994  21.577  55.109  1.00  0.00    -0.054 A 
HETATM   33  C   UNL     1       8.001  21.636  53.693  1.00  0.00    -0.053 A 
HETATM   34  C   UNL     1       8.562  20.394  55.849  1.00  0.00     0.049 C 
HETATM   35  C   UNL     1       8.538  20.491  52.872  1.00  0.00     0.049 C 
ENDBRANCH   3  25
BRANCH   4  36
HETATM   36  O   UNL     1       3.951  26.247  52.861  1.00  0.00    -0.360 OA
HETATM   37  H   UNL     1       3.005  26.168  53.114  1.00  0.00     0.217 HD
ENDBRANCH   4  36
TORSDOF 9
ENDMDL
MODEL 9
REMARK VINA RESULT:      -9.1      2.551      3.271
REMARK  9 active torsions:
REMARK  status: ('A' for Active; 'I' for Inactive)
REMARK    1  A    between atoms: C_2  and  C_3 
REMARK    2  A    between atoms: C_3  and  O_4 
REMARK    3  A    between atoms: O_4  and  C_5 
REMARK    4  A    between atoms: C_8  and  C_9 
REMARK       I    between atoms: C_9  and  N_10 
REMARK    5  A    between atoms: N_10  and  C_11 
REMARK    6  A    between atoms: C_11  and  N_12 
REMARK    7  A    between atoms: N_12  and  C_13 
REMARK    8  A    between atoms: C_15  and  C_16 
REMARK    9  A    between atoms: C_27  and  O_28 
ROOT
HETATM    1  C   UNL     1       5.390  29.166  57.388  1.00  0.00     0.035 A 
HETATM    2  C   UNL     1       5.622  27.884  56.877  1.00  0.00     0.048 A 
HETATM    3  C   UNL     1       6.925  27.350  56.824  1.00  0.00     0.052 A 
HETATM    4  C   UNL     1       7.990  28.134  57.295  1.00  0.00     0.080 A 
HETATM    5  C   UNL     1       7.771  29.408  57.805  1.00  0.00     0.040 A 
HETATM    6  C   UNL     1       6.476  29.924  57.843  1.00  0.00     0.032 A 
ENDROOT
BRANCH   1   7
HETATM    7  N   UNL     1       4.135  29.809  57.396  1.00  0.00    -0.333 N 
HETATM    8  H   UNL     1       3.465  29.437  58.064  1.00  0.00     0.168 HD
BRANCH   7   9
HETATM    9  C   UNL     1       3.708  30.983  56.839  1.00  0.00     0.179 C 
HETATM   10  S   UNL     1       3.628  31.031  55.165  1.00  0.00    -0.040 SA
BRANCH   9  11
HETATM   11  N   UNL     1       3.487  32.038  57.692  1.00  0.00    -0.299 N 
HETATM   12  C   UNL     1       4.508  32.734  58.319  1.00  0.00     0.257 C 
HETATM   13  O   UNL     1       5.365  33.346  57.684  1.00  0.00    -0.267 OA
HETATM   14  H   UNL     1       2.618  31.933  58.188  1.00  0.00     0.171 HD
BRANCH  12  15
HETATM   15  C   UNL     1       4.500  32.829  59.812  1.00  0.00     0.032 A 
HETATM   16  C   UNL     1       3.261  33.071  60.427  1.00  0.00     0.020 A 
HETATM   17  C   UNL     1       3.159  33.237  61.811  1.00  0.00     0.038 A 
HETATM   18  C   UNL     1       4.297  33.159  62.609  1.00  0.00     0.068 A 
HETATM   19  C   UNL     1       5.532  32.909  62.005  1.00  0.00     0.038 A 
HETATM   20  C   UNL     1       5.642  32.750  60.615  1.00  0.00     0.020 A 
BRANCH  18  21
HETATM   21  O   UNL     1       4.335  33.310  63.969  1.00  0.00    -0.351 OA
BRANCH  21  22
HETATM   22  C   UNL     1       3.572  34.387  64.517  1.00  0.00     0.175 C 
BRANCH  22  23
HETATM   23  C   UNL     1       4.151  35.700  63.996  1.00  0.00     0.022 C 
HETATM   24  C   UNL     1       4.655  36.578  65.129  1.00  0.00     0.007 C 
ENDBRANCH  22  23
ENDBRANCH  21  22
ENDBRANCH  18  21
ENDBRANCH  12  15
ENDBRANCH   9  11
ENDBRANCH   7   9
ENDBRANCH   1   7
BRANCH   3  25
HETATM   25  C   UNL     1       7.185  26.028  56.259  1.00  0.00     0.183 A 
HETATM   26  O   UNL     1       7.702  25.069  57.091  1.00  0.00    -0.289 OA
HETATM   27  C   UNL     1       7.814  23.969  56.292  1.00  0.00     0.107 A 
HETATM   28  C   UNL     1       7.373  24.314  55.029  1.00  0.00     0.094 A 
HETATM   29  C   UNL     1       8.276  22.710  56.650  1.00  0.00     0.047 A 
HETATM   30  N   UNL     1       6.988  25.632  55.011  1.00  0.00    -0.221 NA
HETATM   31  C   UNL     1       7.374  23.343  54.021  1.00  0.00     0.041 A 
HETATM   32  C   UNL     1       7.835  22.043  54.327  1.00  0.00    -0.054 A 
HETATM   33  C   UNL     1       8.274  21.729  55.637  1.00  0.00    -0.053 A 
HETATM   34  C   UNL     1       7.793  20.998  53.242  1.00  0.00     0.049 C 
HETATM   35  C   UNL     1       8.761  20.344  55.982  1.00  0.00     0.049 C 
ENDBRANCH   3  25
BRANCH   4  36
HETATM   36  O   UNL     1       9.296  27.717  57.270  1.00  0.00    -0.360 OA
HETATM   37  H   UNL     1       9.693  27.871  58.154  1.00  0.00     0.217 HD
ENDBRANCH   4  36
TORSDOF 9
ENDMDL
MODEL 10
REMARK VINA RESULT:      -9.1      6.585     11.168
REMARK  9 active torsions:
REMARK  status: ('A' for Active; 'I' for Inactive)
REMARK    1  A    between atoms: C_2  and  C_3 
REMARK    2  A    between atoms: C_3  and  O_4 
REMARK    3  A    between atoms: O_4  and  C_5 
REMARK    4  A    between atoms: C_8  and  C_9 
REMARK       I    between atoms: C_9  and  N_10 
REMARK    5  A    between atoms: N_10  and  C_11 
REMARK    6  A    between atoms: C_11  and  N_12 
REMARK    7  A    between atoms: N_12  and  C_13 
REMARK    8  A    between atoms: C_15  and  C_16 
REMARK    9  A    between atoms: C_27  and  O_28 
ROOT
HETATM    1  C   UNL     1       5.234  28.852  53.119  1.00  0.00     0.035 A 
HETATM    2  C   UNL     1       5.787  27.570  53.227  1.00  0.00     0.048 A 
HETATM    3  C   UNL     1       5.582  26.787  54.380  1.00  0.00     0.052 A 
HETATM    4  C   UNL     1       4.810  27.321  55.424  1.00  0.00     0.080 A 
HETATM    5  C   UNL     1       4.256  28.592  55.328  1.00  0.00     0.040 A 
HETATM    6  C   UNL     1       4.475  29.356  54.183  1.00  0.00     0.032 A 
ENDROOT
BRANCH   1   7
HETATM    7  N   UNL     1       5.462  29.733  52.044  1.00  0.00    -0.333 N 
HETATM    8  H   UNL     1       6.408  30.102  51.982  1.00  0.00     0.168 HD
BRANCH   7   9
HETATM    9  C   UNL     1       4.725  30.022  50.928  1.00  0.00     0.179 C 
HETATM   10  S   UNL     1       5.075  31.467  50.154  1.00  0.00    -0.040 SA
BRANCH   9  11
HETATM   11  N   UNL     1       3.705  29.158  50.610  1.00  0.00    -0.299 N 
HETATM   12  C   UNL     1       3.764  28.270  49.548  1.00  0.00     0.257 C 
HETATM   13  O   UNL     1       4.617  27.386  49.486  1.00  0.00    -0.267 OA
HETATM   14  H   UNL     1       2.807  29.547  50.845  1.00  0.00     0.171 HD
BRANCH  12  15
HETATM   15  C   UNL     1       2.695  28.326  48.505  1.00  0.00     0.032 A 
HETATM   16  C   UNL     1       1.883  27.189  48.365  1.00  0.00     0.020 A 
HETATM   17  C   UNL     1       0.895  27.119  47.377  1.00  0.00     0.038 A 
HETATM   18  C   UNL     1       0.699  28.191  46.512  1.00  0.00     0.068 A 
HETATM   19  C   UNL     1       1.497  29.330  46.650  1.00  0.00     0.038 A 
HETATM   20  C   UNL     1       2.495  29.402  47.634  1.00  0.00     0.020 A 
BRANCH  18  21
HETATM   21  O   UNL     1      -0.224  28.246  45.502  1.00  0.00    -0.351 OA
BRANCH  21  22
HETATM   22  C   UNL     1      -0.896  29.494  45.313  1.00  0.00     0.175 C 
BRANCH  22  23
HETATM   23  C   UNL     1      -2.207  29.455  46.094  1.00  0.00     0.022 C 
HETATM   24  C   UNL     1      -2.673  30.850  46.475  1.00  0.00     0.007 C 
ENDBRANCH  22  23
ENDBRANCH  21  22
ENDBRANCH  18  21
ENDBRANCH  12  15
ENDBRANCH   9  11
ENDBRANCH   7   9
ENDBRANCH   1   7
BRANCH   3  25
HETATM   25  C   UNL     1       6.183  25.463  54.520  1.00  0.00     0.183 A 
HETATM   26  O   UNL     1       6.507  24.786  53.372  1.00  0.00    -0.289 OA
HETATM   27  C   UNL     1       7.050  23.619  53.824  1.00  0.00     0.107 A 
HETATM   28  C   UNL     1       7.020  23.643  55.206  1.00  0.00     0.094 A 
HETATM   29  C   UNL     1       7.558  22.575  53.064  1.00  0.00     0.047 A 
HETATM   30  N   UNL     1       6.453  24.814  55.642  1.00  0.00    -0.221 NA
HETATM   31  C   UNL     1       7.541  22.553  55.914  1.00  0.00     0.041 A 
HETATM   32  C   UNL     1       8.071  21.460  55.193  1.00  0.00    -0.054 A 
HETATM   33  C   UNL     1       8.087  21.478  53.776  1.00  0.00    -0.053 A 
HETATM   34  C   UNL     1       8.663  20.313  55.970  1.00  0.00     0.049 C 
HETATM   35  C   UNL     1       8.656  20.324  52.992  1.00  0.00     0.049 C 
ENDBRANCH   3  25
BRANCH   4  36
HETATM   36  O   UNL     1       4.567  26.651  56.595  1.00  0.00    -0.360 OA
HETATM   37  H   UNL     1       5.378  26.161  56.852  1.00  0.00     0.217 HD
ENDBRANCH   4  36
TORSDOF 9
ENDMDL
