MODEL 1
REMARK VINA RESULT:     -10.1      0.000      0.000
REMARK  4 active torsions:
REMARK  status: ('A' for Active; 'I' for Inactive)
REMARK    1  A    between atoms: O_2  and  C_3 
REMARK    2  A    between atoms: C_3  and  C_4 
REMARK    3  A    between atoms: N_11  and  C_13 
REMARK    4  A    between atoms: C_13  and  C_14 
ROOT
HETATM    1  C   UNL     1       6.843  26.243  56.065  1.00  0.00     0.290 C 
HETATM    2  N   UNL     1       6.884  26.525  54.515  1.00  0.00    -0.047 N 
HETATM    3  H   UNL     1       7.869  26.765  54.339  1.00  0.00     0.279 HD
HETATM    4  H   UNL     1       6.323  27.378  54.394  1.00  0.00     0.279 HD
HETATM    5  C   UNL     1       6.479  25.384  53.574  1.00  0.00     0.172 C 
HETATM    6  C   UNL     1       4.952  25.228  53.432  1.00  0.00     0.073 C 
HETATM    7  C   UNL     1       4.263  26.406  52.760  1.00  0.00     0.238 C 
HETATM    8  N   UNL     1       4.893  26.650  51.409  1.00  0.00    -0.067 N 
HETATM    9  H   UNL     1       4.680  25.836  50.813  1.00  0.00     0.280 HD
HETATM   10  C   UNL     1       6.382  26.852  51.463  1.00  0.00     0.238 C 
HETATM   11  C   UNL     1       7.066  25.691  52.177  1.00  0.00     0.073 C 
HETATM   12  C   UNL     1       7.066  24.125  54.145  1.00  0.00     0.053 A 
HETATM   13  C   UNL     1       7.596  23.951  55.412  1.00  0.00    -0.018 A 
HETATM   14  C   UNL     1       7.714  25.036  56.422  1.00  0.00     0.085 C 
HETATM   15  N   UNL     1       7.130  22.904  53.510  1.00  0.00    -0.356 N 
HETATM   16  H   UNL     1       6.812  22.673  52.577  1.00  0.00     0.166 HD
HETATM   17  C   UNL     1       7.708  21.967  54.336  1.00  0.00     0.043 A 
HETATM   18  C   UNL     1       8.013  22.598  55.539  1.00  0.00    -0.001 A 
HETATM   19  C   UNL     1       7.981  20.614  54.104  1.00  0.00     0.030 A 
HETATM   20  C   UNL     1       8.585  19.889  55.135  1.00  0.00     0.002 A 
HETATM   21  C   UNL     1       8.902  20.494  56.348  1.00  0.00     0.001 A 
HETATM   22  C   UNL     1       8.623  21.849  56.564  1.00  0.00     0.014 A 
ENDROOT
BRANCH   1  23
HETATM   23  C   UNL     1       5.405  26.234  56.575  1.00  0.00     0.289 C 
HETATM   24  O   UNL     1       4.923  25.201  57.039  1.00  0.00    -0.263 OA
BRANCH  23  25
HETATM   25  O   UNL     1       4.767  27.407  56.396  1.00  0.00    -0.325 OA
HETATM   26  C   UNL     1       5.318  28.521  57.110  1.00  0.00     0.213 C 
ENDBRANCH  23  25
ENDBRANCH   1  23
BRANCH   8  27
HETATM   27  C   UNL     1       4.224  27.814  50.655  1.00  0.00     0.273 C 
BRANCH  27  28
HETATM   28  C   UNL     1       3.522  27.392  49.398  1.00  0.00    -0.033 A 
HETATM   29  C   UNL     1       2.414  28.116  48.930  1.00  0.00     0.009 A 
HETATM   30  C   UNL     1       1.743  27.716  47.775  1.00  0.00     0.001 A 
HETATM   31  C   UNL     1       2.171  26.590  47.075  1.00  0.00     0.000 A 
HETATM   32  C   UNL     1       3.275  25.869  47.523  1.00  0.00     0.001 A 
HETATM   33  C   UNL     1       3.951  26.266  48.677  1.00  0.00     0.009 A 
ENDBRANCH  27  28
ENDBRANCH   8  27
TORSDOF 4
ENDMDL
MODEL 2
REMARK VINA RESULT:     -10.1      3.874      7.924
REMARK  4 active torsions:
REMARK  status: ('A' for Active; 'I' for Inactive)
REMARK    1  A    between atoms: O_2  and  C_3 
REMARK    2  A    between atoms: C_3  and  C_4 
REMARK    3  A    between atoms: N_11  and  C_13 
REMARK    4  A    between atoms: C_13  and  C_14 
ROOT
HETATM    1  C   UNL     1       4.963  31.570  56.820  1.00  0.00     0.290 C 
HETATM    2  N   UNL     1       5.909  30.584  56.035  1.00  0.00    -0.047 N 
HETATM    3  H   UNL     1       6.593  31.209  55.588  1.00  0.00     0.279 HD
HETATM    4  H   UNL     1       5.312  30.187  55.298  1.00  0.00     0.279 HD
HETATM    5  C   UNL     1       6.666  29.526  56.848  1.00  0.00     0.172 C 
HETATM    6  C   UNL     1       5.801  28.301  57.203  1.00  0.00     0.073 C 
HETATM    7  C   UNL     1       5.365  27.475  56.002  1.00  0.00     0.238 C 
HETATM    8  N   UNL     1       6.584  27.048  55.218  1.00  0.00    -0.067 N 
HETATM    9  H   UNL     1       7.125  26.399  55.810  1.00  0.00     0.280 HD
HETATM   10  C   UNL     1       7.465  28.192  54.798  1.00  0.00     0.238 C 
HETATM   11  C   UNL     1       7.864  29.044  55.998  1.00  0.00     0.073 C 
HETATM   12  C   UNL     1       7.129  30.201  58.108  1.00  0.00     0.053 A 
HETATM   13  C   UNL     1       6.710  31.425  58.602  1.00  0.00    -0.018 A 
HETATM   14  C   UNL     1       5.737  32.313  57.913  1.00  0.00     0.085 C 
HETATM   15  N   UNL     1       8.024  29.684  59.018  1.00  0.00    -0.356 N 
HETATM   16  H   UNL     1       8.508  28.795  58.974  1.00  0.00     0.166 HD
HETATM   17  C   UNL     1       8.199  30.559  60.065  1.00  0.00     0.043 A 
HETATM   18  C   UNL     1       7.385  31.665  59.829  1.00  0.00    -0.001 A 
HETATM   19  C   UNL     1       9.014  30.451  61.197  1.00  0.00     0.030 A 
HETATM   20  C   UNL     1       8.996  31.508  62.111  1.00  0.00     0.002 A 
HETATM   21  C   UNL     1       8.194  32.626  61.901  1.00  0.00     0.001 A 
HETATM   22  C   UNL     1       7.383  32.719  60.763  1.00  0.00     0.014 A 
ENDROOT
BRANCH   1  23
HETATM   23  C   UNL     1       3.676  30.866  57.240  1.00  0.00     0.289 C 
HETATM   24  O   UNL     1       3.476  30.608  58.426  1.00  0.00    -0.263 OA
BRANCH  23  25
HETATM   25  O   UNL     1       2.886  30.533  56.202  1.00  0.00    -0.325 OA
HETATM   26  C   UNL     1       2.432  31.630  55.398  1.00  0.00     0.213 C 
ENDBRANCH  23  25
ENDBRANCH   1  23
BRANCH   8  27
HETATM   27  C   UNL     1       6.221  26.180  54.000  1.00  0.00     0.273 C 
BRANCH  27  28
HETATM   28  C   UNL     1       6.827  24.807  54.037  1.00  0.00    -0.033 A 
HETATM   29  C   UNL     1       6.894  24.098  55.246  1.00  0.00     0.009 A 
HETATM   30  C   UNL     1       7.477  22.831  55.292  1.00  0.00     0.001 A 
HETATM   31  C   UNL     1       7.998  22.261  54.133  1.00  0.00     0.000 A 
HETATM   32  C   UNL     1       7.928  22.951  52.925  1.00  0.00     0.001 A 
HETATM   33  C   UNL     1       7.344  24.217  52.873  1.00  0.00     0.009 A 
ENDBRANCH  27  28
ENDBRANCH   8  27
TORSDOF 4
ENDMDL
MODEL 3
REMARK VINA RESULT:      -9.9      2.931      7.162
REMARK  4 active torsions:
REMARK  status: ('A' for Active; 'I' for Inactive)
REMARK    1  A    between atoms: O_2  and  C_3 
REMARK    2  A    between atoms: C_3  and  C_4 
REMARK    3  A    between atoms: N_11  and  C_13 
REMARK    4  A    between atoms: C_13  and  C_14 
ROOT
HETATM    1  C   UNL     1       4.846  26.286  53.174  1.00  0.00     0.290 C 
HETATM    2  N   UNL     1       4.946  26.772  54.669  1.00  0.00    -0.047 N 
HETATM    3  H   UNL     1       4.255  26.188  55.161  1.00  0.00     0.279 HD
HETATM    4  H   UNL     1       4.591  27.736  54.651  1.00  0.00     0.279 HD
HETATM    5  C   UNL     1       6.301  26.629  55.375  1.00  0.00     0.172 C 
HETATM    6  C   UNL     1       7.292  27.754  55.017  1.00  0.00     0.073 C 
HETATM    7  C   UNL     1       6.868  29.135  55.497  1.00  0.00     0.238 C 
HETATM    8  N   UNL     1       6.632  29.097  56.988  1.00  0.00    -0.067 N 
HETATM    9  H   UNL     1       7.540  28.919  57.444  1.00  0.00     0.280 HD
HETATM   10  C   UNL     1       5.645  28.048  57.419  1.00  0.00     0.238 C 
HETATM   11  C   UNL     1       6.048  26.672  56.899  1.00  0.00     0.073 C 
HETATM   12  C   UNL     1       6.868  25.303  54.954  1.00  0.00     0.053 A 
HETATM   13  C   UNL     1       6.433  24.501  53.913  1.00  0.00    -0.018 A 
HETATM   14  C   UNL     1       5.265  24.818  53.049  1.00  0.00     0.085 C 
HETATM   15  N   UNL     1       7.962  24.679  55.513  1.00  0.00    -0.356 N 
HETATM   16  H   UNL     1       8.532  25.003  56.285  1.00  0.00     0.166 HD
HETATM   17  C   UNL     1       8.216  23.492  54.866  1.00  0.00     0.043 A 
HETATM   18  C   UNL     1       7.268  23.353  53.855  1.00  0.00    -0.001 A 
HETATM   19  C   UNL     1       9.212  22.538  55.102  1.00  0.00     0.030 A 
HETATM   20  C   UNL     1       9.235  21.408  54.280  1.00  0.00     0.002 A 
HETATM   21  C   UNL     1       8.299  21.242  53.262  1.00  0.00     0.001 A 
HETATM   22  C   UNL     1       7.310  22.206  53.039  1.00  0.00     0.014 A 
ENDROOT
BRANCH   1  23
HETATM   23  C   UNL     1       5.522  27.281  52.236  1.00  0.00     0.289 C 
HETATM   24  O   UNL     1       6.363  26.889  51.426  1.00  0.00    -0.263 OA
BRANCH  23  25
HETATM   25  O   UNL     1       5.148  28.556  52.449  1.00  0.00    -0.325 OA
HETATM   26  C   UNL     1       5.253  29.426  51.314  1.00  0.00     0.213 C 
ENDBRANCH  23  25
ENDBRANCH   1  23
BRANCH   8  27
HETATM   27  C   UNL     1       6.228  30.472  57.551  1.00  0.00     0.273 C 
BRANCH  27  28
HETATM   28  C   UNL     1       7.242  31.060  58.489  1.00  0.00    -0.033 A 
HETATM   29  C   UNL     1       8.591  30.685  58.395  1.00  0.00     0.009 A 
HETATM   30  C   UNL     1       9.535  31.210  59.278  1.00  0.00     0.001 A 
HETATM   31  C   UNL     1       9.141  32.113  60.262  1.00  0.00     0.000 A 
HETATM   32  C   UNL     1       7.807  32.501  60.359  1.00  0.00     0.001 A 
HETATM   33  C   UNL     1       6.859  31.980  59.477  1.00  0.00     0.009 A 
ENDBRANCH  27  28
ENDBRANCH   8  27
TORSDOF 4
ENDMDL
MODEL 4
REMARK VINA RESULT:      -9.2      2.584      7.705
REMARK  4 active torsions:
REMARK  status: ('A' for Active; 'I' for Inactive)
REMARK    1  A    between atoms: O_2  and  C_3 
REMARK    2  A    between atoms: C_3  and  C_4 
REMARK    3  A    between atoms: N_11  and  C_13 
REMARK    4  A    between atoms: C_13  and  C_14 
ROOT
HETATM    1  C   UNL     1       4.098  29.222  55.384  1.00  0.00     0.290 C 
HETATM    2  N   UNL     1       4.327  27.716  54.982  1.00  0.00    -0.047 N 
HETATM    3  H   UNL     1       3.399  27.405  54.664  1.00  0.00     0.279 HD
HETATM    4  H   UNL     1       4.536  27.241  55.869  1.00  0.00     0.279 HD
HETATM    5  C   UNL     1       5.348  27.423  53.875  1.00  0.00     0.172 C 
HETATM    6  C   UNL     1       6.806  27.438  54.375  1.00  0.00     0.073 C 
HETATM    7  C   UNL     1       7.138  26.331  55.364  1.00  0.00     0.238 C 
HETATM    8  N   UNL     1       6.807  24.992  54.747  1.00  0.00    -0.067 N 
HETATM    9  H   UNL     1       7.450  24.846  53.953  1.00  0.00     0.280 HD
HETATM   10  C   UNL     1       5.387  24.881  54.266  1.00  0.00     0.238 C 
HETATM   11  C   UNL     1       5.044  26.017  53.309  1.00  0.00     0.073 C 
HETATM   12  C   UNL     1       5.162  28.483  52.826  1.00  0.00     0.053 A 
HETATM   13  C   UNL     1       4.449  29.663  52.949  1.00  0.00    -0.018 A 
HETATM   14  C   UNL     1       3.690  30.055  54.166  1.00  0.00     0.085 C 
HETATM   15  N   UNL     1       5.721  28.479  51.566  1.00  0.00    -0.356 N 
HETATM   16  H   UNL     1       6.317  27.771  51.156  1.00  0.00     0.166 HD
HETATM   17  C   UNL     1       5.360  29.616  50.881  1.00  0.00     0.043 A 
HETATM   18  C   UNL     1       4.558  30.379  51.726  1.00  0.00    -0.001 A 
HETATM   19  C   UNL     1       5.684  30.020  49.581  1.00  0.00     0.030 A 
HETATM   20  C   UNL     1       5.170  31.241  49.136  1.00  0.00     0.002 A 
HETATM   21  C   UNL     1       4.366  32.024  49.958  1.00  0.00     0.001 A 
HETATM   22  C   UNL     1       4.050  31.606  51.256  1.00  0.00     0.014 A 
ENDROOT
BRANCH   1  23
HETATM   23  C   UNL     1       5.263  29.742  56.220  1.00  0.00     0.289 C 
HETATM   24  O   UNL     1       5.807  30.805  55.922  1.00  0.00    -0.263 OA
BRANCH  23  25
HETATM   25  O   UNL     1       5.627  28.905  57.210  1.00  0.00    -0.325 OA
HETATM   26  C   UNL     1       6.903  29.175  57.806  1.00  0.00     0.213 C 
ENDBRANCH  23  25
ENDBRANCH   1  23
BRANCH   8  27
HETATM   27  C   UNL     1       7.147  23.818  55.684  1.00  0.00     0.273 C 
BRANCH  27  28
HETATM   28  C   UNL     1       7.609  22.586  54.961  1.00  0.00    -0.033 A 
HETATM   29  C   UNL     1       7.837  22.624  53.577  1.00  0.00     0.009 A 
HETATM   30  C   UNL     1       8.244  21.477  52.895  1.00  0.00     0.001 A 
HETATM   31  C   UNL     1       8.429  20.283  53.588  1.00  0.00     0.000 A 
HETATM   32  C   UNL     1       8.216  20.236  54.964  1.00  0.00     0.001 A 
HETATM   33  C   UNL     1       7.811  21.380  55.651  1.00  0.00     0.009 A 
ENDBRANCH  27  28
ENDBRANCH   8  27
TORSDOF 4
ENDMDL
MODEL 5
REMARK VINA RESULT:      -8.9      3.889      7.931
REMARK  4 active torsions:
REMARK  status: ('A' for Active; 'I' for Inactive)
REMARK    1  A    between atoms: O_2  and  C_3 
REMARK    2  A    between atoms: C_3  and  C_4 
REMARK    3  A    between atoms: N_11  and  C_13 
REMARK    4  A    between atoms: C_13  and  C_14 
ROOT
HETATM    1  C   UNL     1       7.537  29.538  57.643  1.00  0.00     0.290 C 
HETATM    2  N   UNL     1       6.860  28.115  57.634  1.00  0.00    -0.047 N 
HETATM    3  H   UNL     1       6.145  28.182  58.371  1.00  0.00     0.279 HD
HETATM    4  H   UNL     1       7.597  27.477  57.964  1.00  0.00     0.279 HD
HETATM    5  C   UNL     1       6.187  27.655  56.335  1.00  0.00     0.172 C 
HETATM    6  C   UNL     1       7.184  27.108  55.296  1.00  0.00     0.073 C 
HETATM    7  C   UNL     1       7.886  25.826  55.718  1.00  0.00     0.238 C 
HETATM    8  N   UNL     1       6.854  24.777  56.057  1.00  0.00    -0.067 N 
HETATM    9  H   UNL     1       6.354  24.538  55.187  1.00  0.00     0.280 HD
HETATM   10  C   UNL     1       5.861  25.219  57.096  1.00  0.00     0.238 C 
HETATM   11  C   UNL     1       5.191  26.527  56.692  1.00  0.00     0.073 C 
HETATM   12  C   UNL     1       5.474  28.852  55.773  1.00  0.00     0.053 A 
HETATM   13  C   UNL     1       5.632  30.173  56.154  1.00  0.00    -0.018 A 
HETATM   14  C   UNL     1       6.529  30.622  57.251  1.00  0.00     0.085 C 
HETATM   15  N   UNL     1       4.568  28.837  54.735  1.00  0.00    -0.356 N 
HETATM   16  H   UNL     1       4.238  28.035  54.211  1.00  0.00     0.166 HD
HETATM   17  C   UNL     1       4.132  30.114  54.465  1.00  0.00     0.043 A 
HETATM   18  C   UNL     1       4.784  30.976  55.344  1.00  0.00    -0.001 A 
HETATM   19  C   UNL     1       3.212  30.565  53.511  1.00  0.00     0.030 A 
HETATM   20  C   UNL     1       2.953  31.937  53.459  1.00  0.00     0.002 A 
HETATM   21  C   UNL     1       3.589  32.821  54.325  1.00  0.00     0.001 A 
HETATM   22  C   UNL     1       4.507  32.355  55.274  1.00  0.00     0.014 A 
ENDROOT
BRANCH   1  23
HETATM   23  C   UNL     1       8.858  29.513  56.880  1.00  0.00     0.289 C 
HETATM   24  O   UNL     1       8.866  29.666  55.659  1.00  0.00    -0.263 OA
BRANCH  23  25
HETATM   25  O   UNL     1       9.923  29.252  57.662  1.00  0.00    -0.325 OA
HETATM   26  C   UNL     1      11.165  29.809  57.214  1.00  0.00     0.213 C 
ENDBRANCH  23  25
ENDBRANCH   1  23
BRANCH   8  27
HETATM   27  C   UNL     1       7.494  23.438  56.465  1.00  0.00     0.273 C 
BRANCH  27  28
HETATM   28  C   UNL     1       7.712  22.499  55.315  1.00  0.00    -0.033 A 
HETATM   29  C   UNL     1       7.639  22.972  53.995  1.00  0.00     0.009 A 
HETATM   30  C   UNL     1       7.818  22.100  52.920  1.00  0.00     0.001 A 
HETATM   31  C   UNL     1       8.071  20.751  53.152  1.00  0.00     0.000 A 
HETATM   32  C   UNL     1       8.155  20.272  54.458  1.00  0.00     0.001 A 
HETATM   33  C   UNL     1       7.980  21.139  55.536  1.00  0.00     0.009 A 
ENDBRANCH  27  28
ENDBRANCH   8  27
TORSDOF 4
ENDMDL
MODEL 6
REMARK VINA RESULT:      -8.8      2.847      8.063
REMARK  4 active torsions:
REMARK  status: ('A' for Active; 'I' for Inactive)
REMARK    1  A    between atoms: O_2  and  C_3 
REMARK    2  A    between atoms: C_3  and  C_4 
REMARK    3  A    between atoms: N_11  and  C_13 
REMARK    4  A    between atoms: C_13  and  C_14 
ROOT
HETATM    1  C   UNL     1       5.110  28.727  50.712  1.00  0.00     0.290 C 
HETATM    2  N   UNL     1       6.176  27.874  51.499  1.00  0.00    -0.047 N 
HETATM    3  H   UNL     1       6.977  28.514  51.593  1.00  0.00     0.279 HD
HETATM    4  H   UNL     1       6.441  27.127  50.845  1.00  0.00     0.279 HD
HETATM    5  C   UNL     1       5.789  27.362  52.892  1.00  0.00     0.172 C 
HETATM    6  C   UNL     1       4.911  26.096  52.850  1.00  0.00     0.073 C 
HETATM    7  C   UNL     1       5.610  24.870  52.283  1.00  0.00     0.238 C 
HETATM    8  N   UNL     1       6.875  24.606  53.067  1.00  0.00    -0.067 N 
HETATM    9  H   UNL     1       6.599  24.341  54.025  1.00  0.00     0.280 HD
HETATM   10  C   UNL     1       7.808  25.784  53.125  1.00  0.00     0.238 C 
HETATM   11  C   UNL     1       7.093  27.023  53.651  1.00  0.00     0.073 C 
HETATM   12  C   UNL     1       5.040  28.476  53.568  1.00  0.00     0.053 A 
HETATM   13  C   UNL     1       4.522  29.614  52.974  1.00  0.00    -0.018 A 
HETATM   14  C   UNL     1       4.673  29.944  51.533  1.00  0.00     0.085 C 
HETATM   15  N   UNL     1       4.697  28.524  54.901  1.00  0.00    -0.356 N 
HETATM   16  H   UNL     1       4.904  27.841  55.620  1.00  0.00     0.166 HD
HETATM   17  C   UNL     1       3.995  29.676  55.171  1.00  0.00     0.043 A 
HETATM   18  C   UNL     1       3.870  30.382  53.977  1.00  0.00    -0.001 A 
HETATM   19  C   UNL     1       3.463  30.140  56.380  1.00  0.00     0.030 A 
HETATM   20  C   UNL     1       2.788  31.363  56.363  1.00  0.00     0.002 A 
HETATM   21  C   UNL     1       2.649  32.091  55.184  1.00  0.00     0.001 A 
HETATM   22  C   UNL     1       3.186  31.613  53.983  1.00  0.00     0.014 A 
ENDROOT
BRANCH   1  23
HETATM   23  C   UNL     1       4.005  27.834  50.157  1.00  0.00     0.289 C 
HETATM   24  O   UNL     1       4.293  26.785  49.582  1.00  0.00    -0.263 OA
BRANCH  23  25
HETATM   25  O   UNL     1       2.771  28.349  50.316  1.00  0.00    -0.325 OA
HETATM   26  C   UNL     1       1.983  28.434  49.121  1.00  0.00     0.213 C 
ENDBRANCH  23  25
ENDBRANCH   1  23
BRANCH   8  27
HETATM   27  C   UNL     1       7.623  23.357  52.567  1.00  0.00     0.273 C 
BRANCH  27  28
HETATM   28  C   UNL     1       7.861  22.330  53.635  1.00  0.00    -0.033 A 
HETATM   29  C   UNL     1       8.389  21.073  53.301  1.00  0.00     0.009 A 
HETATM   30  C   UNL     1       8.592  20.106  54.285  1.00  0.00     0.001 A 
HETATM   31  C   UNL     1       8.272  20.384  55.612  1.00  0.00     0.000 A 
HETATM   32  C   UNL     1       7.757  21.632  55.958  1.00  0.00     0.001 A 
HETATM   33  C   UNL     1       7.554  22.604  54.977  1.00  0.00     0.009 A 
ENDBRANCH  27  28
ENDBRANCH   8  27
TORSDOF 4
ENDMDL
MODEL 7
REMARK VINA RESULT:      -8.7      3.202      7.424
REMARK  4 active torsions:
REMARK  status: ('A' for Active; 'I' for Inactive)
REMARK    1  A    between atoms: O_2  and  C_3 
REMARK    2  A    between atoms: C_3  and  C_4 
REMARK    3  A    between atoms: N_11  and  C_13 
REMARK    4  A    between atoms: C_13  and  C_14 
ROOT
HETATM    1  C   UNL     1       5.923  27.271  57.099  1.00  0.00     0.290 C 
HETATM    2  N   UNL     1       5.712  26.329  55.853  1.00  0.00    -0.047 N 
HETATM    3  H   UNL     1       4.798  25.891  56.032  1.00  0.00     0.279 HD
HETATM    4  H   UNL     1       6.436  25.606  55.950  1.00  0.00     0.279 HD
HETATM    5  C   UNL     1       5.680  26.982  54.465  1.00  0.00     0.172 C 
HETATM    6  C   UNL     1       7.083  27.288  53.906  1.00  0.00     0.073 C 
HETATM    7  C   UNL     1       7.923  26.052  53.617  1.00  0.00     0.238 C 
HETATM    8  N   UNL     1       7.169  25.143  52.675  1.00  0.00    -0.067 N 
HETATM    9  H   UNL     1       7.085  25.631  51.770  1.00  0.00     0.280 HD
HETATM   10  C   UNL     1       5.799  24.765  53.166  1.00  0.00     0.238 C 
HETATM   11  C   UNL     1       4.975  26.004  53.497  1.00  0.00     0.073 C 
HETATM   12  C   UNL     1       4.903  28.261  54.608  1.00  0.00     0.053 A 
HETATM   13  C   UNL     1       4.549  28.895  55.786  1.00  0.00    -0.018 A 
HETATM   14  C   UNL     1       4.854  28.365  57.142  1.00  0.00     0.085 C 
HETATM   15  N   UNL     1       4.450  29.049  53.573  1.00  0.00    -0.356 N 
HETATM   16  H   UNL     1       4.555  28.888  52.579  1.00  0.00     0.166 HD
HETATM   17  C   UNL     1       3.798  30.156  54.068  1.00  0.00     0.043 A 
HETATM   18  C   UNL     1       3.844  30.085  55.458  1.00  0.00    -0.001 A 
HETATM   19  C   UNL     1       3.177  31.209  53.387  1.00  0.00     0.030 A 
HETATM   20  C   UNL     1       2.583  32.215  54.154  1.00  0.00     0.002 A 
HETATM   21  C   UNL     1       2.612  32.169  55.545  1.00  0.00     0.001 A 
HETATM   22  C   UNL     1       3.238  31.109  56.211  1.00  0.00     0.014 A 
ENDROOT
BRANCH   1  23
HETATM   23  C   UNL     1       7.378  27.720  57.196  1.00  0.00     0.289 C 
HETATM   24  O   UNL     1       8.253  26.910  57.500  1.00  0.00    -0.263 OA
BRANCH  23  25
HETATM   25  O   UNL     1       7.545  29.039  56.983  1.00  0.00    -0.325 OA
HETATM   26  C   UNL     1       8.751  29.404  56.299  1.00  0.00     0.213 C 
ENDBRANCH  23  25
ENDBRANCH   1  23
BRANCH   8  27
HETATM   27  C   UNL     1       7.973  23.881  52.313  1.00  0.00     0.273 C 
BRANCH  27  28
HETATM   28  C   UNL     1       8.006  22.854  53.407  1.00  0.00    -0.033 A 
HETATM   29  C   UNL     1       8.268  23.241  54.730  1.00  0.00     0.009 A 
HETATM   30  C   UNL     1       8.323  22.288  55.748  1.00  0.00     0.001 A 
HETATM   31  C   UNL     1       8.115  20.943  55.455  1.00  0.00     0.000 A 
HETATM   32  C   UNL     1       7.844  20.548  54.147  1.00  0.00     0.001 A 
HETATM   33  C   UNL     1       7.786  21.496  53.126  1.00  0.00     0.009 A 
ENDBRANCH  27  28
ENDBRANCH   8  27
TORSDOF 4
ENDMDL
MODEL 8
REMARK VINA RESULT:      -8.2      4.124      8.638
REMARK  4 active torsions:
REMARK  status: ('A' for Active; 'I' for Inactive)
REMARK    1  A    between atoms: O_2  and  C_3 
REMARK    2  A    between atoms: C_3  and  C_4 
REMARK    3  A    between atoms: N_11  and  C_13 
REMARK    4  A    between atoms: C_13  and  C_14 
ROOT
HETATM    1  C   UNL     1       6.107  30.899  58.901  1.00  0.00     0.290 C 
HETATM    2  N   UNL     1       5.470  29.685  58.124  1.00  0.00    -0.047 N 
HETATM    3  H   UNL     1       4.481  29.709  58.405  1.00  0.00     0.279 HD
HETATM    4  H   UNL     1       5.902  28.854  58.548  1.00  0.00     0.279 HD
HETATM    5  C   UNL     1       5.547  29.702  56.592  1.00  0.00     0.172 C 
HETATM    6  C   UNL     1       6.914  29.242  56.048  1.00  0.00     0.073 C 
HETATM    7  C   UNL     1       7.239  27.783  56.330  1.00  0.00     0.238 C 
HETATM    8  N   UNL     1       6.135  26.908  55.784  1.00  0.00    -0.067 N 
HETATM    9  H   UNL     1       6.148  26.994  54.756  1.00  0.00     0.280 HD
HETATM   10  C   UNL     1       4.768  27.267  56.297  1.00  0.00     0.238 C 
HETATM   11  C   UNL     1       4.462  28.741  56.053  1.00  0.00     0.073 C 
HETATM   12  C   UNL     1       5.281  31.117  56.163  1.00  0.00     0.053 A 
HETATM   13  C   UNL     1       5.277  32.246  56.965  1.00  0.00    -0.018 A 
HETATM   14  C   UNL     1       5.495  32.224  58.436  1.00  0.00     0.085 C 
HETATM   15  N   UNL     1       5.043  31.538  54.873  1.00  0.00    -0.356 N 
HETATM   16  H   UNL     1       4.997  30.971  54.035  1.00  0.00     0.166 HD
HETATM   17  C   UNL     1       4.866  32.902  54.842  1.00  0.00     0.043 A 
HETATM   18  C   UNL     1       5.006  33.374  56.145  1.00  0.00    -0.001 A 
HETATM   19  C   UNL     1       4.594  33.747  53.759  1.00  0.00     0.030 A 
HETATM   20  C   UNL     1       4.459  35.113  54.022  1.00  0.00     0.002 A 
HETATM   21  C   UNL     1       4.593  35.613  55.314  1.00  0.00     0.001 A 
HETATM   22  C   UNL     1       4.866  34.755  56.386  1.00  0.00     0.014 A 
ENDROOT
BRANCH   1  23
HETATM   23  C   UNL     1       7.629  30.802  58.902  1.00  0.00     0.289 C 
HETATM   24  O   UNL     1       8.176  29.712  59.067  1.00  0.00    -0.263 OA
BRANCH  23  25
HETATM   25  O   UNL     1       8.241  31.995  58.774  1.00  0.00    -0.325 OA
HETATM   26  C   UNL     1       9.633  32.012  59.117  1.00  0.00     0.213 C 
ENDBRANCH  23  25
ENDBRANCH   1  23
BRANCH   8  27
HETATM   27  C   UNL     1       6.413  25.411  56.008  1.00  0.00     0.273 C 
BRANCH  27  28
HETATM   28  C   UNL     1       6.958  24.712  54.796  1.00  0.00    -0.033 A 
HETATM   29  C   UNL     1       7.224  23.335  54.835  1.00  0.00     0.009 A 
HETATM   30  C   UNL     1       7.752  22.684  53.720  1.00  0.00     0.001 A 
HETATM   31  C   UNL     1       8.019  23.400  52.556  1.00  0.00     0.000 A 
HETATM   32  C   UNL     1       7.749  24.766  52.502  1.00  0.00     0.001 A 
HETATM   33  C   UNL     1       7.219  25.422  53.613  1.00  0.00     0.009 A 
ENDBRANCH  27  28
ENDBRANCH   8  27
TORSDOF 4
ENDMDL
MODEL 9
REMARK VINA RESULT:      -7.9      4.099      9.204
REMARK  4 active torsions:
REMARK  status: ('A' for Active; 'I' for Inactive)
REMARK    1  A    between atoms: O_2  and  C_3 
REMARK    2  A    between atoms: C_3  and  C_4 
REMARK    3  A    between atoms: N_11  and  C_13 
REMARK    4  A    between atoms: C_13  and  C_14 
ROOT
HETATM    1  C   UNL     1       4.312  32.394  55.156  1.00  0.00     0.290 C 
HETATM    2  N   UNL     1       5.436  31.293  55.233  1.00  0.00    -0.047 N 
HETATM    3  H   UNL     1       6.306  31.824  55.095  1.00  0.00     0.279 HD
HETATM    4  H   UNL     1       5.284  30.711  54.399  1.00  0.00     0.279 HD
HETATM    5  C   UNL     1       5.554  30.485  56.531  1.00  0.00     0.172 C 
HETATM    6  C   UNL     1       4.525  29.341  56.629  1.00  0.00     0.073 C 
HETATM    7  C   UNL     1       4.715  28.242  55.595  1.00  0.00     0.238 C 
HETATM    8  N   UNL     1       6.120  27.695  55.697  1.00  0.00    -0.067 N 
HETATM    9  H   UNL     1       6.207  27.225  56.611  1.00  0.00     0.280 HD
HETATM   10  C   UNL     1       7.188  28.745  55.572  1.00  0.00     0.238 C 
HETATM   11  C   UNL     1       6.971  29.869  56.580  1.00  0.00     0.073 C 
HETATM   12  C   UNL     1       5.343  31.453  57.661  1.00  0.00     0.053 A 
HETATM   13  C   UNL     1       4.838  32.739  57.575  1.00  0.00    -0.018 A 
HETATM   14  C   UNL     1       4.458  33.402  56.300  1.00  0.00     0.085 C 
HETATM   15  N   UNL     1       5.574  31.199  58.995  1.00  0.00    -0.356 N 
HETATM   16  H   UNL     1       5.928  30.346  59.411  1.00  0.00     0.166 HD
HETATM   17  C   UNL     1       5.250  32.300  59.754  1.00  0.00     0.043 A 
HETATM   18  C   UNL     1       4.785  33.286  58.886  1.00  0.00    -0.001 A 
HETATM   19  C   UNL     1       5.334  32.493  61.137  1.00  0.00     0.030 A 
HETATM   20  C   UNL     1       4.933  33.731  61.644  1.00  0.00     0.002 A 
HETATM   21  C   UNL     1       4.465  34.735  60.801  1.00  0.00     0.001 A 
HETATM   22  C   UNL     1       4.387  34.527  59.419  1.00  0.00     0.014 A 
ENDROOT
BRANCH   1  23
HETATM   23  C   UNL     1       2.940  31.754  54.969  1.00  0.00     0.289 C 
HETATM   24  O   UNL     1       2.064  31.917  55.818  1.00  0.00    -0.263 OA
BRANCH  23  25
HETATM   25  O   UNL     1       2.852  30.990  53.863  1.00  0.00    -0.325 OA
HETATM   26  C   UNL     1       2.965  31.694  52.619  1.00  0.00     0.213 C 
ENDBRANCH  23  25
ENDBRANCH   1  23
BRANCH   8  27
HETATM   27  C   UNL     1       6.375  26.553  54.696  1.00  0.00     0.273 C 
BRANCH  27  28
HETATM   28  C   UNL     1       7.198  25.431  55.261  1.00  0.00    -0.033 A 
HETATM   29  C   UNL     1       7.466  25.377  56.638  1.00  0.00     0.009 A 
HETATM   30  C   UNL     1       8.249  24.350  57.166  1.00  0.00     0.001 A 
HETATM   31  C   UNL     1       8.770  23.368  56.327  1.00  0.00     0.000 A 
HETATM   32  C   UNL     1       8.502  23.406  54.960  1.00  0.00     0.001 A 
HETATM   33  C   UNL     1       7.718  24.429  54.427  1.00  0.00     0.009 A 
ENDBRANCH  27  28
ENDBRANCH   8  27
TORSDOF 4
ENDMDL
MODEL 10
REMARK VINA RESULT:      -7.9      9.251     13.878
REMARK  4 active torsions:
REMARK  status: ('A' for Active; 'I' for Inactive)
REMARK    1  A    between atoms: O_2  and  C_3 
REMARK    2  A    between atoms: C_3  and  C_4 
REMARK    3  A    between atoms: N_11  and  C_13 
REMARK    4  A    between atoms: C_13  and  C_14 
ROOT
HETATM    1  C   UNL     1       3.911  35.012  64.600  1.00  0.00     0.290 C 
HETATM    2  N   UNL     1       3.386  34.751  63.137  1.00  0.00    -0.047 N 
HETATM    3  H   UNL     1       2.557  35.356  63.065  1.00  0.00     0.279 HD
HETATM    4  H   UNL     1       3.067  33.774  63.149  1.00  0.00     0.279 HD
HETATM    5  C   UNL     1       4.333  35.074  61.974  1.00  0.00     0.172 C 
HETATM    6  C   UNL     1       5.379  33.971  61.720  1.00  0.00     0.073 C 
HETATM    7  C   UNL     1       4.791  32.650  61.247  1.00  0.00     0.238 C 
HETATM    8  N   UNL     1       3.963  32.886  60.005  1.00  0.00    -0.067 N 
HETATM    9  H   UNL     1       4.605  33.181  59.253  1.00  0.00     0.280 HD
HETATM   10  C   UNL     1       2.890  33.924  60.180  1.00  0.00     0.238 C 
HETATM   11  C   UNL     1       3.476  35.234  60.697  1.00  0.00     0.073 C 
HETATM   12  C   UNL     1       5.027  36.359  62.327  1.00  0.00     0.053 A 
HETATM   13  C   UNL     1       5.061  36.976  63.566  1.00  0.00    -0.018 A 
HETATM   14  C   UNL     1       4.350  36.470  64.769  1.00  0.00     0.085 C 
HETATM   15  N   UNL     1       5.798  37.120  61.476  1.00  0.00    -0.356 N 
HETATM   16  H   UNL     1       6.000  36.944  60.499  1.00  0.00     0.166 HD
HETATM   17  C   UNL     1       6.300  38.216  62.139  1.00  0.00     0.043 A 
HETATM   18  C   UNL     1       5.851  38.152  63.456  1.00  0.00    -0.001 A 
HETATM   19  C   UNL     1       7.115  39.252  61.669  1.00  0.00     0.030 A 
HETATM   20  C   UNL     1       7.477  40.252  62.576  1.00  0.00     0.002 A 
HETATM   21  C   UNL     1       7.043  40.215  63.898  1.00  0.00     0.001 A 
HETATM   22  C   UNL     1       6.228  39.172  64.352  1.00  0.00     0.014 A 
ENDROOT
BRANCH   1  23
HETATM   23  C   UNL     1       4.909  33.936  65.017  1.00  0.00     0.289 C 
HETATM   24  O   UNL     1       4.640  32.748  64.843  1.00  0.00    -0.263 OA
BRANCH  23  25
HETATM   25  O   UNL     1       6.009  34.431  65.616  1.00  0.00    -0.325 OA
HETATM   26  C   UNL     1       7.250  33.842  65.204  1.00  0.00     0.213 C 
ENDBRANCH  23  25
ENDBRANCH   1  23
BRANCH   8  27
HETATM   27  C   UNL     1       3.359  31.583  59.450  1.00  0.00     0.273 C 
BRANCH  27  28
HETATM   28  C   UNL     1       4.016  31.104  58.188  1.00  0.00    -0.033 A 
HETATM   29  C   UNL     1       3.238  30.601  57.134  1.00  0.00     0.009 A 
HETATM   30  C   UNL     1       3.844  30.133  55.968  1.00  0.00     0.001 A 
HETATM   31  C   UNL     1       5.231  30.164  55.842  1.00  0.00     0.000 A 
HETATM   32  C   UNL     1       6.013  30.671  56.877  1.00  0.00     0.001 A 
HETATM   33  C   UNL     1       5.412  31.142  58.045  1.00  0.00     0.009 A 
ENDBRANCH  27  28
ENDBRANCH   8  27
TORSDOF 4
ENDMDL
