MODEL 1
REMARK VINA RESULT:      -9.9      0.000      0.000
REMARK  7 active torsions:
REMARK  status: ('A' for Active; 'I' for Inactive)
REMARK    1  A    between atoms: C_2  and  C_3 
REMARK    2  A    between atoms: C_3  and  C_4 
REMARK    3  A    between atoms: C_5  and  O_6 
REMARK    4  A    between atoms: O_6  and  C_7 
REMARK    5  A    between atoms: C_7  and  C_8 
REMARK       I    between atoms: C_8  and  N_9 
REMARK    6  A    between atoms: N_9  and  C_10 
REMARK    7  A    between atoms: C_17  and  C_18 
REMARK       I    between atoms: C_18  and  N_19 
ROOT
HETATM    1  C   UNL     1       7.198  26.327  57.388  1.00  0.00     0.246 C 
HETATM    2  N   UNL     1       7.212  27.647  56.944  1.00  0.00    -0.325 N 
HETATM    3  O   UNL     1       7.907  25.860  58.273  1.00  0.00    -0.271 OA
HETATM    4  H   UNL     1       6.536  27.899  56.234  1.00  0.00     0.169 HD
ENDROOT
BRANCH   2   5
HETATM    5  C   UNL     1       8.076  28.686  57.357  1.00  0.00     0.035 A 
HETATM    6  C   UNL     1       7.577  29.573  58.328  1.00  0.00     0.046 A 
HETATM    7  C   UNL     1       8.374  30.649  58.772  1.00  0.00     0.030 A 
HETATM    8  C   UNL     1       9.645  30.803  58.236  1.00  0.00     0.063 A 
HETATM    9  C   UNL     1       8.229  31.724  59.699  1.00  0.00     0.156 A 
HETATM   10  N   UNL     1      10.164  31.912  58.846  1.00  0.00    -0.277 N 
HETATM   11  C   UNL     1      10.173  29.940  57.276  1.00  0.00     0.034 A 
HETATM   12  H   UNL     1      11.079  32.322  58.695  1.00  0.00     0.189 HD
HETATM   13  N   UNL     1       9.341  32.494  59.734  1.00  0.00    -0.168 NA
HETATM   14  C   UNL     1       9.361  28.880  56.847  1.00  0.00     0.032 A 
BRANCH   9  15
HETATM   15  C   UNL     1       7.063  32.024  60.538  1.00  0.00     0.270 C 
HETATM   16  N   UNL     1       6.957  31.239  61.652  1.00  0.00    -0.365 N 
HETATM   17  H   UNL     1       7.665  30.531  61.815  1.00  0.00     0.159 HD
HETATM   18  H   UNL     1       6.188  31.369  62.291  1.00  0.00     0.159 HD
HETATM   19  O   UNL     1       6.237  32.897  60.289  1.00  0.00    -0.266 OA
ENDBRANCH   9  15
ENDBRANCH   2   5
BRANCH   1  20
HETATM   20  C   UNL     1       6.170  25.481  56.622  1.00  0.00     0.278 C 
BRANCH  20  21
HETATM   21  O   UNL     1       6.765  24.314  56.051  1.00  0.00    -0.342 OA
BRANCH  21  22
HETATM   22  C   UNL     1       7.039  24.470  54.718  1.00  0.00     0.076 A 
HETATM   23  C   UNL     1       7.569  23.417  53.957  1.00  0.00    -0.021 A 
HETATM   24  C   UNL     1       7.825  23.673  52.591  1.00  0.00     0.010 A 
HETATM   25  C   UNL     1       7.614  24.932  52.024  1.00  0.00     0.001 A 
HETATM   26  C   UNL     1       7.150  25.976  52.811  1.00  0.00     0.003 A 
HETATM   27  C   UNL     1       6.873  25.747  54.156  1.00  0.00     0.037 A 
BRANCH  23  28
HETATM   28  C   UNL     1       7.930  22.023  54.471  1.00  0.00     0.017 C 
HETATM   29  C   UNL     1       9.316  21.819  55.092  1.00  0.00     0.015 C 
BRANCH  28  30
HETATM   30  C   UNL     1       7.644  20.926  53.414  1.00  0.00     0.004 C 
HETATM   31  C   UNL     1       8.870  20.162  52.932  1.00  0.00     0.006 C 
ENDBRANCH  28  30
ENDBRANCH  23  28
ENDBRANCH  21  22
ENDBRANCH  20  21
ENDBRANCH   1  20
TORSDOF 7
ENDMDL
MODEL 2
REMARK VINA RESULT:      -9.8      0.991      2.562
REMARK  7 active torsions:
REMARK  status: ('A' for Active; 'I' for Inactive)
REMARK    1  A    between atoms: C_2  and  C_3 
REMARK    2  A    between atoms: C_3  and  C_4 
REMARK    3  A    between atoms: C_5  and  O_6 
REMARK    4  A    between atoms: O_6  and  C_7 
REMARK    5  A    between atoms: C_7  and  C_8 
REMARK       I    between atoms: C_8  and  N_9 
REMARK    6  A    between atoms: N_9  and  C_10 
REMARK    7  A    between atoms: C_17  and  C_18 
REMARK       I    between atoms: C_18  and  N_19 
ROOT
HETATM    1  C   UNL     1       7.783  26.209  57.306  1.00  0.00     0.246 C 
HETATM    2  N   UNL     1       8.132  27.359  56.601  1.00  0.00    -0.325 N 
HETATM    3  O   UNL     1       7.935  26.031  58.510  1.00  0.00    -0.271 OA
HETATM    4  H   UNL     1       7.906  27.378  55.614  1.00  0.00     0.169 HD
ENDROOT
BRANCH   2   5
HETATM    5  C   UNL     1       8.787  28.508  57.097  1.00  0.00     0.035 A 
HETATM    6  C   UNL     1       8.056  29.318  57.984  1.00  0.00     0.046 A 
HETATM    7  C   UNL     1       8.637  30.494  58.503  1.00  0.00     0.030 A 
HETATM    8  C   UNL     1       9.931  30.823  58.123  1.00  0.00     0.063 A 
HETATM    9  C   UNL     1       8.232  31.540  59.387  1.00  0.00     0.156 A 
HETATM   10  N   UNL     1      10.213  31.993  58.772  1.00  0.00    -0.277 N 
HETATM   11  C   UNL     1      10.687  30.041  57.250  1.00  0.00     0.034 A 
HETATM   12  H   UNL     1      11.074  32.526  58.726  1.00  0.00     0.189 HD
HETATM   13  N   UNL     1       9.214  32.456  59.543  1.00  0.00    -0.168 NA
HETATM   14  C   UNL     1      10.087  28.877  56.745  1.00  0.00     0.032 A 
BRANCH   9  15
HETATM   15  C   UNL     1       6.941  31.675  60.072  1.00  0.00     0.270 C 
HETATM   16  N   UNL     1       6.940  31.220  61.361  1.00  0.00    -0.365 N 
HETATM   17  H   UNL     1       7.798  30.835  61.739  1.00  0.00     0.159 HD
HETATM   18  H   UNL     1       6.099  31.271  61.914  1.00  0.00     0.159 HD
HETATM   19  O   UNL     1       5.932  32.152  59.560  1.00  0.00    -0.266 OA
ENDBRANCH   9  15
ENDBRANCH   2   5
BRANCH   1  20
HETATM   20  C   UNL     1       7.173  25.142  56.385  1.00  0.00     0.278 C 
BRANCH  20  21
HETATM   21  O   UNL     1       8.029  24.840  55.282  1.00  0.00    -0.342 OA
BRANCH  21  22
HETATM   22  C   UNL     1       8.055  23.501  54.995  1.00  0.00     0.076 A 
HETATM   23  C   UNL     1       7.642  23.018  53.744  1.00  0.00    -0.021 A 
HETATM   24  C   UNL     1       7.698  21.621  53.542  1.00  0.00     0.010 A 
HETATM   25  C   UNL     1       8.096  20.744  54.553  1.00  0.00     0.001 A 
HETATM   26  C   UNL     1       8.439  21.240  55.803  1.00  0.00     0.003 A 
HETATM   27  C   UNL     1       8.408  22.613  56.024  1.00  0.00     0.037 A 
BRANCH  23  28
HETATM   28  C   UNL     1       7.101  23.856  52.586  1.00  0.00     0.017 C 
HETATM   29  C   UNL     1       7.990  24.970  52.023  1.00  0.00     0.015 C 
BRANCH  28  30
HETATM   30  C   UNL     1       5.677  24.395  52.878  1.00  0.00     0.004 C 
HETATM   31  C   UNL     1       5.216  25.523  51.964  1.00  0.00     0.006 C 
ENDBRANCH  28  30
ENDBRANCH  23  28
ENDBRANCH  21  22
ENDBRANCH  20  21
ENDBRANCH   1  20
TORSDOF 7
ENDMDL
MODEL 3
REMARK VINA RESULT:      -9.7      1.829      3.388
REMARK  7 active torsions:
REMARK  status: ('A' for Active; 'I' for Inactive)
REMARK    1  A    between atoms: C_2  and  C_3 
REMARK    2  A    between atoms: C_3  and  C_4 
REMARK    3  A    between atoms: C_5  and  O_6 
REMARK    4  A    between atoms: O_6  and  C_7 
REMARK    5  A    between atoms: C_7  and  C_8 
REMARK       I    between atoms: C_8  and  N_9 
REMARK    6  A    between atoms: N_9  and  C_10 
REMARK    7  A    between atoms: C_17  and  C_18 
REMARK       I    between atoms: C_18  and  N_19 
ROOT
HETATM    1  C   UNL     1       7.725  25.813  57.300  1.00  0.00     0.246 C 
HETATM    2  N   UNL     1       7.074  26.777  56.533  1.00  0.00    -0.325 N 
HETATM    3  O   UNL     1       7.942  25.881  58.505  1.00  0.00    -0.271 OA
HETATM    4  H   UNL     1       6.928  26.563  55.554  1.00  0.00     0.169 HD
ENDROOT
BRANCH   2   5
HETATM    5  C   UNL     1       6.603  28.041  56.956  1.00  0.00     0.035 A 
HETATM    6  C   UNL     1       7.545  28.900  57.549  1.00  0.00     0.046 A 
HETATM    7  C   UNL     1       7.143  30.169  58.016  1.00  0.00     0.030 A 
HETATM    8  C   UNL     1       5.814  30.542  57.872  1.00  0.00     0.063 A 
HETATM    9  C   UNL     1       7.773  31.278  58.656  1.00  0.00     0.156 A 
HETATM   10  N   UNL     1       5.729  31.796  58.410  1.00  0.00    -0.277 N 
HETATM   11  C   UNL     1       4.854  29.718  57.285  1.00  0.00     0.034 A 
HETATM   12  H   UNL     1       4.902  32.379  58.478  1.00  0.00     0.189 HD
HETATM   13  N   UNL     1       6.889  32.274  58.892  1.00  0.00    -0.168 NA
HETATM   14  C   UNL     1       5.277  28.460  56.830  1.00  0.00     0.032 A 
BRANCH   9  15
HETATM   15  C   UNL     1       9.185  31.399  59.041  1.00  0.00     0.270 C 
HETATM   16  N   UNL     1       9.511  30.736  60.191  1.00  0.00    -0.365 N 
HETATM   17  H   UNL     1       8.783  30.228  60.680  1.00  0.00     0.159 HD
HETATM   18  H   UNL     1      10.457  30.760  60.537  1.00  0.00     0.159 HD
HETATM   19  O   UNL     1      10.024  32.031  58.406  1.00  0.00    -0.266 OA
ENDBRANCH   9  15
ENDBRANCH   2   5
BRANCH   1  20
HETATM   20  C   UNL     1       8.167  24.614  56.447  1.00  0.00     0.278 C 
BRANCH  20  21
HETATM   21  O   UNL     1       7.069  24.026  55.749  1.00  0.00    -0.342 OA
BRANCH  21  22
HETATM   22  C   UNL     1       7.445  22.931  55.018  1.00  0.00     0.076 A 
HETATM   23  C   UNL     1       7.479  22.971  53.615  1.00  0.00    -0.021 A 
HETATM   24  C   UNL     1       7.875  21.790  52.946  1.00  0.00     0.010 A 
HETATM   25  C   UNL     1       8.171  20.614  53.638  1.00  0.00     0.001 A 
HETATM   26  C   UNL     1       8.068  20.580  55.021  1.00  0.00     0.003 A 
HETATM   27  C   UNL     1       7.697  21.733  55.706  1.00  0.00     0.037 A 
BRANCH  23  28
HETATM   28  C   UNL     1       7.095  24.160  52.735  1.00  0.00     0.017 C 
HETATM   29  C   UNL     1       7.970  25.416  52.795  1.00  0.00     0.015 C 
BRANCH  28  30
HETATM   30  C   UNL     1       5.598  24.533  52.891  1.00  0.00     0.004 C 
HETATM   31  C   UNL     1       5.337  25.956  53.369  1.00  0.00     0.006 C 
ENDBRANCH  28  30
ENDBRANCH  23  28
ENDBRANCH  21  22
ENDBRANCH  20  21
ENDBRANCH   1  20
TORSDOF 7
ENDMDL
MODEL 4
REMARK VINA RESULT:      -9.2      2.923      8.944
REMARK  7 active torsions:
REMARK  status: ('A' for Active; 'I' for Inactive)
REMARK    1  A    between atoms: C_2  and  C_3 
REMARK    2  A    between atoms: C_3  and  C_4 
REMARK    3  A    between atoms: C_5  and  O_6 
REMARK    4  A    between atoms: O_6  and  C_7 
REMARK    5  A    between atoms: C_7  and  C_8 
REMARK       I    between atoms: C_8  and  N_9 
REMARK    6  A    between atoms: N_9  and  C_10 
REMARK    7  A    between atoms: C_17  and  C_18 
REMARK       I    between atoms: C_18  and  N_19 
ROOT
HETATM    1  C   UNL     1       6.162  27.361  56.383  1.00  0.00     0.246 C 
HETATM    2  N   UNL     1       7.249  26.536  56.105  1.00  0.00    -0.325 N 
HETATM    3  O   UNL     1       5.024  27.220  55.946  1.00  0.00    -0.271 OA
HETATM    4  H   UNL     1       8.120  26.752  56.574  1.00  0.00     0.169 HD
ENDROOT
BRANCH   2   5
HETATM    5  C   UNL     1       7.291  25.432  55.225  1.00  0.00     0.035 A 
HETATM    6  C   UNL     1       7.727  24.209  55.766  1.00  0.00     0.046 A 
HETATM    7  C   UNL     1       7.816  23.068  54.943  1.00  0.00     0.030 A 
HETATM    8  C   UNL     1       7.463  23.181  53.605  1.00  0.00     0.063 A 
HETATM    9  C   UNL     1       8.204  21.705  55.109  1.00  0.00     0.156 A 
HETATM   10  N   UNL     1       7.652  21.936  53.073  1.00  0.00    -0.277 N 
HETATM   11  C   UNL     1       7.022  24.376  53.035  1.00  0.00     0.034 A 
HETATM   12  H   UNL     1       7.495  21.650  52.113  1.00  0.00     0.189 HD
HETATM   13  N   UNL     1       8.099  21.019  53.948  1.00  0.00    -0.168 NA
HETATM   14  C   UNL     1       6.944  25.498  53.874  1.00  0.00     0.032 A 
BRANCH   9  15
HETATM   15  C   UNL     1       8.670  21.057  56.342  1.00  0.00     0.270 C 
HETATM   16  N   UNL     1       9.550  20.031  56.138  1.00  0.00    -0.365 N 
HETATM   17  H   UNL     1       9.809  19.796  55.186  1.00  0.00     0.159 HD
HETATM   18  H   UNL     1       9.926  19.524  56.924  1.00  0.00     0.159 HD
HETATM   19  O   UNL     1       8.321  21.386  57.472  1.00  0.00    -0.266 OA
ENDBRANCH   9  15
ENDBRANCH   2   5
BRANCH   1  20
HETATM   20  C   UNL     1       6.549  28.515  57.320  1.00  0.00     0.278 C 
BRANCH  20  21
HETATM   21  O   UNL     1       7.697  28.195  58.108  1.00  0.00    -0.342 OA
BRANCH  21  22
HETATM   22  C   UNL     1       8.735  29.061  57.889  1.00  0.00     0.076 A 
HETATM   23  C   UNL     1       8.954  30.160  58.734  1.00  0.00    -0.021 A 
HETATM   24  C   UNL     1      10.046  31.002  58.427  1.00  0.00     0.010 A 
HETATM   25  C   UNL     1      10.849  30.790  57.304  1.00  0.00     0.001 A 
HETATM   26  C   UNL     1      10.574  29.733  56.447  1.00  0.00     0.003 A 
HETATM   27  C   UNL     1       9.514  28.878  56.736  1.00  0.00     0.037 A 
BRANCH  23  28
HETATM   28  C   UNL     1       8.101  30.558  59.939  1.00  0.00     0.017 C 
HETATM   29  C   UNL     1       7.136  31.738  59.783  1.00  0.00     0.015 C 
BRANCH  28  30
HETATM   30  C   UNL     1       8.956  30.724  61.221  1.00  0.00     0.004 C 
HETATM   31  C   UNL     1       8.609  31.938  62.073  1.00  0.00     0.006 C 
ENDBRANCH  28  30
ENDBRANCH  23  28
ENDBRANCH  21  22
ENDBRANCH  20  21
ENDBRANCH   1  20
TORSDOF 7
ENDMDL
MODEL 5
REMARK VINA RESULT:      -8.9      5.509      8.698
REMARK  7 active torsions:
REMARK  status: ('A' for Active; 'I' for Inactive)
REMARK    1  A    between atoms: C_2  and  C_3 
REMARK    2  A    between atoms: C_3  and  C_4 
REMARK    3  A    between atoms: C_5  and  O_6 
REMARK    4  A    between atoms: O_6  and  C_7 
REMARK    5  A    between atoms: C_7  and  C_8 
REMARK       I    between atoms: C_8  and  N_9 
REMARK    6  A    between atoms: N_9  and  C_10 
REMARK    7  A    between atoms: C_17  and  C_18 
REMARK       I    between atoms: C_18  and  N_19 
ROOT
HETATM    1  C   UNL     1       5.566  26.024  52.358  1.00  0.00     0.246 C 
HETATM    2  N   UNL     1       5.922  26.453  51.082  1.00  0.00    -0.325 N 
HETATM    3  O   UNL     1       4.624  26.446  53.020  1.00  0.00    -0.271 OA
HETATM    4  H   UNL     1       6.700  25.980  50.639  1.00  0.00     0.169 HD
ENDROOT
BRANCH   2   5
HETATM    5  C   UNL     1       5.333  27.492  50.326  1.00  0.00     0.035 A 
HETATM    6  C   UNL     1       4.242  27.140  49.512  1.00  0.00     0.046 A 
HETATM    7  C   UNL     1       3.617  28.119  48.712  1.00  0.00     0.030 A 
HETATM    8  C   UNL     1       4.099  29.420  48.752  1.00  0.00     0.063 A 
HETATM    9  C   UNL     1       2.532  28.154  47.785  1.00  0.00     0.156 A 
HETATM   10  N   UNL     1       3.311  30.126  47.886  1.00  0.00    -0.277 N 
HETATM   11  C   UNL     1       5.175  29.806  49.551  1.00  0.00     0.034 A 
HETATM   12  H   UNL     1       3.378  31.113  47.662  1.00  0.00     0.189 HD
HETATM   13  N   UNL     1       2.355  29.398  47.284  1.00  0.00    -0.168 NA
HETATM   14  C   UNL     1       5.782  28.814  50.336  1.00  0.00     0.032 A 
BRANCH   9  15
HETATM   15  C   UNL     1       1.677  27.033  47.375  1.00  0.00     0.270 C 
HETATM   16  N   UNL     1       2.297  26.120  46.569  1.00  0.00    -0.365 N 
HETATM   17  H   UNL     1       3.268  26.274  46.320  1.00  0.00     0.159 HD
HETATM   18  H   UNL     1       1.791  25.315  46.236  1.00  0.00     0.159 HD
HETATM   19  O   UNL     1       0.504  26.899  47.710  1.00  0.00    -0.266 OA
ENDBRANCH   9  15
ENDBRANCH   2   5
BRANCH   1  20
HETATM   20  C   UNL     1       6.515  24.933  52.875  1.00  0.00     0.278 C 
BRANCH  20  21
HETATM   21  O   UNL     1       6.032  24.338  54.081  1.00  0.00    -0.342 OA
BRANCH  21  22
HETATM   22  C   UNL     1       6.952  24.397  55.094  1.00  0.00     0.076 A 
HETATM   23  C   UNL     1       7.711  23.273  55.452  1.00  0.00    -0.021 A 
HETATM   24  C   UNL     1       8.632  23.428  56.513  1.00  0.00     0.010 A 
HETATM   25  C   UNL     1       8.754  24.628  57.216  1.00  0.00     0.001 A 
HETATM   26  C   UNL     1       7.947  25.707  56.886  1.00  0.00     0.003 A 
HETATM   27  C   UNL     1       7.043  25.588  55.834  1.00  0.00     0.037 A 
BRANCH  23  28
HETATM   28  C   UNL     1       7.614  21.881  54.828  1.00  0.00     0.017 C 
HETATM   29  C   UNL     1       7.807  20.665  55.741  1.00  0.00     0.015 C 
BRANCH  28  30
HETATM   30  C   UNL     1       8.499  21.753  53.562  1.00  0.00     0.004 C 
HETATM   31  C   UNL     1       8.357  20.437  52.809  1.00  0.00     0.006 C 
ENDBRANCH  28  30
ENDBRANCH  23  28
ENDBRANCH  21  22
ENDBRANCH  20  21
ENDBRANCH   1  20
TORSDOF 7
ENDMDL
MODEL 6
REMARK VINA RESULT:      -8.7      5.468      8.116
REMARK  7 active torsions:
REMARK  status: ('A' for Active; 'I' for Inactive)
REMARK    1  A    between atoms: C_2  and  C_3 
REMARK    2  A    between atoms: C_3  and  C_4 
REMARK    3  A    between atoms: C_5  and  O_6 
REMARK    4  A    between atoms: O_6  and  C_7 
REMARK    5  A    between atoms: C_7  and  C_8 
REMARK       I    between atoms: C_8  and  N_9 
REMARK    6  A    between atoms: N_9  and  C_10 
REMARK    7  A    between atoms: C_17  and  C_18 
REMARK       I    between atoms: C_18  and  N_19 
ROOT
HETATM    1  C   UNL     1       5.566  25.928  52.178  1.00  0.00     0.246 C 
HETATM    2  N   UNL     1       5.804  26.017  50.808  1.00  0.00    -0.325 N 
HETATM    3  O   UNL     1       4.640  26.460  52.781  1.00  0.00    -0.271 OA
HETATM    4  H   UNL     1       6.586  25.486  50.443  1.00  0.00     0.169 HD
ENDROOT
BRANCH   2   5
HETATM    5  C   UNL     1       5.090  26.779  49.857  1.00  0.00     0.035 A 
HETATM    6  C   UNL     1       5.417  28.145  49.769  1.00  0.00     0.046 A 
HETATM    7  C   UNL     1       4.731  28.974  48.858  1.00  0.00     0.030 A 
HETATM    8  C   UNL     1       3.742  28.414  48.060  1.00  0.00     0.063 A 
HETATM    9  C   UNL     1       4.765  30.353  48.492  1.00  0.00     0.156 A 
HETATM   10  N   UNL     1       3.264  29.444  47.298  1.00  0.00    -0.277 N 
HETATM   11  C   UNL     1       3.396  27.064  48.117  1.00  0.00     0.034 A 
HETATM   12  H   UNL     1       2.530  29.400  46.600  1.00  0.00     0.189 HD
HETATM   13  N   UNL     1       3.856  30.628  47.530  1.00  0.00    -0.168 NA
HETATM   14  C   UNL     1       4.090  26.260  49.033  1.00  0.00     0.032 A 
BRANCH   9  15
HETATM   15  C   UNL     1       5.639  31.397  49.042  1.00  0.00     0.270 C 
HETATM   16  N   UNL     1       5.626  32.568  48.336  1.00  0.00    -0.365 N 
HETATM   17  H   UNL     1       5.038  32.631  47.513  1.00  0.00     0.159 HD
HETATM   18  H   UNL     1       6.194  33.345  48.636  1.00  0.00     0.159 HD
HETATM   19  O   UNL     1       6.331  31.263  50.047  1.00  0.00    -0.266 OA
ENDBRANCH   9  15
ENDBRANCH   2   5
BRANCH   1  20
HETATM   20  C   UNL     1       6.627  25.070  52.884  1.00  0.00     0.278 C 
BRANCH  20  21
HETATM   21  O   UNL     1       6.112  24.456  54.066  1.00  0.00    -0.342 OA
BRANCH  21  22
HETATM   22  C   UNL     1       7.025  24.445  55.086  1.00  0.00     0.076 A 
HETATM   23  C   UNL     1       7.714  23.273  55.432  1.00  0.00    -0.021 A 
HETATM   24  C   UNL     1       8.633  23.357  56.502  1.00  0.00     0.010 A 
HETATM   25  C   UNL     1       8.819  24.537  57.225  1.00  0.00     0.001 A 
HETATM   26  C   UNL     1       8.080  25.667  56.906  1.00  0.00     0.003 A 
HETATM   27  C   UNL     1       7.179  25.617  55.846  1.00  0.00     0.037 A 
BRANCH  23  28
HETATM   28  C   UNL     1       7.540  21.898  54.786  1.00  0.00     0.017 C 
HETATM   29  C   UNL     1       7.831  20.658  55.636  1.00  0.00     0.015 C 
BRANCH  28  30
HETATM   30  C   UNL     1       8.274  21.805  53.423  1.00  0.00     0.004 C 
HETATM   31  C   UNL     1       8.390  20.398  52.851  1.00  0.00     0.006 C 
ENDBRANCH  28  30
ENDBRANCH  23  28
ENDBRANCH  21  22
ENDBRANCH  20  21
ENDBRANCH   1  20
TORSDOF 7
ENDMDL
MODEL 7
REMARK VINA RESULT:      -8.6      4.338      7.443
REMARK  7 active torsions:
REMARK  status: ('A' for Active; 'I' for Inactive)
REMARK    1  A    between atoms: C_2  and  C_3 
REMARK    2  A    between atoms: C_3  and  C_4 
REMARK    3  A    between atoms: C_5  and  O_6 
REMARK    4  A    between atoms: O_6  and  C_7 
REMARK    5  A    between atoms: C_7  and  C_8 
REMARK       I    between atoms: C_8  and  N_9 
REMARK    6  A    between atoms: N_9  and  C_10 
REMARK    7  A    between atoms: C_17  and  C_18 
REMARK       I    between atoms: C_18  and  N_19 
ROOT
HETATM    1  C   UNL     1       5.470  32.504  59.804  1.00  0.00     0.246 C 
HETATM    2  N   UNL     1       6.079  31.834  60.863  1.00  0.00    -0.325 N 
HETATM    3  O   UNL     1       5.165  33.692  59.787  1.00  0.00    -0.271 OA
HETATM    4  H   UNL     1       6.312  30.859  60.716  1.00  0.00     0.169 HD
ENDROOT
BRANCH   2   5
HETATM    5  C   UNL     1       6.400  32.350  62.139  1.00  0.00     0.035 A 
HETATM    6  C   UNL     1       5.347  32.929  62.869  1.00  0.00     0.046 A 
HETATM    7  C   UNL     1       5.596  33.485  64.141  1.00  0.00     0.030 A 
HETATM    8  C   UNL     1       6.889  33.442  64.646  1.00  0.00     0.063 A 
HETATM    9  C   UNL     1       4.827  34.143  65.146  1.00  0.00     0.156 A 
HETATM   10  N   UNL     1       6.820  34.048  65.870  1.00  0.00    -0.277 N 
HETATM   11  C   UNL     1       7.955  32.871  63.953  1.00  0.00     0.034 A 
HETATM   12  H   UNL     1       7.581  34.197  66.523  1.00  0.00     0.189 HD
HETATM   13  N   UNL     1       5.594  34.485  66.206  1.00  0.00    -0.168 NA
HETATM   14  C   UNL     1       7.684  32.327  62.688  1.00  0.00     0.032 A 
BRANCH   9  15
HETATM   15  C   UNL     1       3.391  34.448  65.110  1.00  0.00     0.270 C 
HETATM   16  N   UNL     1       2.977  35.314  66.084  1.00  0.00    -0.365 N 
HETATM   17  H   UNL     1       3.664  35.671  66.739  1.00  0.00     0.159 HD
HETATM   18  H   UNL     1       2.008  35.584  66.141  1.00  0.00     0.159 HD
HETATM   19  O   UNL     1       2.605  33.984  64.290  1.00  0.00    -0.266 OA
ENDBRANCH   9  15
ENDBRANCH   2   5
BRANCH   1  20
HETATM   20  C   UNL     1       5.201  31.565  58.619  1.00  0.00     0.278 C 
BRANCH  20  21
HETATM   21  O   UNL     1       6.390  31.300  57.872  1.00  0.00    -0.342 OA
BRANCH  21  22
HETATM   22  C   UNL     1       6.580  29.961  57.657  1.00  0.00     0.076 A 
HETATM   23  C   UNL     1       7.868  29.405  57.630  1.00  0.00    -0.021 A 
HETATM   24  C   UNL     1       7.966  28.015  57.396  1.00  0.00     0.010 A 
HETATM   25  C   UNL     1       6.840  27.227  57.149  1.00  0.00     0.001 A 
HETATM   26  C   UNL     1       5.582  27.810  57.116  1.00  0.00     0.003 A 
HETATM   27  C   UNL     1       5.455  29.174  57.360  1.00  0.00     0.037 A 
BRANCH  23  28
HETATM   28  C   UNL     1       9.184  30.165  57.796  1.00  0.00     0.017 C 
HETATM   29  C   UNL     1      10.449  29.564  57.174  1.00  0.00     0.015 C 
BRANCH  28  30
HETATM   30  C   UNL     1       9.441  30.560  59.273  1.00  0.00     0.004 C 
HETATM   31  C   UNL     1       9.459  32.059  59.544  1.00  0.00     0.006 C 
ENDBRANCH  28  30
ENDBRANCH  23  28
ENDBRANCH  21  22
ENDBRANCH  20  21
ENDBRANCH   1  20
TORSDOF 7
ENDMDL
MODEL 8
REMARK VINA RESULT:      -8.5      5.611      9.029
REMARK  7 active torsions:
REMARK  status: ('A' for Active; 'I' for Inactive)
REMARK    1  A    between atoms: C_2  and  C_3 
REMARK    2  A    between atoms: C_3  and  C_4 
REMARK    3  A    between atoms: C_5  and  O_6 
REMARK    4  A    between atoms: O_6  and  C_7 
REMARK    5  A    between atoms: C_7  and  C_8 
REMARK       I    between atoms: C_8  and  N_9 
REMARK    6  A    between atoms: N_9  and  C_10 
REMARK    7  A    between atoms: C_17  and  C_18 
REMARK       I    between atoms: C_18  and  N_19 
ROOT
HETATM    1  C   UNL     1       5.881  26.036  51.972  1.00  0.00     0.246 C 
HETATM    2  N   UNL     1       5.922  26.486  50.654  1.00  0.00    -0.325 N 
HETATM    3  O   UNL     1       5.160  26.480  52.859  1.00  0.00    -0.271 OA
HETATM    4  H   UNL     1       6.538  25.992  50.020  1.00  0.00     0.169 HD
ENDROOT
BRANCH   2   5
HETATM    5  C   UNL     1       5.214  27.570  50.090  1.00  0.00     0.035 A 
HETATM    6  C   UNL     1       4.099  27.251  49.293  1.00  0.00     0.046 A 
HETATM    7  C   UNL     1       3.356  28.280  48.679  1.00  0.00     0.030 A 
HETATM    8  C   UNL     1       3.746  29.597  48.882  1.00  0.00     0.063 A 
HETATM    9  C   UNL     1       2.214  28.359  47.827  1.00  0.00     0.156 A 
HETATM   10  N   UNL     1       2.855  30.353  48.172  1.00  0.00    -0.277 N 
HETATM   11  C   UNL     1       4.842  29.951  49.669  1.00  0.00     0.034 A 
HETATM   12  H   UNL     1       2.837  31.364  48.091  1.00  0.00     0.189 HD
HETATM   13  N   UNL     1       1.917  29.643  47.523  1.00  0.00    -0.168 NA
HETATM   14  C   UNL     1       5.567  28.909  50.268  1.00  0.00     0.032 A 
BRANCH   9  15
HETATM   15  C   UNL     1       1.415  27.243  47.305  1.00  0.00     0.270 C 
HETATM   16  N   UNL     1       2.128  26.343  46.562  1.00  0.00    -0.365 N 
HETATM   17  H   UNL     1       3.120  26.504  46.428  1.00  0.00     0.159 HD
HETATM   18  H   UNL     1       1.666  25.542  46.160  1.00  0.00     0.159 HD
HETATM   19  O   UNL     1       0.212  27.101  47.502  1.00  0.00    -0.266 OA
ENDBRANCH   9  15
ENDBRANCH   2   5
BRANCH   1  20
HETATM   20  C   UNL     1       6.875  24.890  52.212  1.00  0.00     0.278 C 
BRANCH  20  21
HETATM   21  O   UNL     1       7.235  24.781  53.590  1.00  0.00    -0.342 OA
BRANCH  21  22
HETATM   22  C   UNL     1       7.455  23.483  53.968  1.00  0.00     0.076 A 
HETATM   23  C   UNL     1       7.421  23.104  55.318  1.00  0.00    -0.021 A 
HETATM   24  C   UNL     1       7.665  21.744  55.613  1.00  0.00     0.010 A 
HETATM   25  C   UNL     1       7.978  20.817  54.616  1.00  0.00     0.001 A 
HETATM   26  C   UNL     1       8.068  21.228  53.294  1.00  0.00     0.003 A 
HETATM   27  C   UNL     1       7.816  22.559  52.974  1.00  0.00     0.037 A 
BRANCH  23  28
HETATM   28  C   UNL     1       7.181  24.030  56.511  1.00  0.00     0.017 C 
HETATM   29  C   UNL     1       5.968  24.964  56.467  1.00  0.00     0.015 C 
BRANCH  28  30
HETATM   30  C   UNL     1       8.459  24.818  56.897  1.00  0.00     0.004 C 
HETATM   31  C   UNL     1       8.228  26.279  57.261  1.00  0.00     0.006 C 
ENDBRANCH  28  30
ENDBRANCH  23  28
ENDBRANCH  21  22
ENDBRANCH  20  21
ENDBRANCH   1  20
TORSDOF 7
ENDMDL
MODEL 9
REMARK VINA RESULT:      -8.5      5.342      7.777
REMARK  7 active torsions:
REMARK  status: ('A' for Active; 'I' for Inactive)
REMARK    1  A    between atoms: C_2  and  C_3 
REMARK    2  A    between atoms: C_3  and  C_4 
REMARK    3  A    between atoms: C_5  and  O_6 
REMARK    4  A    between atoms: O_6  and  C_7 
REMARK    5  A    between atoms: C_7  and  C_8 
REMARK       I    between atoms: C_8  and  N_9 
REMARK    6  A    between atoms: N_9  and  C_10 
REMARK    7  A    between atoms: C_17  and  C_18 
REMARK       I    between atoms: C_18  and  N_19 
ROOT
HETATM    1  C   UNL     1       6.104  25.427  51.676  1.00  0.00     0.246 C 
HETATM    2  N   UNL     1       6.024  26.277  50.576  1.00  0.00    -0.325 N 
HETATM    3  O   UNL     1       5.167  25.091  52.393  1.00  0.00    -0.271 OA
HETATM    4  H   UNL     1       6.877  26.429  50.051  1.00  0.00     0.169 HD
ENDROOT
BRANCH   2   5
HETATM    5  C   UNL     1       4.890  26.976  50.107  1.00  0.00     0.035 A 
HETATM    6  C   UNL     1       4.594  28.197  50.740  1.00  0.00     0.046 A 
HETATM    7  C   UNL     1       3.463  28.940  50.341  1.00  0.00     0.030 A 
HETATM    8  C   UNL     1       2.665  28.444  49.319  1.00  0.00     0.063 A 
HETATM    9  C   UNL     1       2.849  30.169  50.727  1.00  0.00     0.156 A 
HETATM   10  N   UNL     1       1.665  29.363  49.160  1.00  0.00    -0.277 N 
HETATM   11  C   UNL     1       2.931  27.240  48.666  1.00  0.00     0.034 A 
HETATM   12  H   UNL     1       0.897  29.324  48.499  1.00  0.00     0.189 HD
HETATM   13  N   UNL     1       1.742  30.417  49.991  1.00  0.00    -0.168 NA
HETATM   14  C   UNL     1       4.059  26.517  49.082  1.00  0.00     0.032 A 
BRANCH   9  15
HETATM   15  C   UNL     1       3.296  31.096  51.775  1.00  0.00     0.270 C 
HETATM   16  N   UNL     1       2.338  31.397  52.702  1.00  0.00    -0.365 N 
HETATM   17  H   UNL     1       1.421  30.977  52.605  1.00  0.00     0.159 HD
HETATM   18  H   UNL     1       2.550  32.026  53.461  1.00  0.00     0.159 HD
HETATM   19  O   UNL     1       4.424  31.574  51.840  1.00  0.00    -0.266 OA
ENDBRANCH   9  15
ENDBRANCH   2   5
BRANCH   1  20
HETATM   20  C   UNL     1       7.541  24.940  51.914  1.00  0.00     0.278 C 
BRANCH  20  21
HETATM   21  O   UNL     1       7.879  24.945  53.302  1.00  0.00    -0.342 OA
BRANCH  21  22
HETATM   22  C   UNL     1       7.854  23.689  53.847  1.00  0.00     0.076 A 
HETATM   23  C   UNL     1       7.871  23.501  55.238  1.00  0.00    -0.021 A 
HETATM   24  C   UNL     1       7.848  22.168  55.708  1.00  0.00     0.010 A 
HETATM   25  C   UNL     1       7.862  21.077  54.837  1.00  0.00     0.001 A 
HETATM   26  C   UNL     1       7.911  21.288  53.466  1.00  0.00     0.003 A 
HETATM   27  C   UNL     1       7.917  22.590  52.975  1.00  0.00     0.037 A 
BRANCH  23  28
HETATM   28  C   UNL     1       7.946  24.599  56.298  1.00  0.00     0.017 C 
HETATM   29  C   UNL     1       8.996  24.464  57.406  1.00  0.00     0.015 C 
BRANCH  28  30
HETATM   30  C   UNL     1       6.554  24.911  56.906  1.00  0.00     0.004 C 
HETATM   31  C   UNL     1       5.510  25.394  55.908  1.00  0.00     0.006 C 
ENDBRANCH  28  30
ENDBRANCH  23  28
ENDBRANCH  21  22
ENDBRANCH  20  21
ENDBRANCH   1  20
TORSDOF 7
ENDMDL
MODEL 10
REMARK VINA RESULT:      -8.5      4.464      9.395
REMARK  7 active torsions:
REMARK  status: ('A' for Active; 'I' for Inactive)
REMARK    1  A    between atoms: C_2  and  C_3 
REMARK    2  A    between atoms: C_3  and  C_4 
REMARK    3  A    between atoms: C_5  and  O_6 
REMARK    4  A    between atoms: O_6  and  C_7 
REMARK    5  A    between atoms: C_7  and  C_8 
REMARK       I    between atoms: C_8  and  N_9 
REMARK    6  A    between atoms: N_9  and  C_10 
REMARK    7  A    between atoms: C_17  and  C_18 
REMARK       I    between atoms: C_18  and  N_19 
ROOT
HETATM    1  C   UNL     1       4.951  32.543  59.536  1.00  0.00     0.246 C 
HETATM    2  N   UNL     1       4.429  31.347  59.048  1.00  0.00    -0.325 N 
HETATM    3  O   UNL     1       5.698  33.302  58.927  1.00  0.00    -0.271 OA
HETATM    4  H   UNL     1       3.788  30.847  59.652  1.00  0.00     0.169 HD
ENDROOT
BRANCH   2   5
HETATM    5  C   UNL     1       4.701  30.731  57.806  1.00  0.00     0.035 A 
HETATM    6  C   UNL     1       5.991  30.194  57.637  1.00  0.00     0.046 A 
HETATM    7  C   UNL     1       6.343  29.583  56.416  1.00  0.00     0.030 A 
HETATM    8  C   UNL     1       5.396  29.523  55.402  1.00  0.00     0.063 A 
HETATM    9  C   UNL     1       7.504  28.954  55.875  1.00  0.00     0.156 A 
HETATM   10  N   UNL     1       6.017  28.891  54.362  1.00  0.00    -0.277 N 
HETATM   11  C   UNL     1       4.107  30.041  55.537  1.00  0.00     0.034 A 
HETATM   12  H   UNL     1       5.623  28.676  53.452  1.00  0.00     0.189 HD
HETATM   13  N   UNL     1       7.289  28.532  54.609  1.00  0.00    -0.168 NA
HETATM   14  C   UNL     1       3.781  30.646  56.760  1.00  0.00     0.032 A 
BRANCH   9  15
HETATM   15  C   UNL     1       8.798  28.755  56.540  1.00  0.00     0.270 C 
HETATM   16  N   UNL     1       9.778  29.613  56.127  1.00  0.00    -0.365 N 
HETATM   17  H   UNL     1       9.553  30.301  55.417  1.00  0.00     0.159 HD
HETATM   18  H   UNL     1      10.702  29.554  56.526  1.00  0.00     0.159 HD
HETATM   19  O   UNL     1       9.012  27.902  57.397  1.00  0.00    -0.266 OA
ENDBRANCH   9  15
ENDBRANCH   2   5
BRANCH   1  20
HETATM   20  C   UNL     1       4.484  32.822  60.972  1.00  0.00     0.278 C 
BRANCH  20  21
HETATM   21  O   UNL     1       4.993  31.855  61.892  1.00  0.00    -0.342 OA
BRANCH  21  22
HETATM   22  C   UNL     1       5.824  32.415  62.827  1.00  0.00     0.076 A 
HETATM   23  C   UNL     1       7.218  32.282  62.732  1.00  0.00    -0.021 A 
HETATM   24  C   UNL     1       7.994  32.889  63.745  1.00  0.00     0.010 A 
HETATM   25  C   UNL     1       7.409  33.550  64.827  1.00  0.00     0.001 A 
HETATM   26  C   UNL     1       6.027  33.612  64.934  1.00  0.00     0.003 A 
HETATM   27  C   UNL     1       5.239  33.038  63.941  1.00  0.00     0.037 A 
BRANCH  23  28
HETATM   28  C   UNL     1       7.981  31.513  61.654  1.00  0.00     0.017 C 
HETATM   29  C   UNL     1       8.983  30.444  62.102  1.00  0.00     0.015 C 
BRANCH  28  30
HETATM   30  C   UNL     1       8.631  32.464  60.616  1.00  0.00     0.004 C 
HETATM   31  C   UNL     1       9.080  31.795  59.324  1.00  0.00     0.006 C 
ENDBRANCH  28  30
ENDBRANCH  23  28
ENDBRANCH  21  22
ENDBRANCH  20  21
ENDBRANCH   1  20
TORSDOF 7
ENDMDL
