MODEL 1
REMARK VINA RESULT:      -8.7      0.000      0.000
REMARK  6 active torsions:
REMARK  status: ('A' for Active; 'I' for Inactive)
REMARK    1  A    between atoms: C_3  and  N_4 
REMARK    2  A    between atoms: N_4  and  C_5 
REMARK    3  A    between atoms: C_5  and  C_6 
REMARK    4  A    between atoms: N_8  and  C_10 
REMARK    5  A    between atoms: C_10  and  C_11 
REMARK    6  A    between atoms: C_16  and  O_17 
ROOT
HETATM    1  C   UNL     1       4.892  26.180  52.435  1.00  0.00     0.031 C 
HETATM    2  C   UNL     1       5.490  24.812  52.770  1.00  0.00     0.241 C 
HETATM    3  N   UNL     1       6.447  25.052  53.919  1.00  0.00    -0.067 N 
HETATM    4  H   UNL     1       6.119  24.471  54.708  1.00  0.00     0.280 HD
HETATM    5  C   UNL     1       6.313  26.491  54.355  1.00  0.00     0.235 C 
HETATM    6  C   UNL     1       4.977  26.917  53.772  1.00  0.00     0.035 C 
ENDROOT
BRANCH   3   7
HETATM    7  C   UNL     1       7.861  24.588  53.663  1.00  0.00     0.274 C 
BRANCH   7   8
HETATM    8  C   UNL     1       8.115  23.168  54.082  1.00  0.00    -0.013 A 
HETATM    9  C   UNL     1       8.447  22.806  55.398  1.00  0.00     0.019 A 
HETATM   10 BR   UNL     1       8.631  24.105  56.772  1.00  0.00    -0.051 Br
HETATM   11  C   UNL     1       8.671  21.467  55.737  1.00  0.00     0.022 A 
HETATM   12  C   UNL     1       8.579  20.471  54.765  1.00  0.00     0.038 A 
HETATM   13  C   UNL     1       8.262  20.824  53.462  1.00  0.00     0.066 A 
HETATM   14  C   UNL     1       8.028  22.151  53.116  1.00  0.00     0.046 A 
BRANCH  13  15
HETATM   15  O   UNL     1       8.169  19.900  52.467  1.00  0.00    -0.361 OA
HETATM   16  H   UNL     1       7.879  20.337  51.646  1.00  0.00     0.217 HD
ENDBRANCH  13  15
ENDBRANCH   7   8
ENDBRANCH   3   7
BRANCH   1  17
HETATM   17  C   UNL     1       5.637  26.916  51.303  1.00  0.00     0.127 C 
BRANCH  17  18
HETATM   18  N   UNL     1       5.307  26.313  50.017  1.00  0.00    -0.376 N 
HETATM   19  H   UNL     1       6.126  26.195  49.411  1.00  0.00     0.161 HD
BRANCH  18  20
HETATM   20  C   UNL     1       4.197  26.611  49.230  1.00  0.00     0.100 A 
HETATM   21  C   UNL     1       3.971  25.849  48.070  1.00  0.00     0.048 A 
HETATM   22  C   UNL     1       2.858  26.092  47.269  1.00  0.00     0.005 A 
HETATM   23  C   UNL     1       1.965  27.088  47.629  1.00  0.00     0.017 A 
HETATM   24  C   UNL     1       2.202  27.807  48.789  1.00  0.00     0.089 A 
HETATM   25  N   UNL     1       3.283  27.544  49.546  1.00  0.00    -0.353 N 
HETATM   26  H   UNL     1       3.403  28.096  50.386  1.00  0.00     0.166 HD
ENDBRANCH  18  20
ENDBRANCH  17  18
ENDBRANCH   1  17
TORSDOF 6
ENDMDL
MODEL 2
REMARK VINA RESULT:      -8.7      2.873      5.290
REMARK  6 active torsions:
REMARK  status: ('A' for Active; 'I' for Inactive)
REMARK    1  A    between atoms: C_3  and  N_4 
REMARK    2  A    between atoms: N_4  and  C_5 
REMARK    3  A    between atoms: C_5  and  C_6 
REMARK    4  A    between atoms: N_8  and  C_10 
REMARK    5  A    between atoms: C_10  and  C_11 
REMARK    6  A    between atoms: C_16  and  O_17 
ROOT
HETATM    1  C   UNL     1       5.637  26.842  52.348  1.00  0.00     0.031 C 
HETATM    2  C   UNL     1       6.874  25.980  52.084  1.00  0.00     0.241 C 
HETATM    3  N   UNL     1       6.732  24.772  52.986  1.00  0.00    -0.067 N 
HETATM    4  H   UNL     1       6.719  23.941  52.372  1.00  0.00     0.280 HD
HETATM    5  C   UNL     1       5.381  24.836  53.657  1.00  0.00     0.235 C 
HETATM    6  C   UNL     1       4.600  25.810  52.792  1.00  0.00     0.035 C 
ENDROOT
BRANCH   3   7
HETATM    7  C   UNL     1       7.900  24.545  53.915  1.00  0.00     0.274 C 
BRANCH   7   8
HETATM    8  C   UNL     1       8.122  23.100  54.264  1.00  0.00    -0.013 A 
HETATM    9  C   UNL     1       8.410  22.663  55.568  1.00  0.00     0.019 A 
HETATM   10 BR   UNL     1       8.574  23.884  57.014  1.00  0.00    -0.051 Br
HETATM   11  C   UNL     1       8.606  21.305  55.840  1.00  0.00     0.022 A 
HETATM   12  C   UNL     1       8.527  20.363  54.814  1.00  0.00     0.038 A 
HETATM   13  C   UNL     1       8.253  20.791  53.523  1.00  0.00     0.066 A 
HETATM   14  C   UNL     1       8.049  22.138  53.243  1.00  0.00     0.046 A 
BRANCH  13  15
HETATM   15  O   UNL     1       8.176  19.923  52.478  1.00  0.00    -0.361 OA
HETATM   16  H   UNL     1       7.276  19.945  52.105  1.00  0.00     0.217 HD
ENDBRANCH  13  15
ENDBRANCH   7   8
ENDBRANCH   3   7
BRANCH   1  17
HETATM   17  C   UNL     1       5.868  27.943  53.403  1.00  0.00     0.127 C 
BRANCH  17  18
HETATM   18  N   UNL     1       7.297  28.183  53.564  1.00  0.00    -0.376 N 
HETATM   19  H   UNL     1       7.872  27.576  52.970  1.00  0.00     0.161 HD
BRANCH  18  20
HETATM   20  C   UNL     1       7.964  28.403  54.768  1.00  0.00     0.100 A 
HETATM   21  C   UNL     1       7.601  27.634  55.887  1.00  0.00     0.048 A 
HETATM   22  C   UNL     1       8.260  27.798  57.103  1.00  0.00     0.005 A 
HETATM   23  C   UNL     1       9.288  28.723  57.199  1.00  0.00     0.017 A 
HETATM   24  C   UNL     1       9.638  29.449  56.073  1.00  0.00     0.089 A 
HETATM   25  N   UNL     1       8.986  29.262  54.912  1.00  0.00    -0.353 N 
HETATM   26  H   UNL     1       9.287  29.817  54.119  1.00  0.00     0.166 HD
ENDBRANCH  18  20
ENDBRANCH  17  18
ENDBRANCH   1  17
TORSDOF 6
ENDMDL
MODEL 3
REMARK VINA RESULT:      -8.3      4.779      7.065
REMARK  6 active torsions:
REMARK  status: ('A' for Active; 'I' for Inactive)
REMARK    1  A    between atoms: C_3  and  N_4 
REMARK    2  A    between atoms: N_4  and  C_5 
REMARK    3  A    between atoms: C_5  and  C_6 
REMARK    4  A    between atoms: N_8  and  C_10 
REMARK    5  A    between atoms: C_10  and  C_11 
REMARK    6  A    between atoms: C_16  and  O_17 
ROOT
HETATM    1  C   UNL     1       6.187  27.171  56.542  1.00  0.00     0.031 C 
HETATM    2  C   UNL     1       6.964  26.616  55.346  1.00  0.00     0.241 C 
HETATM    3  N   UNL     1       6.884  25.108  55.469  1.00  0.00    -0.067 N 
HETATM    4  H   UNL     1       6.425  24.762  54.610  1.00  0.00     0.280 HD
HETATM    5  C   UNL     1       5.963  24.774  56.617  1.00  0.00     0.235 C 
HETATM    6  C   UNL     1       5.181  26.058  56.832  1.00  0.00     0.035 C 
ENDROOT
BRANCH   3   7
HETATM    7  C   UNL     1       8.223  24.411  55.496  1.00  0.00     0.274 C 
BRANCH   7   8
HETATM    8  C   UNL     1       8.220  23.073  54.813  1.00  0.00    -0.013 A 
HETATM    9  C   UNL     1       8.032  22.920  53.429  1.00  0.00     0.019 A 
HETATM   10 BR   UNL     1       7.734  24.413  52.293  1.00  0.00    -0.051 Br
HETATM   11  C   UNL     1       8.041  21.651  52.841  1.00  0.00     0.022 A 
HETATM   12  C   UNL     1       8.227  20.513  53.627  1.00  0.00     0.038 A 
HETATM   13  C   UNL     1       8.402  20.657  54.995  1.00  0.00     0.066 A 
HETATM   14  C   UNL     1       8.403  21.916  55.589  1.00  0.00     0.046 A 
BRANCH  13  15
HETATM   15  O   UNL     1       8.575  19.587  55.817  1.00  0.00    -0.361 OA
HETATM   16  H   UNL     1       7.980  18.866  55.540  1.00  0.00     0.217 HD
ENDBRANCH  13  15
ENDBRANCH   7   8
ENDBRANCH   3   7
BRANCH   1  17
HETATM   17  C   UNL     1       7.079  27.495  57.758  1.00  0.00     0.127 C 
BRANCH  17  18
HETATM   18  N   UNL     1       7.333  28.930  57.818  1.00  0.00    -0.376 N 
HETATM   19  H   UNL     1       6.672  29.475  57.254  1.00  0.00     0.161 HD
BRANCH  18  20
HETATM   20  C   UNL     1       8.582  29.546  57.777  1.00  0.00     0.100 A 
HETATM   21  C   UNL     1       9.595  28.959  57.000  1.00  0.00     0.048 A 
HETATM   22  C   UNL     1      10.850  29.556  56.904  1.00  0.00     0.005 A 
HETATM   23  C   UNL     1      11.091  30.744  57.576  1.00  0.00     0.017 A 
HETATM   24  C   UNL     1      10.065  31.311  58.314  1.00  0.00     0.089 A 
HETATM   25  N   UNL     1       8.862  30.713  58.381  1.00  0.00    -0.353 N 
HETATM   26  H   UNL     1       8.148  31.174  58.931  1.00  0.00     0.166 HD
ENDBRANCH  18  20
ENDBRANCH  17  18
ENDBRANCH   1  17
TORSDOF 6
ENDMDL
MODEL 4
REMARK VINA RESULT:      -8.1      5.781      8.512
REMARK  6 active torsions:
REMARK  status: ('A' for Active; 'I' for Inactive)
REMARK    1  A    between atoms: C_3  and  N_4 
REMARK    2  A    between atoms: N_4  and  C_5 
REMARK    3  A    between atoms: C_5  and  C_6 
REMARK    4  A    between atoms: N_8  and  C_10 
REMARK    5  A    between atoms: C_10  and  C_11 
REMARK    6  A    between atoms: C_16  and  O_17 
ROOT
HETATM    1  C   UNL     1       7.243  25.205  56.703  1.00  0.00     0.031 C 
HETATM    2  C   UNL     1       8.082  26.278  57.401  1.00  0.00     0.241 C 
HETATM    3  N   UNL     1       7.225  27.527  57.412  1.00  0.00    -0.067 N 
HETATM    4  H   UNL     1       7.092  27.790  58.402  1.00  0.00     0.280 HD
HETATM    5  C   UNL     1       5.862  27.172  56.871  1.00  0.00     0.235 C 
HETATM    6  C   UNL     1       5.813  25.659  56.994  1.00  0.00     0.035 C 
ENDROOT
BRANCH   3   7
HETATM    7  C   UNL     1       7.872  28.735  56.778  1.00  0.00     0.274 C 
BRANCH   7   8
HETATM    8  C   UNL     1       8.192  29.831  57.754  1.00  0.00    -0.013 A 
HETATM    9  C   UNL     1       9.486  30.352  57.923  1.00  0.00     0.019 A 
HETATM   10 BR   UNL     1      10.966  29.685  56.936  1.00  0.00    -0.051 Br
HETATM   11  C   UNL     1       9.731  31.375  58.845  1.00  0.00     0.022 A 
HETATM   12  C   UNL     1       8.689  31.886  59.621  1.00  0.00     0.038 A 
HETATM   13  C   UNL     1       7.413  31.368  59.466  1.00  0.00     0.066 A 
HETATM   14  C   UNL     1       7.157  30.356  58.545  1.00  0.00     0.046 A 
BRANCH  13  15
HETATM   15  O   UNL     1       6.358  31.816  60.201  1.00  0.00    -0.361 OA
HETATM   16  H   UNL     1       6.647  31.976  61.117  1.00  0.00     0.217 HD
ENDBRANCH  13  15
ENDBRANCH   7   8
ENDBRANCH   3   7
BRANCH   1  17
HETATM   17  C   UNL     1       7.531  25.087  55.193  1.00  0.00     0.127 C 
BRANCH  17  18
HETATM   18  N   UNL     1       6.858  23.913  54.650  1.00  0.00    -0.376 N 
HETATM   19  H   UNL     1       5.895  23.814  54.989  1.00  0.00     0.161 HD
BRANCH  18  20
HETATM   20  C   UNL     1       7.415  22.646  54.490  1.00  0.00     0.100 A 
HETATM   21  C   UNL     1       7.738  22.213  53.193  1.00  0.00     0.048 A 
HETATM   22  C   UNL     1       8.325  20.966  52.988  1.00  0.00     0.005 A 
HETATM   23  C   UNL     1       8.598  20.156  54.078  1.00  0.00     0.017 A 
HETATM   24  C   UNL     1       8.289  20.619  55.346  1.00  0.00     0.089 A 
HETATM   25  N   UNL     1       7.729  21.831  55.511  1.00  0.00    -0.353 N 
HETATM   26  H   UNL     1       7.530  22.121  56.460  1.00  0.00     0.166 HD
ENDBRANCH  18  20
ENDBRANCH  17  18
ENDBRANCH   1  17
TORSDOF 6
ENDMDL
MODEL 5
REMARK VINA RESULT:      -8.1      3.159      7.959
REMARK  6 active torsions:
REMARK  status: ('A' for Active; 'I' for Inactive)
REMARK    1  A    between atoms: C_3  and  N_4 
REMARK    2  A    between atoms: N_4  and  C_5 
REMARK    3  A    between atoms: C_5  and  C_6 
REMARK    4  A    between atoms: N_8  and  C_10 
REMARK    5  A    between atoms: C_10  and  C_11 
REMARK    6  A    between atoms: C_16  and  O_17 
ROOT
HETATM    1  C   UNL     1       5.956  25.929  53.412  1.00  0.00     0.031 C 
HETATM    2  C   UNL     1       5.393  27.062  52.552  1.00  0.00     0.241 C 
HETATM    3  N   UNL     1       4.625  26.387  51.435  1.00  0.00    -0.067 N 
HETATM    4  H   UNL     1       3.647  26.715  51.504  1.00  0.00     0.280 HD
HETATM    5  C   UNL     1       4.604  24.902  51.704  1.00  0.00     0.235 C 
HETATM    6  C   UNL     1       4.949  24.802  53.179  1.00  0.00     0.035 C 
ENDROOT
BRANCH   3   7
HETATM    7  C   UNL     1       5.065  26.782  50.046  1.00  0.00     0.274 C 
BRANCH   7   8
HETATM    8  C   UNL     1       3.933  26.899  49.064  1.00  0.00    -0.013 A 
HETATM    9  C   UNL     1       2.977  27.928  49.118  1.00  0.00     0.019 A 
HETATM   10 BR   UNL     1       3.022  29.260  50.471  1.00  0.00    -0.051 Br
HETATM   11  C   UNL     1       1.943  27.993  48.178  1.00  0.00     0.022 A 
HETATM   12  C   UNL     1       1.841  27.026  47.177  1.00  0.00     0.038 A 
HETATM   13  C   UNL     1       2.775  26.003  47.126  1.00  0.00     0.066 A 
HETATM   14  C   UNL     1       3.813  25.933  48.051  1.00  0.00     0.046 A 
BRANCH  13  15
HETATM   15  O   UNL     1       2.722  25.024  46.183  1.00  0.00    -0.361 OA
HETATM   16  H   UNL     1       3.623  24.829  45.866  1.00  0.00     0.217 HD
ENDBRANCH  13  15
ENDBRANCH   7   8
ENDBRANCH   3   7
BRANCH   1  17
HETATM   17  C   UNL     1       7.395  25.526  53.033  1.00  0.00     0.127 C 
BRANCH  17  18
HETATM   18  N   UNL     1       7.983  24.724  54.100  1.00  0.00    -0.376 N 
HETATM   19  H   UNL     1       8.911  25.057  54.383  1.00  0.00     0.161 HD
BRANCH  18  20
HETATM   20  C   UNL     1       7.950  23.334  54.197  1.00  0.00     0.100 A 
HETATM   21  C   UNL     1       7.964  22.578  53.013  1.00  0.00     0.048 A 
HETATM   22  C   UNL     1       7.964  21.185  53.062  1.00  0.00     0.005 A 
HETATM   23  C   UNL     1       7.958  20.549  54.293  1.00  0.00     0.017 A 
HETATM   24  C   UNL     1       7.967  21.321  55.442  1.00  0.00     0.089 A 
HETATM   25  N   UNL     1       7.975  22.664  55.361  1.00  0.00    -0.353 N 
HETATM   26  H   UNL     1       7.987  23.179  56.233  1.00  0.00     0.166 HD
ENDBRANCH  18  20
ENDBRANCH  17  18
ENDBRANCH   1  17
TORSDOF 6
ENDMDL
MODEL 6
REMARK VINA RESULT:      -7.8      3.805      7.416
REMARK  6 active torsions:
REMARK  status: ('A' for Active; 'I' for Inactive)
REMARK    1  A    between atoms: C_3  and  N_4 
REMARK    2  A    between atoms: N_4  and  C_5 
REMARK    3  A    between atoms: C_5  and  C_6 
REMARK    4  A    between atoms: N_8  and  C_10 
REMARK    5  A    between atoms: C_10  and  C_11 
REMARK    6  A    between atoms: C_16  and  O_17 
ROOT
HETATM    1  C   UNL     1       7.719  25.985  56.448  1.00  0.00     0.031 C 
HETATM    2  C   UNL     1       7.339  26.688  55.142  1.00  0.00     0.241 C 
HETATM    3  N   UNL     1       6.240  27.664  55.507  1.00  0.00    -0.067 N 
HETATM    4  H   UNL     1       6.581  28.606  55.254  1.00  0.00     0.280 HD
HETATM    5  C   UNL     1       6.072  27.651  57.007  1.00  0.00     0.235 C 
HETATM    6  C   UNL     1       7.365  27.031  57.505  1.00  0.00     0.035 C 
ENDROOT
BRANCH   3   7
HETATM    7  C   UNL     1       4.965  27.493  54.717  1.00  0.00     0.274 C 
BRANCH   7   8
HETATM    8  C   UNL     1       5.143  27.678  53.236  1.00  0.00    -0.013 A 
HETATM    9  C   UNL     1       5.064  26.618  52.317  1.00  0.00     0.019 A 
HETATM   10 BR   UNL     1       4.748  24.832  52.882  1.00  0.00    -0.051 Br
HETATM   11  C   UNL     1       5.235  26.844  50.948  1.00  0.00     0.022 A 
HETATM   12  C   UNL     1       5.498  28.130  50.475  1.00  0.00     0.038 A 
HETATM   13  C   UNL     1       5.588  29.178  51.379  1.00  0.00     0.066 A 
HETATM   14  C   UNL     1       5.411  28.965  52.743  1.00  0.00     0.046 A 
BRANCH  13  15
HETATM   15  O   UNL     1       5.854  30.452  50.981  1.00  0.00    -0.361 OA
HETATM   16  H   UNL     1       5.610  30.557  50.044  1.00  0.00     0.217 HD
ENDBRANCH  13  15
ENDBRANCH   7   8
ENDBRANCH   3   7
BRANCH   1  17
HETATM   17  C   UNL     1       6.979  24.649  56.664  1.00  0.00     0.127 C 
BRANCH  17  18
HETATM   18  N   UNL     1       7.902  23.535  56.482  1.00  0.00    -0.376 N 
HETATM   19  H   UNL     1       8.874  23.785  56.696  1.00  0.00     0.161 HD
BRANCH  18  20
HETATM   20  C   UNL     1       7.889  22.620  55.432  1.00  0.00     0.100 A 
HETATM   21  C   UNL     1       7.861  23.109  54.115  1.00  0.00     0.048 A 
HETATM   22  C   UNL     1       7.877  22.231  53.033  1.00  0.00     0.005 A 
HETATM   23  C   UNL     1       7.931  20.866  53.265  1.00  0.00     0.017 A 
HETATM   24  C   UNL     1       7.981  20.416  54.574  1.00  0.00     0.089 A 
HETATM   25  N   UNL     1       7.970  21.289  55.597  1.00  0.00    -0.353 N 
HETATM   26  H   UNL     1       8.014  20.904  56.532  1.00  0.00     0.166 HD
ENDBRANCH  18  20
ENDBRANCH  17  18
ENDBRANCH   1  17
TORSDOF 6
ENDMDL
MODEL 7
REMARK VINA RESULT:      -7.6      5.847      8.574
REMARK  6 active torsions:
REMARK  status: ('A' for Active; 'I' for Inactive)
REMARK    1  A    between atoms: C_3  and  N_4 
REMARK    2  A    between atoms: N_4  and  C_5 
REMARK    3  A    between atoms: C_5  and  C_6 
REMARK    4  A    between atoms: N_8  and  C_10 
REMARK    5  A    between atoms: C_10  and  C_11 
REMARK    6  A    between atoms: C_16  and  O_17 
ROOT
HETATM    1  C   UNL     1       6.816  24.978  56.784  1.00  0.00     0.031 C 
HETATM    2  C   UNL     1       7.420  26.097  57.636  1.00  0.00     0.241 C 
HETATM    3  N   UNL     1       6.561  27.317  57.381  1.00  0.00    -0.067 N 
HETATM    4  H   UNL     1       6.170  27.604  58.293  1.00  0.00     0.280 HD
HETATM    5  C   UNL     1       5.393  26.903  56.520  1.00  0.00     0.235 C 
HETATM    6  C   UNL     1       5.349  25.394  56.681  1.00  0.00     0.035 C 
ENDROOT
BRANCH   3   7
HETATM    7  C   UNL     1       7.322  28.526  56.892  1.00  0.00     0.274 C 
BRANCH   7   8
HETATM    8  C   UNL     1       7.275  29.693  57.838  1.00  0.00    -0.013 A 
HETATM    9  C   UNL     1       6.322  30.721  57.739  1.00  0.00     0.019 A 
HETATM   10 BR   UNL     1       5.012  30.736  56.364  1.00  0.00    -0.051 Br
HETATM   11  C   UNL     1       6.320  31.784  58.648  1.00  0.00     0.022 A 
HETATM   12  C   UNL     1       7.275  31.843  59.664  1.00  0.00     0.038 A 
HETATM   13  C   UNL     1       8.225  30.837  59.759  1.00  0.00     0.066 A 
HETATM   14  C   UNL     1       8.230  29.770  58.865  1.00  0.00     0.046 A 
BRANCH  13  15
HETATM   15  O   UNL     1       9.189  30.844  60.718  1.00  0.00    -0.361 OA
HETATM   16  H   UNL     1       8.786  31.046  61.582  1.00  0.00     0.217 HD
ENDBRANCH  13  15
ENDBRANCH   7   8
ENDBRANCH   3   7
BRANCH   1  17
HETATM   17  C   UNL     1       7.488  24.826  55.404  1.00  0.00     0.127 C 
BRANCH  17  18
HETATM   18  N   UNL     1       6.895  23.704  54.685  1.00  0.00    -0.376 N 
HETATM   19  H   UNL     1       5.896  23.587  54.886  1.00  0.00     0.161 HD
BRANCH  18  20
HETATM   20  C   UNL     1       7.472  22.450  54.499  1.00  0.00     0.100 A 
HETATM   21  C   UNL     1       7.884  22.086  53.205  1.00  0.00     0.048 A 
HETATM   22  C   UNL     1       8.494  20.854  52.977  1.00  0.00     0.005 A 
HETATM   23  C   UNL     1       8.699  19.990  54.040  1.00  0.00     0.017 A 
HETATM   24  C   UNL     1       8.303  20.386  55.307  1.00  0.00     0.089 A 
HETATM   25  N   UNL     1       7.723  21.585  55.496  1.00  0.00    -0.353 N 
HETATM   26  H   UNL     1       7.458  21.825  56.443  1.00  0.00     0.166 HD
ENDBRANCH  18  20
ENDBRANCH  17  18
ENDBRANCH   1  17
TORSDOF 6
ENDMDL
MODEL 8
REMARK VINA RESULT:      -7.6      5.398      8.522
REMARK  6 active torsions:
REMARK  status: ('A' for Active; 'I' for Inactive)
REMARK    1  A    between atoms: C_3  and  N_4 
REMARK    2  A    between atoms: N_4  and  C_5 
REMARK    3  A    between atoms: C_5  and  C_6 
REMARK    4  A    between atoms: N_8  and  C_10 
REMARK    5  A    between atoms: C_10  and  C_11 
REMARK    6  A    between atoms: C_16  and  O_17 
ROOT
HETATM    1  C   UNL     1       7.573  29.236  56.460  1.00  0.00     0.031 C 
HETATM    2  C   UNL     1       7.778  27.937  55.676  1.00  0.00     0.241 C 
HETATM    3  N   UNL     1       6.393  27.362  55.467  1.00  0.00    -0.067 N 
HETATM    4  H   UNL     1       6.250  27.291  54.446  1.00  0.00     0.280 HD
HETATM    5  C   UNL     1       5.382  28.359  55.978  1.00  0.00     0.235 C 
HETATM    6  C   UNL     1       6.165  29.658  56.042  1.00  0.00     0.035 C 
ENDROOT
BRANCH   3   7
HETATM    7  C   UNL     1       6.219  25.951  55.977  1.00  0.00     0.274 C 
BRANCH   7   8
HETATM    8  C   UNL     1       6.844  24.908  55.095  1.00  0.00    -0.013 A 
HETATM    9  C   UNL     1       6.382  24.626  53.798  1.00  0.00     0.019 A 
HETATM   10 BR   UNL     1       4.889  25.533  53.053  1.00  0.00    -0.051 Br
HETATM   11  C   UNL     1       7.001  23.645  53.016  1.00  0.00     0.022 A 
HETATM   12  C   UNL     1       8.085  22.924  53.519  1.00  0.00     0.038 A 
HETATM   13  C   UNL     1       8.538  23.192  54.802  1.00  0.00     0.066 A 
HETATM   14  C   UNL     1       7.934  24.171  55.586  1.00  0.00     0.046 A 
BRANCH  13  15
HETATM   15  O   UNL     1       9.581  22.515  55.354  1.00  0.00    -0.361 OA
HETATM   16  H   UNL     1      10.073  23.109  55.951  1.00  0.00     0.217 HD
ENDBRANCH  13  15
ENDBRANCH   7   8
ENDBRANCH   3   7
BRANCH   1  17
HETATM   17  C   UNL     1       7.712  29.061  57.985  1.00  0.00     0.127 C 
BRANCH  17  18
HETATM   18  N   UNL     1       7.167  30.228  58.670  1.00  0.00    -0.376 N 
HETATM   19  H   UNL     1       6.898  30.978  58.024  1.00  0.00     0.161 HD
BRANCH  18  20
HETATM   20  C   UNL     1       7.655  30.794  59.846  1.00  0.00     0.100 A 
HETATM   21  C   UNL     1       9.019  30.642  60.148  1.00  0.00     0.048 A 
HETATM   22  C   UNL     1       9.558  31.217  61.297  1.00  0.00     0.005 A 
HETATM   23  C   UNL     1       8.737  31.951  62.139  1.00  0.00     0.017 A 
HETATM   24  C   UNL     1       7.402  32.102  61.802  1.00  0.00     0.089 A 
HETATM   25  N   UNL     1       6.914  31.540  60.682  1.00  0.00    -0.353 N 
HETATM   26  H   UNL     1       5.933  31.687  60.482  1.00  0.00     0.166 HD
ENDBRANCH  18  20
ENDBRANCH  17  18
ENDBRANCH   1  17
TORSDOF 6
ENDMDL
MODEL 9
REMARK VINA RESULT:      -7.5      4.430      8.283
REMARK  6 active torsions:
REMARK  status: ('A' for Active; 'I' for Inactive)
REMARK    1  A    between atoms: C_3  and  N_4 
REMARK    2  A    between atoms: N_4  and  C_5 
REMARK    3  A    between atoms: C_5  and  C_6 
REMARK    4  A    between atoms: N_8  and  C_10 
REMARK    5  A    between atoms: C_10  and  C_11 
REMARK    6  A    between atoms: C_16  and  O_17 
ROOT
HETATM    1  C   UNL     1       5.850  24.747  53.907  1.00  0.00     0.031 C 
HETATM    2  C   UNL     1       5.561  25.774  55.004  1.00  0.00     0.241 C 
HETATM    3  N   UNL     1       4.851  26.921  54.316  1.00  0.00    -0.067 N 
HETATM    4  H   UNL     1       3.928  27.016  54.770  1.00  0.00     0.280 HD
HETATM    5  C   UNL     1       4.591  26.527  52.883  1.00  0.00     0.235 C 
HETATM    6  C   UNL     1       4.733  25.015  52.898  1.00  0.00     0.035 C 
ENDROOT
BRANCH   3   7
HETATM    7  C   UNL     1       5.511  28.266  54.503  1.00  0.00     0.274 C 
BRANCH   7   8
HETATM    8  C   UNL     1       4.627  29.286  55.162  1.00  0.00    -0.013 A 
HETATM    9  C   UNL     1       3.882  30.234  54.441  1.00  0.00     0.019 A 
HETATM   10 BR   UNL     1       3.953  30.324  52.544  1.00  0.00    -0.051 Br
HETATM   11  C   UNL     1       3.071  31.162  55.103  1.00  0.00     0.022 A 
HETATM   12  C   UNL     1       2.999  31.164  56.497  1.00  0.00     0.038 A 
HETATM   13  C   UNL     1       3.741  30.238  57.214  1.00  0.00     0.066 A 
HETATM   14  C   UNL     1       4.544  29.305  56.564  1.00  0.00     0.046 A 
BRANCH  13  15
HETATM   15  O   UNL     1       3.723  30.197  58.574  1.00  0.00    -0.361 OA
HETATM   16  H   UNL     1       4.438  30.759  58.925  1.00  0.00     0.217 HD
ENDBRANCH  13  15
ENDBRANCH   7   8
ENDBRANCH   3   7
BRANCH   1  17
HETATM   17  C   UNL     1       7.255  24.887  53.288  1.00  0.00     0.127 C 
BRANCH  17  18
HETATM   18  N   UNL     1       8.233  24.193  54.117  1.00  0.00    -0.376 N 
HETATM   19  H   UNL     1       9.167  24.616  54.071  1.00  0.00     0.161 HD
BRANCH  18  20
HETATM   20  C   UNL     1       8.367  22.812  54.250  1.00  0.00     0.100 A 
HETATM   21  C   UNL     1       8.072  21.999  53.142  1.00  0.00     0.048 A 
HETATM   22  C   UNL     1       8.221  20.616  53.220  1.00  0.00     0.005 A 
HETATM   23  C   UNL     1       8.673  20.046  54.399  1.00  0.00     0.017 A 
HETATM   24  C   UNL     1       8.977  20.875  55.466  1.00  0.00     0.089 A 
HETATM   25  N   UNL     1       8.829  22.207  55.357  1.00  0.00    -0.353 N 
HETATM   26  H   UNL     1       9.071  22.766  56.167  1.00  0.00     0.166 HD
ENDBRANCH  18  20
ENDBRANCH  17  18
ENDBRANCH   1  17
TORSDOF 6
ENDMDL
MODEL 10
REMARK VINA RESULT:      -7.5      5.356      8.479
REMARK  6 active torsions:
REMARK  status: ('A' for Active; 'I' for Inactive)
REMARK    1  A    between atoms: C_3  and  N_4 
REMARK    2  A    between atoms: N_4  and  C_5 
REMARK    3  A    between atoms: C_5  and  C_6 
REMARK    4  A    between atoms: N_8  and  C_10 
REMARK    5  A    between atoms: C_10  and  C_11 
REMARK    6  A    between atoms: C_16  and  O_17 
ROOT
HETATM    1  C   UNL     1       6.250  29.690  56.410  1.00  0.00     0.031 C 
HETATM    2  C   UNL     1       6.641  28.678  55.329  1.00  0.00     0.241 C 
HETATM    3  N   UNL     1       6.339  27.315  55.915  1.00  0.00    -0.067 N 
HETATM    4  H   UNL     1       5.651  26.866  55.288  1.00  0.00     0.280 HD
HETATM    5  C   UNL     1       5.651  27.511  57.244  1.00  0.00     0.235 C 
HETATM    6  C   UNL     1       5.161  28.947  57.183  1.00  0.00     0.035 C 
ENDROOT
BRANCH   3   7
HETATM    7  C   UNL     1       7.515  26.369  55.935  1.00  0.00     0.274 C 
BRANCH   7   8
HETATM    8  C   UNL     1       7.539  25.411  54.777  1.00  0.00    -0.013 A 
HETATM    9  C   UNL     1       7.931  24.068  54.902  1.00  0.00     0.019 A 
HETATM   10 BR   UNL     1       8.498  23.346  56.565  1.00  0.00    -0.051 Br
HETATM   11  C   UNL     1       7.933  23.217  53.792  1.00  0.00     0.022 A 
HETATM   12  C   UNL     1       7.554  23.696  52.537  1.00  0.00     0.038 A 
HETATM   13  C   UNL     1       7.177  25.024  52.406  1.00  0.00     0.066 A 
HETATM   14  C   UNL     1       7.163  25.877  53.506  1.00  0.00     0.046 A 
BRANCH  13  15
HETATM   15  O   UNL     1       6.810  25.554  51.208  1.00  0.00    -0.361 OA
HETATM   16  H   UNL     1       5.930  25.965  51.291  1.00  0.00     0.217 HD
ENDBRANCH  13  15
ENDBRANCH   7   8
ENDBRANCH   3   7
BRANCH   1  17
HETATM   17  C   UNL     1       7.429  30.116  57.307  1.00  0.00     0.127 C 
BRANCH  17  18
HETATM   18  N   UNL     1       6.942  30.444  58.642  1.00  0.00    -0.376 N 
HETATM   19  H   UNL     1       6.043  30.938  58.628  1.00  0.00     0.161 HD
BRANCH  18  20
HETATM   20  C   UNL     1       7.709  30.926  59.702  1.00  0.00     0.100 A 
HETATM   21  C   UNL     1       8.936  31.547  59.414  1.00  0.00     0.048 A 
HETATM   22  C   UNL     1       9.721  32.072  60.439  1.00  0.00     0.005 A 
HETATM   23  C   UNL     1       9.278  31.984  61.748  1.00  0.00     0.017 A 
HETATM   24  C   UNL     1       8.053  31.386  61.998  1.00  0.00     0.089 A 
HETATM   25  N   UNL     1       7.315  30.896  60.986  1.00  0.00    -0.353 N 
HETATM   26  H   UNL     1       6.426  30.474  61.225  1.00  0.00     0.166 HD
ENDBRANCH  18  20
ENDBRANCH  17  18
ENDBRANCH   1  17
TORSDOF 6
ENDMDL
