MODEL 1
REMARK VINA RESULT:     -10.0      0.000      0.000
REMARK  3 active torsions:
REMARK  status: ('A' for Active; 'I' for Inactive)
REMARK    1  A    between atoms: C_3  and  C_4 
REMARK    2  A    between atoms: C_4  and  N_5 
REMARK       I    between atoms: N_5  and  C_6 
REMARK    3  A    between atoms: C_6  and  C_7 
ROOT
HETATM    1  C   UNL     1       6.398  25.711  55.352  1.00  0.00     0.155 A 
HETATM    2  N   UNL     1       5.970  25.756  54.068  1.00  0.00    -0.168 NA
HETATM    3  N   UNL     1       6.384  24.581  53.543  1.00  0.00    -0.276 N 
HETATM    4  H   UNL     1       6.165  24.382  52.572  1.00  0.00     0.189 HD
HETATM    5  C   UNL     1       7.062  23.808  54.429  1.00  0.00     0.074 A 
HETATM    6  C   UNL     1       7.098  24.509  55.603  1.00  0.00     0.031 A 
HETATM    7  C   UNL     1       7.763  23.972  56.811  1.00  0.00     0.219 A 
HETATM    8  O   UNL     1       8.429  22.689  56.640  1.00  0.00    -0.346 OA
HETATM    9  C   UNL     1       8.327  22.015  55.441  1.00  0.00     0.081 A 
HETATM   10  C   UNL     1       7.666  22.507  54.298  1.00  0.00     0.026 A 
HETATM   11  C   UNL     1       8.942  20.765  55.400  1.00  0.00     0.038 A 
HETATM   12  C   UNL     1       8.898  20.002  54.233  1.00  0.00     0.003 A 
HETATM   13  C   UNL     1       8.240  20.488  53.102  1.00  0.00     0.001 A 
HETATM   14  C   UNL     1       7.623  21.742  53.131  1.00  0.00     0.016 A 
ENDROOT
BRANCH   1  15
HETATM   15  C   UNL     1       6.137  26.801  56.305  1.00  0.00     0.272 C 
HETATM   16  N   UNL     1       7.280  27.441  56.720  1.00  0.00    -0.351 N 
HETATM   17  H   UNL     1       8.153  27.080  56.346  1.00  0.00     0.163 HD
HETATM   18  O   UNL     1       5.006  27.092  56.683  1.00  0.00    -0.266 OA
BRANCH  16  19
HETATM   19  C   UNL     1       7.278  28.526  57.669  1.00  0.00     0.163 C 
BRANCH  19  20
HETATM   20  C   UNL     1       8.545  29.353  57.690  1.00  0.00    -0.019 A 
HETATM   21  C   UNL     1       9.688  28.994  56.952  1.00  0.00     0.010 A 
HETATM   22  C   UNL     1      10.850  29.770  56.994  1.00  0.00     0.001 A 
HETATM   23  C   UNL     1      10.894  30.923  57.772  1.00  0.00     0.002 A 
HETATM   24  C   UNL     1       9.774  31.302  58.508  1.00  0.00     0.024 A 
HETATM   25  C   UNL     1       8.610  30.527  58.467  1.00  0.00     0.042 A 
HETATM   26 CL   UNL     1       7.259  31.073  59.401  1.00  0.00    -0.084 Cl
ENDBRANCH  19  20
ENDBRANCH  16  19
ENDBRANCH   1  15
TORSDOF 3
ENDMDL
MODEL 2
REMARK VINA RESULT:      -9.9      2.363      3.212
REMARK  3 active torsions:
REMARK  status: ('A' for Active; 'I' for Inactive)
REMARK    1  A    between atoms: C_3  and  C_4 
REMARK    2  A    between atoms: C_4  and  N_5 
REMARK       I    between atoms: N_5  and  C_6 
REMARK    3  A    between atoms: C_6  and  C_7 
ROOT
HETATM    1  C   UNL     1       7.256  26.917  57.343  1.00  0.00     0.155 A 
HETATM    2  N   UNL     1       7.831  26.205  58.341  1.00  0.00    -0.168 NA
HETATM    3  N   UNL     1       8.229  25.061  57.742  1.00  0.00    -0.276 N 
HETATM    4  H   UNL     1       8.703  24.361  58.304  1.00  0.00     0.189 HD
HETATM    5  C   UNL     1       7.921  25.014  56.421  1.00  0.00     0.074 A 
HETATM    6  C   UNL     1       7.285  26.190  56.131  1.00  0.00     0.031 A 
HETATM    7  C   UNL     1       6.797  26.497  54.768  1.00  0.00     0.219 A 
HETATM    8  O   UNL     1       6.979  25.438  53.785  1.00  0.00    -0.346 OA
HETATM    9  C   UNL     1       7.659  24.289  54.131  1.00  0.00     0.081 A 
HETATM   10  C   UNL     1       8.155  24.006  55.419  1.00  0.00     0.026 A 
HETATM   11  C   UNL     1       7.840  23.366  53.102  1.00  0.00     0.038 A 
HETATM   12  C   UNL     1       8.514  22.169  53.346  1.00  0.00     0.003 A 
HETATM   13  C   UNL     1       9.008  21.891  54.622  1.00  0.00     0.001 A 
HETATM   14  C   UNL     1       8.829  22.808  55.662  1.00  0.00     0.016 A 
ENDROOT
BRANCH   1  15
HETATM   15  C   UNL     1       6.697  28.260  57.558  1.00  0.00     0.272 C 
HETATM   16  N   UNL     1       7.619  29.159  58.038  1.00  0.00    -0.351 N 
HETATM   17  H   UNL     1       8.552  28.792  58.206  1.00  0.00     0.163 HD
HETATM   18  O   UNL     1       5.522  28.532  57.331  1.00  0.00    -0.266 OA
BRANCH  16  19
HETATM   19  C   UNL     1       7.301  30.530  58.347  1.00  0.00     0.163 C 
BRANCH  19  20
HETATM   20  C   UNL     1       7.815  31.016  59.685  1.00  0.00    -0.019 A 
HETATM   21  C   UNL     1       8.975  30.486  60.281  1.00  0.00     0.010 A 
HETATM   22  C   UNL     1       9.425  30.946  61.521  1.00  0.00     0.001 A 
HETATM   23  C   UNL     1       8.729  31.946  62.192  1.00  0.00     0.002 A 
HETATM   24  C   UNL     1       7.581  32.489  61.621  1.00  0.00     0.024 A 
HETATM   25  C   UNL     1       7.128  32.031  60.379  1.00  0.00     0.042 A 
HETATM   26 CL   UNL     1       5.700  32.766  59.734  1.00  0.00    -0.084 Cl
ENDBRANCH  19  20
ENDBRANCH  16  19
ENDBRANCH   1  15
TORSDOF 3
ENDMDL
MODEL 3
REMARK VINA RESULT:      -9.6      2.196      2.893
REMARK  3 active torsions:
REMARK  status: ('A' for Active; 'I' for Inactive)
REMARK    1  A    between atoms: C_3  and  C_4 
REMARK    2  A    between atoms: C_4  and  N_5 
REMARK       I    between atoms: N_5  and  C_6 
REMARK    3  A    between atoms: C_6  and  C_7 
ROOT
HETATM    1  C   UNL     1       7.863  26.361  56.739  1.00  0.00     0.155 A 
HETATM    2  N   UNL     1       8.083  25.934  58.006  1.00  0.00    -0.168 NA
HETATM    3  N   UNL     1       8.182  24.591  57.887  1.00  0.00    -0.276 N 
HETATM    4  H   UNL     1       8.360  24.044  58.724  1.00  0.00     0.189 HD
HETATM    5  C   UNL     1       8.022  24.153  56.613  1.00  0.00     0.074 A 
HETATM    6  C   UNL     1       7.805  25.266  55.847  1.00  0.00     0.031 A 
HETATM    7  C   UNL     1       7.586  25.177  54.387  1.00  0.00     0.219 A 
HETATM    8  O   UNL     1       7.548  23.827  53.841  1.00  0.00    -0.346 OA
HETATM    9  C   UNL     1       7.809  22.748  54.659  1.00  0.00     0.081 A 
HETATM   10  C   UNL     1       8.051  22.830  56.045  1.00  0.00     0.026 A 
HETATM   11  C   UNL     1       7.816  21.505  54.028  1.00  0.00     0.038 A 
HETATM   12  C   UNL     1       8.068  20.348  54.766  1.00  0.00     0.003 A 
HETATM   13  C   UNL     1       8.312  20.430  56.138  1.00  0.00     0.001 A 
HETATM   14  C   UNL     1       8.303  21.671  56.781  1.00  0.00     0.016 A 
ENDROOT
BRANCH   1  15
HETATM   15  C   UNL     1       7.713  27.786  56.407  1.00  0.00     0.272 C 
HETATM   16  N   UNL     1       7.341  28.556  57.483  1.00  0.00    -0.351 N 
HETATM   17  H   UNL     1       7.195  28.058  58.356  1.00  0.00     0.163 HD
HETATM   18  O   UNL     1       7.900  28.224  55.276  1.00  0.00    -0.266 OA
BRANCH  16  19
HETATM   19  C   UNL     1       7.111  29.976  57.397  1.00  0.00     0.163 C 
BRANCH  19  20
HETATM   20  C   UNL     1       7.786  30.795  58.477  1.00  0.00    -0.019 A 
HETATM   21  C   UNL     1       7.064  31.390  59.528  1.00  0.00     0.010 A 
HETATM   22  C   UNL     1       7.708  32.148  60.509  1.00  0.00     0.001 A 
HETATM   23  C   UNL     1       9.087  32.326  60.463  1.00  0.00     0.002 A 
HETATM   24  C   UNL     1       9.824  31.744  59.436  1.00  0.00     0.024 A 
HETATM   25  C   UNL     1       9.181  30.983  58.452  1.00  0.00     0.042 A 
HETATM   26 CL   UNL     1      10.171  30.284  57.216  1.00  0.00    -0.084 Cl
ENDBRANCH  19  20
ENDBRANCH  16  19
ENDBRANCH   1  15
TORSDOF 3
ENDMDL
MODEL 4
REMARK VINA RESULT:      -9.1      2.909      8.203
REMARK  3 active torsions:
REMARK  status: ('A' for Active; 'I' for Inactive)
REMARK    1  A    between atoms: C_3  and  C_4 
REMARK    2  A    between atoms: C_4  and  N_5 
REMARK       I    between atoms: N_5  and  C_6 
REMARK    3  A    between atoms: C_6  and  C_7 
ROOT
HETATM    1  C   UNL     1       6.385  28.620  56.195  1.00  0.00     0.155 A 
HETATM    2  N   UNL     1       5.216  28.830  56.848  1.00  0.00    -0.168 NA
HETATM    3  N   UNL     1       5.550  29.663  57.859  1.00  0.00    -0.276 N 
HETATM    4  H   UNL     1       4.819  29.972  58.492  1.00  0.00     0.189 HD
HETATM    5  C   UNL     1       6.871  29.974  57.882  1.00  0.00     0.074 A 
HETATM    6  C   UNL     1       7.441  29.313  56.829  1.00  0.00     0.031 A 
HETATM    7  C   UNL     1       8.888  29.416  56.535  1.00  0.00     0.219 A 
HETATM    8  O   UNL     1       9.663  30.208  57.480  1.00  0.00    -0.346 OA
HETATM    9  C   UNL     1       9.024  30.879  58.501  1.00  0.00     0.081 A 
HETATM   10  C   UNL     1       7.642  30.811  58.766  1.00  0.00     0.026 A 
HETATM   11  C   UNL     1       9.845  31.664  59.310  1.00  0.00     0.038 A 
HETATM   12  C   UNL     1       9.298  32.382  60.374  1.00  0.00     0.003 A 
HETATM   13  C   UNL     1       7.928  32.317  60.632  1.00  0.00     0.001 A 
HETATM   14  C   UNL     1       7.096  31.531  59.830  1.00  0.00     0.016 A 
ENDROOT
BRANCH   1  15
HETATM   15  C   UNL     1       6.472  27.775  54.995  1.00  0.00     0.272 C 
HETATM   16  N   UNL     1       5.962  26.513  55.185  1.00  0.00    -0.351 N 
HETATM   17  H   UNL     1       5.612  26.310  56.118  1.00  0.00     0.163 HD
HETATM   18  O   UNL     1       6.959  28.171  53.941  1.00  0.00    -0.266 OA
BRANCH  16  19
HETATM   19  C   UNL     1       5.957  25.499  54.161  1.00  0.00     0.163 C 
BRANCH  19  20
HETATM   20  C   UNL     1       6.901  24.343  54.407  1.00  0.00    -0.019 A 
HETATM   21  C   UNL     1       6.959  23.671  55.643  1.00  0.00     0.010 A 
HETATM   22  C   UNL     1       7.846  22.610  55.848  1.00  0.00     0.001 A 
HETATM   23  C   UNL     1       8.692  22.196  54.824  1.00  0.00     0.002 A 
HETATM   24  C   UNL     1       8.650  22.842  53.591  1.00  0.00     0.024 A 
HETATM   25  C   UNL     1       7.763  23.904  53.383  1.00  0.00     0.042 A 
HETATM   26 CL   UNL     1       7.765  24.645  51.819  1.00  0.00    -0.084 Cl
ENDBRANCH  19  20
ENDBRANCH  16  19
ENDBRANCH   1  15
TORSDOF 3
ENDMDL
MODEL 5
REMARK VINA RESULT:      -9.1      4.639     10.178
REMARK  3 active torsions:
REMARK  status: ('A' for Active; 'I' for Inactive)
REMARK    1  A    between atoms: C_3  and  C_4 
REMARK    2  A    between atoms: C_4  and  N_5 
REMARK       I    between atoms: N_5  and  C_6 
REMARK    3  A    between atoms: C_6  and  C_7 
ROOT
HETATM    1  C   UNL     1       8.443  30.717  60.175  1.00  0.00     0.155 A 
HETATM    2  N   UNL     1       9.299  30.235  61.108  1.00  0.00    -0.168 NA
HETATM    3  N   UNL     1       8.995  30.934  62.224  1.00  0.00    -0.276 N 
HETATM    4  H   UNL     1       9.512  30.735  63.075  1.00  0.00     0.189 HD
HETATM    5  C   UNL     1       8.001  31.839  62.035  1.00  0.00     0.074 A 
HETATM    6  C   UNL     1       7.628  31.733  60.722  1.00  0.00     0.031 A 
HETATM    7  C   UNL     1       6.556  32.575  60.146  1.00  0.00     0.219 A 
HETATM    8  O   UNL     1       5.983  33.562  61.050  1.00  0.00    -0.346 OA
HETATM    9  C   UNL     1       6.377  33.596  62.371  1.00  0.00     0.081 A 
HETATM   10  C   UNL     1       7.374  32.774  62.933  1.00  0.00     0.026 A 
HETATM   11  C   UNL     1       5.721  34.532  63.170  1.00  0.00     0.038 A 
HETATM   12  C   UNL     1       6.046  34.648  64.521  1.00  0.00     0.003 A 
HETATM   13  C   UNL     1       7.031  33.831  65.078  1.00  0.00     0.001 A 
HETATM   14  C   UNL     1       7.699  32.892  64.286  1.00  0.00     0.016 A 
ENDROOT
BRANCH   1  15
HETATM   15  C   UNL     1       8.419  30.206  58.795  1.00  0.00     0.272 C 
HETATM   16  N   UNL     1       7.170  29.797  58.393  1.00  0.00    -0.351 N 
HETATM   17  H   UNL     1       6.432  29.872  59.088  1.00  0.00     0.163 HD
HETATM   18  O   UNL     1       9.422  30.155  58.091  1.00  0.00    -0.266 OA
BRANCH  16  19
HETATM   19  C   UNL     1       6.901  29.240  57.092  1.00  0.00     0.163 C 
BRANCH  19  20
HETATM   20  C   UNL     1       6.714  27.738  57.069  1.00  0.00    -0.019 A 
HETATM   21  C   UNL     1       7.727  26.850  57.476  1.00  0.00     0.010 A 
HETATM   22  C   UNL     1       7.533  25.467  57.439  1.00  0.00     0.001 A 
HETATM   23  C   UNL     1       6.323  24.941  56.996  1.00  0.00     0.002 A 
HETATM   24  C   UNL     1       5.304  25.799  56.592  1.00  0.00     0.024 A 
HETATM   25  C   UNL     1       5.496  27.185  56.629  1.00  0.00     0.042 A 
HETATM   26 CL   UNL     1       4.176  28.183  56.121  1.00  0.00    -0.084 Cl
ENDBRANCH  19  20
ENDBRANCH  16  19
ENDBRANCH   1  15
TORSDOF 3
ENDMDL
MODEL 6
REMARK VINA RESULT:      -8.9      3.727      5.511
REMARK  3 active torsions:
REMARK  status: ('A' for Active; 'I' for Inactive)
REMARK    1  A    between atoms: C_3  and  C_4 
REMARK    2  A    between atoms: C_4  and  N_5 
REMARK       I    between atoms: N_5  and  C_6 
REMARK    3  A    between atoms: C_6  and  C_7 
ROOT
HETATM    1  C   UNL     1       5.386  30.168  57.659  1.00  0.00     0.155 A 
HETATM    2  N   UNL     1       4.231  29.788  57.061  1.00  0.00    -0.168 NA
HETATM    3  N   UNL     1       4.455  28.504  56.700  1.00  0.00    -0.276 N 
HETATM    4  H   UNL     1       3.710  27.998  56.232  1.00  0.00     0.189 HD
HETATM    5  C   UNL     1       5.697  28.065  57.028  1.00  0.00     0.074 A 
HETATM    6  C   UNL     1       6.327  29.114  57.639  1.00  0.00     0.031 A 
HETATM    7  C   UNL     1       7.715  29.004  58.140  1.00  0.00     0.219 A 
HETATM    8  O   UNL     1       8.377  27.734  57.874  1.00  0.00    -0.346 OA
HETATM    9  C   UNL     1       7.676  26.704  57.284  1.00  0.00     0.081 A 
HETATM   10  C   UNL     1       6.343  26.793  56.836  1.00  0.00     0.026 A 
HETATM   11  C   UNL     1       8.378  25.508  57.135  1.00  0.00     0.038 A 
HETATM   12  C   UNL     1       7.760  24.403  56.547  1.00  0.00     0.003 A 
HETATM   13  C   UNL     1       6.438  24.491  56.107  1.00  0.00     0.001 A 
HETATM   14  C   UNL     1       5.727  25.686  56.249  1.00  0.00     0.016 A 
ENDROOT
BRANCH   1  15
HETATM   15  C   UNL     1       5.569  31.511  58.229  1.00  0.00     0.272 C 
HETATM   16  N   UNL     1       5.206  31.589  59.553  1.00  0.00    -0.351 N 
HETATM   17  H   UNL     1       4.841  30.735  59.965  1.00  0.00     0.163 HD
HETATM   18  O   UNL     1       5.999  32.455  57.574  1.00  0.00    -0.266 OA
BRANCH  16  19
HETATM   19  C   UNL     1       5.276  32.807  60.321  1.00  0.00     0.163 C 
BRANCH  19  20
HETATM   20  C   UNL     1       6.224  32.761  61.499  1.00  0.00    -0.019 A 
HETATM   21  C   UNL     1       7.561  32.342  61.370  1.00  0.00     0.010 A 
HETATM   22  C   UNL     1       8.416  32.301  62.475  1.00  0.00     0.001 A 
HETATM   23  C   UNL     1       7.955  32.680  63.732  1.00  0.00     0.002 A 
HETATM   24  C   UNL     1       6.637  33.104  63.884  1.00  0.00     0.024 A 
HETATM   25  C   UNL     1       5.780  33.146  62.779  1.00  0.00     0.042 A 
HETATM   26 CL   UNL     1       4.161  33.694  63.051  1.00  0.00    -0.084 Cl
ENDBRANCH  19  20
ENDBRANCH  16  19
ENDBRANCH   1  15
TORSDOF 3
ENDMDL
MODEL 7
REMARK VINA RESULT:      -8.8      1.714      2.314
REMARK  3 active torsions:
REMARK  status: ('A' for Active; 'I' for Inactive)
REMARK    1  A    between atoms: C_3  and  C_4 
REMARK    2  A    between atoms: C_4  and  N_5 
REMARK       I    between atoms: N_5  and  C_6 
REMARK    3  A    between atoms: C_6  and  C_7 
ROOT
HETATM    1  C   UNL     1       6.372  27.780  55.475  1.00  0.00     0.155 A 
HETATM    2  N   UNL     1       6.782  28.157  54.240  1.00  0.00    -0.168 NA
HETATM    3  N   UNL     1       7.215  27.008  53.674  1.00  0.00    -0.276 N 
HETATM    4  H   UNL     1       7.569  27.043  52.723  1.00  0.00     0.189 HD
HETATM    5  C   UNL     1       7.112  25.934  54.496  1.00  0.00     0.074 A 
HETATM    6  C   UNL     1       6.580  26.395  55.669  1.00  0.00     0.031 A 
HETATM    7  C   UNL     1       6.320  25.496  56.814  1.00  0.00     0.219 A 
HETATM    8  O   UNL     1       6.732  24.111  56.628  1.00  0.00    -0.346 OA
HETATM    9  C   UNL     1       7.229  23.700  55.410  1.00  0.00     0.081 A 
HETATM   10  C   UNL     1       7.448  24.546  54.304  1.00  0.00     0.026 A 
HETATM   11  C   UNL     1       7.530  22.342  55.311  1.00  0.00     0.038 A 
HETATM   12  C   UNL     1       8.041  21.824  54.120  1.00  0.00     0.003 A 
HETATM   13  C   UNL     1       8.254  22.662  53.025  1.00  0.00     0.001 A 
HETATM   14  C   UNL     1       7.959  24.026  53.114  1.00  0.00     0.016 A 
ENDROOT
BRANCH   1  15
HETATM   15  C   UNL     1       5.798  28.734  56.436  1.00  0.00     0.272 C 
HETATM   16  N   UNL     1       6.657  29.756  56.762  1.00  0.00    -0.351 N 
HETATM   17  H   UNL     1       7.576  29.720  56.328  1.00  0.00     0.163 HD
HETATM   18  O   UNL     1       4.666  28.611  56.894  1.00  0.00    -0.266 OA
BRANCH  16  19
HETATM   19  C   UNL     1       6.326  30.799  57.700  1.00  0.00     0.163 C 
BRANCH  19  20
HETATM   20  C   UNL     1       7.467  31.233  58.595  1.00  0.00    -0.019 A 
HETATM   21  C   UNL     1       8.798  30.845  58.357  1.00  0.00     0.010 A 
HETATM   22  C   UNL     1       9.833  31.253  59.202  1.00  0.00     0.001 A 
HETATM   23  C   UNL     1       9.561  32.059  60.303  1.00  0.00     0.002 A 
HETATM   24  C   UNL     1       8.252  32.461  60.558  1.00  0.00     0.024 A 
HETATM   25  C   UNL     1       7.214  32.054  59.712  1.00  0.00     0.042 A 
HETATM   26 CL   UNL     1       5.619  32.605  60.092  1.00  0.00    -0.084 Cl
ENDBRANCH  19  20
ENDBRANCH  16  19
ENDBRANCH   1  15
TORSDOF 3
ENDMDL
MODEL 8
REMARK VINA RESULT:      -8.8      3.389      8.198
REMARK  3 active torsions:
REMARK  status: ('A' for Active; 'I' for Inactive)
REMARK    1  A    between atoms: C_3  and  C_4 
REMARK    2  A    between atoms: C_4  and  N_5 
REMARK       I    between atoms: N_5  and  C_6 
REMARK    3  A    between atoms: C_6  and  C_7 
ROOT
HETATM    1  C   UNL     1       6.888  27.008  57.456  1.00  0.00     0.155 A 
HETATM    2  N   UNL     1       7.898  27.662  58.078  1.00  0.00    -0.168 NA
HETATM    3  N   UNL     1       7.508  28.956  58.067  1.00  0.00    -0.276 N 
HETATM    4  H   UNL     1       8.116  29.647  58.495  1.00  0.00     0.189 HD
HETATM    5  C   UNL     1       6.312  29.149  57.456  1.00  0.00     0.074 A 
HETATM    6  C   UNL     1       5.887  27.916  57.042  1.00  0.00     0.031 A 
HETATM    7  C   UNL     1       4.603  27.732  56.329  1.00  0.00     0.219 A 
HETATM    8  O   UNL     1       3.867  28.956  56.042  1.00  0.00    -0.346 OA
HETATM    9  C   UNL     1       4.331  30.164  56.516  1.00  0.00     0.081 A 
HETATM   10  C   UNL     1       5.536  30.340  57.225  1.00  0.00     0.026 A 
HETATM   11  C   UNL     1       3.520  31.266  56.246  1.00  0.00     0.038 A 
HETATM   12  C   UNL     1       3.900  32.537  56.681  1.00  0.00     0.003 A 
HETATM   13  C   UNL     1       5.092  32.709  57.386  1.00  0.00     0.001 A 
HETATM   14  C   UNL     1       5.914  31.612  57.659  1.00  0.00     0.016 A 
ENDROOT
BRANCH   1  15
HETATM   15  C   UNL     1       6.895  25.549  57.269  1.00  0.00     0.272 C 
HETATM   16  N   UNL     1       8.160  25.026  57.150  1.00  0.00    -0.351 N 
HETATM   17  H   UNL     1       8.924  25.696  57.182  1.00  0.00     0.163 HD
HETATM   18  O   UNL     1       5.866  24.883  57.222  1.00  0.00    -0.266 OA
BRANCH  16  19
HETATM   19  C   UNL     1       8.420  23.624  56.938  1.00  0.00     0.163 C 
BRANCH  19  20
HETATM   20  C   UNL     1       8.217  23.149  55.515  1.00  0.00    -0.019 A 
HETATM   21  C   UNL     1       8.199  24.036  54.423  1.00  0.00     0.010 A 
HETATM   22  C   UNL     1       8.002  23.574  53.119  1.00  0.00     0.001 A 
HETATM   23  C   UNL     1       7.822  22.215  52.878  1.00  0.00     0.002 A 
HETATM   24  C   UNL     1       7.841  21.317  53.941  1.00  0.00     0.024 A 
HETATM   25  C   UNL     1       8.038  21.777  55.248  1.00  0.00     0.042 A 
HETATM   26 CL   UNL     1       8.059  20.595  56.511  1.00  0.00    -0.084 Cl
ENDBRANCH  19  20
ENDBRANCH  16  19
ENDBRANCH   1  15
TORSDOF 3
ENDMDL
MODEL 9
REMARK VINA RESULT:      -8.7      2.035      2.473
REMARK  3 active torsions:
REMARK  status: ('A' for Active; 'I' for Inactive)
REMARK    1  A    between atoms: C_3  and  C_4 
REMARK    2  A    between atoms: C_4  and  N_5 
REMARK       I    between atoms: N_5  and  C_6 
REMARK    3  A    between atoms: C_6  and  C_7 
ROOT
HETATM    1  C   UNL     1       5.954  26.037  53.685  1.00  0.00     0.155 A 
HETATM    2  N   UNL     1       5.973  25.778  52.355  1.00  0.00    -0.168 NA
HETATM    3  N   UNL     1       6.516  24.543  52.269  1.00  0.00    -0.276 N 
HETATM    4  H   UNL     1       6.625  24.126  51.350  1.00  0.00     0.189 HD
HETATM    5  C   UNL     1       6.852  24.021  53.476  1.00  0.00     0.074 A 
HETATM    6  C   UNL     1       6.511  24.961  54.411  1.00  0.00     0.031 A 
HETATM    7  C   UNL     1       6.733  24.738  55.857  1.00  0.00     0.219 A 
HETATM    8  O   UNL     1       7.397  23.489  56.203  1.00  0.00    -0.346 OA
HETATM    9  C   UNL     1       7.683  22.567  55.218  1.00  0.00     0.081 A 
HETATM   10  C   UNL     1       7.443  22.760  53.843  1.00  0.00     0.026 A 
HETATM   11  C   UNL     1       8.256  21.375  55.659  1.00  0.00     0.038 A 
HETATM   12  C   UNL     1       8.586  20.376  54.742  1.00  0.00     0.003 A 
HETATM   13  C   UNL     1       8.345  20.567  53.381  1.00  0.00     0.001 A 
HETATM   14  C   UNL     1       7.774  21.759  52.927  1.00  0.00     0.016 A 
ENDROOT
BRANCH   1  15
HETATM   15  C   UNL     1       5.412  27.290  54.232  1.00  0.00     0.272 C 
HETATM   16  N   UNL     1       4.980  27.170  55.531  1.00  0.00    -0.351 N 
HETATM   17  H   UNL     1       5.064  26.245  55.944  1.00  0.00     0.163 HD
HETATM   18  O   UNL     1       5.355  28.327  53.579  1.00  0.00    -0.266 OA
BRANCH  16  19
HETATM   19  C   UNL     1       4.391  28.257  56.272  1.00  0.00     0.163 C 
BRANCH  19  20
HETATM   20  C   UNL     1       5.373  29.092  57.065  1.00  0.00    -0.019 A 
HETATM   21  C   UNL     1       6.656  28.622  57.404  1.00  0.00     0.010 A 
HETATM   22  C   UNL     1       7.542  29.408  58.144  1.00  0.00     0.001 A 
HETATM   23  C   UNL     1       7.167  30.682  58.560  1.00  0.00     0.002 A 
HETATM   24  C   UNL     1       5.905  31.171  58.234  1.00  0.00     0.024 A 
HETATM   25  C   UNL     1       5.016  30.386  57.493  1.00  0.00     0.042 A 
HETATM   26 CL   UNL     1       3.472  31.071  57.120  1.00  0.00    -0.084 Cl
ENDBRANCH  19  20
ENDBRANCH  16  19
ENDBRANCH   1  15
TORSDOF 3
ENDMDL
MODEL 10
REMARK VINA RESULT:      -8.7      2.702      8.507
REMARK  3 active torsions:
REMARK  status: ('A' for Active; 'I' for Inactive)
REMARK    1  A    between atoms: C_3  and  C_4 
REMARK    2  A    between atoms: C_4  and  N_5 
REMARK       I    between atoms: N_5  and  C_6 
REMARK    3  A    between atoms: C_6  and  C_7 
ROOT
HETATM    1  C   UNL     1       7.833  28.988  56.495  1.00  0.00     0.155 A 
HETATM    2  N   UNL     1       9.149  28.732  56.684  1.00  0.00    -0.168 NA
HETATM    3  N   UNL     1       9.467  29.444  57.789  1.00  0.00    -0.276 N 
HETATM    4  H   UNL     1      10.420  29.399  58.134  1.00  0.00     0.189 HD
HETATM    5  C   UNL     1       8.420  30.145  58.293  1.00  0.00     0.074 A 
HETATM    6  C   UNL     1       7.352  29.882  57.479  1.00  0.00     0.031 A 
HETATM    7  C   UNL     1       6.021  30.479  57.722  1.00  0.00     0.219 A 
HETATM    8  O   UNL     1       5.949  31.412  58.838  1.00  0.00    -0.346 OA
HETATM    9  C   UNL     1       7.051  31.608  59.643  1.00  0.00     0.081 A 
HETATM   10  C   UNL     1       8.313  31.016  59.435  1.00  0.00     0.026 A 
HETATM   11  C   UNL     1       6.861  32.468  60.724  1.00  0.00     0.038 A 
HETATM   12  C   UNL     1       7.914  32.735  61.599  1.00  0.00     0.003 A 
HETATM   13  C   UNL     1       9.162  32.145  61.394  1.00  0.00     0.001 A 
HETATM   14  C   UNL     1       9.366  31.284  60.311  1.00  0.00     0.016 A 
ENDROOT
BRANCH   1  15
HETATM   15  C   UNL     1       7.067  28.386  55.393  1.00  0.00     0.272 C 
HETATM   16  N   UNL     1       7.543  27.153  55.015  1.00  0.00    -0.351 N 
HETATM   17  H   UNL     1       8.364  26.821  55.514  1.00  0.00     0.163 HD
HETATM   18  O   UNL     1       6.105  28.943  54.874  1.00  0.00    -0.266 OA
BRANCH  16  19
HETATM   19  C   UNL     1       6.969  26.379  53.944  1.00  0.00     0.163 C 
BRANCH  19  20
HETATM   20  C   UNL     1       7.303  24.903  53.977  1.00  0.00    -0.019 A 
HETATM   21  C   UNL     1       7.908  24.245  52.890  1.00  0.00     0.010 A 
HETATM   22  C   UNL     1       8.199  22.880  52.942  1.00  0.00     0.001 A 
HETATM   23  C   UNL     1       7.894  22.142  54.082  1.00  0.00     0.002 A 
HETATM   24  C   UNL     1       7.300  22.771  55.172  1.00  0.00     0.024 A 
HETATM   25  C   UNL     1       7.008  24.138  55.123  1.00  0.00     0.042 A 
HETATM   26 CL   UNL     1       6.279  24.846  56.524  1.00  0.00    -0.084 Cl
ENDBRANCH  19  20
ENDBRANCH  16  19
ENDBRANCH   1  15
TORSDOF 3
ENDMDL
