MODEL 1
REMARK VINA RESULT:      -9.9      0.000      0.000
REMARK  5 active torsions:
REMARK  status: ('A' for Active; 'I' for Inactive)
REMARK    1  A    between atoms: C_2  and  C_3 
REMARK    2  A    between atoms: C_6  and  N_7 
REMARK       I    between atoms: N_7  and  C_8 
REMARK       I    between atoms: C_8  and  N_9 
REMARK    3  A    between atoms: N_9  and  C_10 
REMARK    4  A    between atoms: N_20  and  N_21 
REMARK       I    between atoms: N_21  and  C_22 
REMARK    5  A    between atoms: C_22  and  C_23 
ROOT
HETATM    1  C   UNL     1       9.263  29.781  57.398  1.00  0.00    -0.010 A 
HETATM    2  C   UNL     1       8.320  29.242  58.279  1.00  0.00     0.016 A 
HETATM    3  C   UNL     1       7.289  28.432  57.788  1.00  0.00     0.030 A 
HETATM    4  C   UNL     1       7.196  28.161  56.418  1.00  0.00     0.036 A 
HETATM    5  C   UNL     1       8.125  28.731  55.541  1.00  0.00     0.030 A 
HETATM    6  C   UNL     1       9.173  29.513  56.029  1.00  0.00     0.016 A 
ENDROOT
BRANCH   1   7
HETATM    7  C   UNL     1      10.370  30.634  57.903  1.00  0.00     0.061 C 
HETATM    8  C   UNL     1      11.774  30.233  57.507  1.00  0.00     0.073 C 
HETATM    9  N   UNL     1      10.244  31.713  58.618  1.00  0.00    -0.176 NA
BRANCH   9  10
HETATM   10  N   UNL     1       9.014  32.065  59.089  1.00  0.00    -0.243 N 
HETATM   11  C   UNL     1       8.810  32.193  60.456  1.00  0.00     0.273 C 
HETATM   12  O   UNL     1       9.657  31.993  61.321  1.00  0.00    -0.266 OA
HETATM   13  H   UNL     1       8.242  32.082  58.435  1.00  0.00     0.192 HD
BRANCH  11  14
HETATM   14  C   UNL     1       7.447  32.609  60.876  1.00  0.00     0.051 A 
HETATM   15  C   UNL     1       6.327  32.451  60.068  1.00  0.00     0.133 A 
HETATM   16  N   UNL     1       5.074  32.832  60.419  1.00  0.00    -0.272 NA
HETATM   17  C   UNL     1       4.937  33.423  61.627  1.00  0.00     0.116 A 
HETATM   18  C   UNL     1       5.992  33.650  62.496  1.00  0.00     0.020 A 
HETATM   19  C   UNL     1       7.266  33.238  62.110  1.00  0.00     0.020 A 
ENDBRANCH  11  14
ENDBRANCH   9  10
ENDBRANCH   1   7
BRANCH   4  20
HETATM   20  N   UNL     1       6.172  27.392  55.845  1.00  0.00    -0.309 N 
HETATM   21  C   UNL     1       6.119  26.097  55.406  1.00  0.00     0.325 C 
HETATM   22  N   UNL     1       7.321  25.492  55.144  1.00  0.00    -0.309 N 
HETATM   23  O   UNL     1       5.008  25.626  55.175  1.00  0.00    -0.247 OA
HETATM   24  H   UNL     1       8.129  26.089  55.222  1.00  0.00     0.170 HD
HETATM   25  H   UNL     1       5.284  27.854  55.688  1.00  0.00     0.170 HD
BRANCH  22  26
HETATM   26  C   UNL     1       7.539  24.237  54.539  1.00  0.00     0.036 A 
HETATM   27  C   UNL     1       7.747  24.053  53.169  1.00  0.00     0.031 A 
HETATM   28  C   UNL     1       8.016  22.779  52.655  1.00  0.00     0.026 A 
HETATM   29  C   UNL     1       8.067  21.681  53.508  1.00  0.00     0.034 A 
HETATM   30 CL   UNL     1       8.413  20.118  52.877  1.00  0.00    -0.084 Cl
HETATM   31  C   UNL     1       7.841  21.844  54.871  1.00  0.00     0.026 A 
HETATM   32  C   UNL     1       7.579  23.118  55.384  1.00  0.00     0.031 A 
ENDBRANCH  22  26
ENDBRANCH   4  20
TORSDOF 5
ENDMDL
MODEL 2
REMARK VINA RESULT:      -9.9      3.724      9.918
REMARK  5 active torsions:
REMARK  status: ('A' for Active; 'I' for Inactive)
REMARK    1  A    between atoms: C_2  and  C_3 
REMARK    2  A    between atoms: C_6  and  N_7 
REMARK       I    between atoms: N_7  and  C_8 
REMARK       I    between atoms: C_8  and  N_9 
REMARK    3  A    between atoms: N_9  and  C_10 
REMARK    4  A    between atoms: N_20  and  N_21 
REMARK       I    between atoms: N_21  and  C_22 
REMARK    5  A    between atoms: C_22  and  C_23 
ROOT
HETATM    1  C   UNL     1       5.989  27.631  54.387  1.00  0.00    -0.010 A 
HETATM    2  C   UNL     1       5.897  27.792  55.773  1.00  0.00     0.016 A 
HETATM    3  C   UNL     1       6.957  28.370  56.482  1.00  0.00     0.030 A 
HETATM    4  C   UNL     1       8.112  28.785  55.809  1.00  0.00     0.036 A 
HETATM    5  C   UNL     1       8.208  28.591  54.427  1.00  0.00     0.030 A 
HETATM    6  C   UNL     1       7.140  28.046  53.712  1.00  0.00     0.016 A 
ENDROOT
BRANCH   1   7
HETATM    7  C   UNL     1       4.869  27.030  53.618  1.00  0.00     0.061 C 
HETATM    8  C   UNL     1       3.796  27.976  53.125  1.00  0.00     0.073 C 
HETATM    9  N   UNL     1       4.744  25.776  53.295  1.00  0.00    -0.176 NA
BRANCH   9  10
HETATM   10  N   UNL     1       5.624  24.865  53.797  1.00  0.00    -0.243 N 
HETATM   11  C   UNL     1       6.701  24.450  53.026  1.00  0.00     0.273 C 
HETATM   12  O   UNL     1       6.939  24.824  51.881  1.00  0.00    -0.266 OA
HETATM   13  H   UNL     1       5.389  24.404  54.666  1.00  0.00     0.192 HD
BRANCH  11  14
HETATM   14  C   UNL     1       7.626  23.479  53.664  1.00  0.00     0.051 A 
HETATM   15  C   UNL     1       8.267  23.728  54.871  1.00  0.00     0.133 A 
HETATM   16  N   UNL     1       9.125  22.867  55.471  1.00  0.00    -0.272 NA
HETATM   17  C   UNL     1       9.374  21.709  54.820  1.00  0.00     0.116 A 
HETATM   18  C   UNL     1       8.807  21.374  53.600  1.00  0.00     0.020 A 
HETATM   19  C   UNL     1       7.922  22.277  53.015  1.00  0.00     0.020 A 
ENDBRANCH  11  14
ENDBRANCH   9  10
ENDBRANCH   1   7
BRANCH   4  20
HETATM   20  N   UNL     1       9.230  29.337  56.451  1.00  0.00    -0.309 N 
HETATM   21  C   UNL     1       9.420  29.856  57.703  1.00  0.00     0.325 C 
HETATM   22  N   UNL     1       8.293  30.237  58.381  1.00  0.00    -0.309 N 
HETATM   23  O   UNL     1      10.579  30.041  58.066  1.00  0.00    -0.247 OA
HETATM   24  H   UNL     1       7.433  30.176  57.859  1.00  0.00     0.170 HD
HETATM   25  H   UNL     1      10.084  29.402  55.909  1.00  0.00     0.170 HD
BRANCH  22  26
HETATM   26  C   UNL     1       8.219  30.937  59.604  1.00  0.00     0.036 A 
HETATM   27  C   UNL     1       7.391  32.041  59.826  1.00  0.00     0.031 A 
HETATM   28  C   UNL     1       7.332  32.644  61.088  1.00  0.00     0.026 A 
HETATM   29  C   UNL     1       8.112  32.154  62.131  1.00  0.00     0.034 A 
HETATM   30 CL   UNL     1       8.028  32.887  63.685  1.00  0.00    -0.084 Cl
HETATM   31  C   UNL     1       8.958  31.070  61.920  1.00  0.00     0.026 A 
HETATM   32  C   UNL     1       9.011  30.464  60.660  1.00  0.00     0.031 A 
ENDBRANCH  22  26
ENDBRANCH   4  20
TORSDOF 5
ENDMDL
MODEL 3
REMARK VINA RESULT:      -9.6      6.133     10.036
REMARK  5 active torsions:
REMARK  status: ('A' for Active; 'I' for Inactive)
REMARK    1  A    between atoms: C_2  and  C_3 
REMARK    2  A    between atoms: C_6  and  N_7 
REMARK       I    between atoms: N_7  and  C_8 
REMARK       I    between atoms: C_8  and  N_9 
REMARK    3  A    between atoms: N_9  and  C_10 
REMARK    4  A    between atoms: N_20  and  N_21 
REMARK       I    between atoms: N_21  and  C_22 
REMARK    5  A    between atoms: C_22  and  C_23 
ROOT
HETATM    1  C   UNL     1       5.412  26.483  53.848  1.00  0.00    -0.010 A 
HETATM    2  C   UNL     1       5.807  27.596  53.099  1.00  0.00     0.016 A 
HETATM    3  C   UNL     1       5.763  27.549  51.700  1.00  0.00     0.030 A 
HETATM    4  C   UNL     1       5.327  26.390  51.047  1.00  0.00     0.036 A 
HETATM    5  C   UNL     1       4.965  25.271  51.804  1.00  0.00     0.030 A 
HETATM    6  C   UNL     1       4.976  25.325  53.199  1.00  0.00     0.016 A 
ENDROOT
BRANCH   1   7
HETATM    7  C   UNL     1       5.442  26.520  55.333  1.00  0.00     0.061 C 
HETATM    8  C   UNL     1       5.042  27.822  55.991  1.00  0.00     0.073 C 
HETATM    9  N   UNL     1       5.740  25.528  56.121  1.00  0.00    -0.176 NA
BRANCH   9  10
HETATM   10  N   UNL     1       6.204  24.364  55.585  1.00  0.00    -0.243 N 
HETATM   11  C   UNL     1       7.532  24.002  55.768  1.00  0.00     0.273 C 
HETATM   12  O   UNL     1       8.370  24.665  56.373  1.00  0.00    -0.266 OA
HETATM   13  H   UNL     1       5.604  23.863  54.943  1.00  0.00     0.192 HD
BRANCH  11  14
HETATM   14  C   UNL     1       7.943  22.704  55.175  1.00  0.00     0.051 A 
HETATM   15  C   UNL     1       8.689  21.760  55.870  1.00  0.00     0.133 A 
HETATM   16  N   UNL     1       9.089  20.573  55.351  1.00  0.00    -0.272 NA
HETATM   17  C   UNL     1       8.749  20.328  54.067  1.00  0.00     0.116 A 
HETATM   18  C   UNL     1       8.029  21.213  53.279  1.00  0.00     0.020 A 
HETATM   19  C   UNL     1       7.624  22.420  53.844  1.00  0.00     0.020 A 
ENDBRANCH  11  14
ENDBRANCH   9  10
ENDBRANCH   1   7
BRANCH   4  20
HETATM   20  N   UNL     1       5.290  26.251  49.652  1.00  0.00    -0.309 N 
HETATM   21  C   UNL     1       4.516  26.827  48.681  1.00  0.00     0.325 C 
HETATM   22  N   UNL     1       3.340  27.394  49.097  1.00  0.00    -0.309 N 
HETATM   23  O   UNL     1       4.881  26.691  47.516  1.00  0.00    -0.247 OA
HETATM   24  H   UNL     1       3.116  27.258  50.070  1.00  0.00     0.170 HD
HETATM   25  H   UNL     1       5.934  25.585  49.240  1.00  0.00     0.170 HD
BRANCH  22  26
HETATM   26  C   UNL     1       2.300  27.905  48.293  1.00  0.00     0.036 A 
HETATM   27  C   UNL     1       2.146  29.258  47.976  1.00  0.00     0.031 A 
HETATM   28  C   UNL     1       1.119  29.677  47.123  1.00  0.00     0.026 A 
HETATM   29  C   UNL     1       0.232  28.746  46.592  1.00  0.00     0.034 A 
HETATM   30 CL   UNL     1      -1.020  29.261  45.531  1.00  0.00    -0.084 Cl
HETATM   31  C   UNL     1       0.358  27.399  46.915  1.00  0.00     0.026 A 
HETATM   32  C   UNL     1       1.389  26.980  47.762  1.00  0.00     0.031 A 
ENDBRANCH  22  26
ENDBRANCH   4  20
TORSDOF 5
ENDMDL
MODEL 4
REMARK VINA RESULT:      -9.6      4.247      9.781
REMARK  5 active torsions:
REMARK  status: ('A' for Active; 'I' for Inactive)
REMARK    1  A    between atoms: C_2  and  C_3 
REMARK    2  A    between atoms: C_6  and  N_7 
REMARK       I    between atoms: N_7  and  C_8 
REMARK       I    between atoms: C_8  and  N_9 
REMARK    3  A    between atoms: N_9  and  C_10 
REMARK    4  A    between atoms: N_20  and  N_21 
REMARK       I    between atoms: N_21  and  C_22 
REMARK    5  A    between atoms: C_22  and  C_23 
ROOT
HETATM    1  C   UNL     1       7.680  26.957  56.897  1.00  0.00    -0.010 A 
HETATM    2  C   UNL     1       8.659  27.946  57.035  1.00  0.00     0.016 A 
HETATM    3  C   UNL     1       8.289  29.255  57.368  1.00  0.00     0.030 A 
HETATM    4  C   UNL     1       6.940  29.578  57.560  1.00  0.00     0.036 A 
HETATM    5  C   UNL     1       5.966  28.589  57.389  1.00  0.00     0.030 A 
HETATM    6  C   UNL     1       6.333  27.277  57.089  1.00  0.00     0.016 A 
ENDROOT
BRANCH   1   7
HETATM    7  C   UNL     1       8.057  25.561  56.555  1.00  0.00     0.061 C 
HETATM    8  C   UNL     1       8.600  24.707  57.680  1.00  0.00     0.073 C 
HETATM    9  N   UNL     1       7.927  24.992  55.392  1.00  0.00    -0.176 NA
BRANCH   9  10
HETATM   10  N   UNL     1       7.539  25.741  54.321  1.00  0.00    -0.243 N 
HETATM   11  C   UNL     1       6.249  25.617  53.824  1.00  0.00     0.273 C 
HETATM   12  O   UNL     1       5.392  24.853  54.260  1.00  0.00    -0.266 OA
HETATM   13  H   UNL     1       8.249  26.263  53.824  1.00  0.00     0.192 HD
BRANCH  11  14
HETATM   14  C   UNL     1       5.905  26.492  52.675  1.00  0.00     0.051 A 
HETATM   15  C   UNL     1       5.934  27.880  52.748  1.00  0.00     0.133 A 
HETATM   16  N   UNL     1       5.613  28.705  51.721  1.00  0.00    -0.272 NA
HETATM   17  C   UNL     1       5.220  28.114  50.571  1.00  0.00     0.116 A 
HETATM   18  C   UNL     1       5.133  26.741  50.402  1.00  0.00     0.020 A 
HETATM   19  C   UNL     1       5.478  25.921  51.473  1.00  0.00     0.020 A 
ENDBRANCH  11  14
ENDBRANCH   9  10
ENDBRANCH   1   7
BRANCH   4  20
HETATM   20  N   UNL     1       6.486  30.872  57.858  1.00  0.00    -0.309 N 
HETATM   21  C   UNL     1       6.651  31.687  58.945  1.00  0.00     0.325 C 
HETATM   22  N   UNL     1       7.032  31.077  60.111  1.00  0.00    -0.309 N 
HETATM   23  O   UNL     1       6.336  32.868  58.816  1.00  0.00    -0.247 OA
HETATM   24  H   UNL     1       7.075  30.071  60.078  1.00  0.00     0.170 HD
HETATM   25  H   UNL     1       5.898  31.321  57.166  1.00  0.00     0.170 HD
BRANCH  22  26
HETATM   26  C   UNL     1       7.116  31.653  61.396  1.00  0.00     0.036 A 
HETATM   27  C   UNL     1       8.318  31.951  62.044  1.00  0.00     0.031 A 
HETATM   28  C   UNL     1       8.315  32.578  63.297  1.00  0.00     0.026 A 
HETATM   29  C   UNL     1       7.108  32.896  63.912  1.00  0.00     0.034 A 
HETATM   30 CL   UNL     1       7.106  33.679  65.444  1.00  0.00    -0.084 Cl
HETATM   31  C   UNL     1       5.904  32.586  63.290  1.00  0.00     0.026 A 
HETATM   32  C   UNL     1       5.908  31.967  62.035  1.00  0.00     0.031 A 
ENDBRANCH  22  26
ENDBRANCH   4  20
TORSDOF 5
ENDMDL
MODEL 5
REMARK VINA RESULT:      -9.4      3.919     10.210
REMARK  5 active torsions:
REMARK  status: ('A' for Active; 'I' for Inactive)
REMARK    1  A    between atoms: C_2  and  C_3 
REMARK    2  A    between atoms: C_6  and  N_7 
REMARK       I    between atoms: N_7  and  C_8 
REMARK       I    between atoms: C_8  and  N_9 
REMARK    3  A    between atoms: N_9  and  C_10 
REMARK    4  A    between atoms: N_20  and  N_21 
REMARK       I    between atoms: N_21  and  C_22 
REMARK    5  A    between atoms: C_22  and  C_23 
ROOT
HETATM    1  C   UNL     1       5.523  27.706  54.793  1.00  0.00    -0.010 A 
HETATM    2  C   UNL     1       5.117  27.598  56.127  1.00  0.00     0.016 A 
HETATM    3  C   UNL     1       5.948  28.072  57.150  1.00  0.00     0.030 A 
HETATM    4  C   UNL     1       7.185  28.650  56.843  1.00  0.00     0.036 A 
HETATM    5  C   UNL     1       7.595  28.724  55.507  1.00  0.00     0.030 A 
HETATM    6  C   UNL     1       6.757  28.283  54.483  1.00  0.00     0.016 A 
ENDROOT
BRANCH   1   7
HETATM    7  C   UNL     1       4.648  27.219  53.694  1.00  0.00     0.061 C 
HETATM    8  C   UNL     1       3.620  28.191  53.160  1.00  0.00     0.073 C 
HETATM    9  N   UNL     1       4.710  26.052  53.123  1.00  0.00    -0.176 NA
BRANCH   9  10
HETATM   10  N   UNL     1       5.547  25.102  53.629  1.00  0.00    -0.243 N 
HETATM   11  C   UNL     1       6.715  24.781  52.952  1.00  0.00     0.273 C 
HETATM   12  O   UNL     1       7.075  25.275  51.887  1.00  0.00    -0.266 OA
HETATM   13  H   UNL     1       5.222  24.550  54.412  1.00  0.00     0.192 HD
BRANCH  11  14
HETATM   14  C   UNL     1       7.581  23.758  53.592  1.00  0.00     0.051 A 
HETATM   15  C   UNL     1       8.218  23.963  54.810  1.00  0.00     0.133 A 
HETATM   16  N   UNL     1       9.023  23.053  55.411  1.00  0.00    -0.272 NA
HETATM   17  C   UNL     1       9.222  21.891  54.752  1.00  0.00     0.116 A 
HETATM   18  C   UNL     1       8.655  21.598  53.521  1.00  0.00     0.020 A 
HETATM   19  C   UNL     1       7.825  22.550  52.934  1.00  0.00     0.020 A 
ENDBRANCH  11  14
ENDBRANCH   9  10
ENDBRANCH   1   7
BRANCH   4  20
HETATM   20  N   UNL     1       8.089  29.113  57.811  1.00  0.00    -0.309 N 
HETATM   21  C   UNL     1       7.946  29.926  58.902  1.00  0.00     0.325 C 
HETATM   22  N   UNL     1       6.833  30.725  58.924  1.00  0.00    -0.309 N 
HETATM   23  O   UNL     1       8.873  29.956  59.707  1.00  0.00    -0.247 OA
HETATM   24  H   UNL     1       6.266  30.698  58.091  1.00  0.00     0.170 HD
HETATM   25  H   UNL     1       9.057  28.829  57.707  1.00  0.00     0.170 HD
BRANCH  22  26
HETATM   26  C   UNL     1       6.531  31.755  59.839  1.00  0.00     0.036 A 
HETATM   27  C   UNL     1       7.326  32.085  60.940  1.00  0.00     0.031 A 
HETATM   28  C   UNL     1       6.986  33.161  61.768  1.00  0.00     0.026 A 
HETATM   29  C   UNL     1       5.840  33.905  61.506  1.00  0.00     0.034 A 
HETATM   30 CL   UNL     1       5.431  35.236  62.515  1.00  0.00    -0.084 Cl
HETATM   31  C   UNL     1       5.025  33.576  60.427  1.00  0.00     0.026 A 
HETATM   32  C   UNL     1       5.370  32.505  59.596  1.00  0.00     0.031 A 
ENDBRANCH  22  26
ENDBRANCH   4  20
TORSDOF 5
ENDMDL
MODEL 6
REMARK VINA RESULT:      -9.2      2.548      3.323
REMARK  5 active torsions:
REMARK  status: ('A' for Active; 'I' for Inactive)
REMARK    1  A    between atoms: C_2  and  C_3 
REMARK    2  A    between atoms: C_6  and  N_7 
REMARK       I    between atoms: N_7  and  C_8 
REMARK       I    between atoms: C_8  and  N_9 
REMARK    3  A    between atoms: N_9  and  C_10 
REMARK    4  A    between atoms: N_20  and  N_21 
REMARK       I    between atoms: N_21  and  C_22 
REMARK    5  A    between atoms: C_22  and  C_23 
ROOT
HETATM    1  C   UNL     1       5.700  29.970  56.682  1.00  0.00    -0.010 A 
HETATM    2  C   UNL     1       4.967  28.817  56.976  1.00  0.00     0.016 A 
HETATM    3  C   UNL     1       5.632  27.646  57.362  1.00  0.00     0.030 A 
HETATM    4  C   UNL     1       7.029  27.625  57.453  1.00  0.00     0.036 A 
HETATM    5  C   UNL     1       7.754  28.776  57.126  1.00  0.00     0.030 A 
HETATM    6  C   UNL     1       7.095  29.954  56.773  1.00  0.00     0.016 A 
ENDROOT
BRANCH   1   7
HETATM    7  C   UNL     1       5.011  31.224  56.281  1.00  0.00     0.061 C 
HETATM    8  C   UNL     1       4.571  31.329  54.838  1.00  0.00     0.073 C 
HETATM    9  N   UNL     1       4.714  32.222  57.063  1.00  0.00    -0.176 NA
BRANCH   9  10
HETATM   10  N   UNL     1       5.174  32.226  58.346  1.00  0.00    -0.243 N 
HETATM   11  C   UNL     1       4.300  32.496  59.390  1.00  0.00     0.273 C 
HETATM   12  O   UNL     1       3.108  32.763  59.265  1.00  0.00    -0.266 OA
HETATM   13  H   UNL     1       6.173  32.175  58.494  1.00  0.00     0.192 HD
BRANCH  11  14
HETATM   14  C   UNL     1       4.881  32.450  60.756  1.00  0.00     0.051 A 
HETATM   15  C   UNL     1       4.135  32.124  61.882  1.00  0.00     0.133 A 
HETATM   16  N   UNL     1       4.634  32.086  63.143  1.00  0.00    -0.272 NA
HETATM   17  C   UNL     1       5.937  32.415  63.288  1.00  0.00     0.116 A 
HETATM   18  C   UNL     1       6.760  32.780  62.234  1.00  0.00     0.020 A 
HETATM   19  C   UNL     1       6.219  32.800  60.950  1.00  0.00     0.020 A 
ENDBRANCH  11  14
ENDBRANCH   9  10
ENDBRANCH   1   7
BRANCH   4  20
HETATM   20  N   UNL     1       7.769  26.484  57.796  1.00  0.00    -0.309 N 
HETATM   21  C   UNL     1       8.202  25.406  57.073  1.00  0.00     0.325 C 
HETATM   22  N   UNL     1       7.561  25.173  55.885  1.00  0.00    -0.309 N 
HETATM   23  O   UNL     1       9.044  24.679  57.595  1.00  0.00    -0.247 OA
HETATM   24  H   UNL     1       6.772  25.770  55.695  1.00  0.00     0.170 HD
HETATM   25  H   UNL     1       8.039  26.388  58.769  1.00  0.00     0.170 HD
BRANCH  22  26
HETATM   26  C   UNL     1       7.702  24.055  55.036  1.00  0.00     0.036 A 
HETATM   27  C   UNL     1       7.955  24.139  53.664  1.00  0.00     0.031 A 
HETATM   28  C   UNL     1       8.140  22.980  52.901  1.00  0.00     0.026 A 
HETATM   29  C   UNL     1       8.061  21.729  53.506  1.00  0.00     0.034 A 
HETATM   30 CL   UNL     1       8.304  20.306  52.570  1.00  0.00    -0.084 Cl
HETATM   31  C   UNL     1       7.789  21.628  54.866  1.00  0.00     0.026 A 
HETATM   32  C   UNL     1       7.610  22.787  55.628  1.00  0.00     0.031 A 
ENDBRANCH  22  26
ENDBRANCH   4  20
TORSDOF 5
ENDMDL
MODEL 7
REMARK VINA RESULT:      -9.1      4.045     10.175
REMARK  5 active torsions:
REMARK  status: ('A' for Active; 'I' for Inactive)
REMARK    1  A    between atoms: C_2  and  C_3 
REMARK    2  A    between atoms: C_6  and  N_7 
REMARK       I    between atoms: N_7  and  C_8 
REMARK       I    between atoms: C_8  and  N_9 
REMARK    3  A    between atoms: N_9  and  C_10 
REMARK    4  A    between atoms: N_20  and  N_21 
REMARK       I    between atoms: N_21  and  C_22 
REMARK    5  A    between atoms: C_22  and  C_23 
ROOT
HETATM    1  C   UNL     1       6.121  29.117  56.522  1.00  0.00    -0.010 A 
HETATM    2  C   UNL     1       5.866  30.271  57.269  1.00  0.00     0.016 A 
HETATM    3  C   UNL     1       6.753  30.659  58.281  1.00  0.00     0.030 A 
HETATM    4  C   UNL     1       7.894  29.894  58.550  1.00  0.00     0.036 A 
HETATM    5  C   UNL     1       8.123  28.724  57.818  1.00  0.00     0.030 A 
HETATM    6  C   UNL     1       7.259  28.351  56.787  1.00  0.00     0.016 A 
ENDROOT
BRANCH   1   7
HETATM    7  C   UNL     1       5.196  28.697  55.438  1.00  0.00     0.061 C 
HETATM    8  C   UNL     1       4.219  29.737  54.935  1.00  0.00     0.073 C 
HETATM    9  N   UNL     1       5.174  27.535  54.854  1.00  0.00    -0.176 NA
BRANCH   9  10
HETATM   10  N   UNL     1       5.960  26.529  55.333  1.00  0.00    -0.243 N 
HETATM   11  C   UNL     1       6.034  25.326  54.646  1.00  0.00     0.273 C 
HETATM   12  O   UNL     1       5.421  25.058  53.617  1.00  0.00    -0.266 OA
HETATM   13  H   UNL     1       6.358  26.635  56.257  1.00  0.00     0.192 HD
BRANCH  11  14
HETATM   14  C   UNL     1       6.938  24.299  55.224  1.00  0.00     0.051 A 
HETATM   15  C   UNL     1       7.210  23.091  54.592  1.00  0.00     0.133 A 
HETATM   16  N   UNL     1       8.020  22.130  55.101  1.00  0.00    -0.272 NA
HETATM   17  C   UNL     1       8.565  22.377  56.312  1.00  0.00     0.116 A 
HETATM   18  C   UNL     1       8.338  23.537  57.036  1.00  0.00     0.020 A 
HETATM   19  C   UNL     1       7.509  24.509  56.482  1.00  0.00     0.020 A 
ENDBRANCH  11  14
ENDBRANCH   9  10
ENDBRANCH   1   7
BRANCH   4  20
HETATM   20  N   UNL     1       8.809  30.194  59.569  1.00  0.00    -0.309 N 
HETATM   21  C   UNL     1       8.655  30.631  60.857  1.00  0.00     0.325 C 
HETATM   22  N   UNL     1       7.452  31.210  61.163  1.00  0.00    -0.309 N 
HETATM   23  O   UNL     1       9.637  30.572  61.593  1.00  0.00    -0.247 OA
HETATM   24  H   UNL     1       6.823  31.335  60.386  1.00  0.00     0.170 HD
HETATM   25  H   UNL     1       9.794  30.104  59.343  1.00  0.00     0.170 HD
BRANCH  22  26
HETATM   26  C   UNL     1       7.096  31.877  62.354  1.00  0.00     0.036 A 
HETATM   27  C   UNL     1       8.014  32.473  63.224  1.00  0.00     0.031 A 
HETATM   28  C   UNL     1       7.574  33.168  64.356  1.00  0.00     0.026 A 
HETATM   29  C   UNL     1       6.213  33.259  64.632  1.00  0.00     0.034 A 
HETATM   30 CL   UNL     1       5.673  34.126  66.016  1.00  0.00    -0.084 Cl
HETATM   31  C   UNL     1       5.288  32.653  63.788  1.00  0.00     0.026 A 
HETATM   32  C   UNL     1       5.728  31.965  62.653  1.00  0.00     0.031 A 
ENDBRANCH  22  26
ENDBRANCH   4  20
TORSDOF 5
ENDMDL
MODEL 8
REMARK VINA RESULT:      -9.0      3.974      7.135
REMARK  5 active torsions:
REMARK  status: ('A' for Active; 'I' for Inactive)
REMARK    1  A    between atoms: C_2  and  C_3 
REMARK    2  A    between atoms: C_6  and  N_7 
REMARK       I    between atoms: N_7  and  C_8 
REMARK       I    between atoms: C_8  and  N_9 
REMARK    3  A    between atoms: N_9  and  C_10 
REMARK    4  A    between atoms: N_20  and  N_21 
REMARK       I    between atoms: N_21  and  C_22 
REMARK    5  A    between atoms: C_22  and  C_23 
ROOT
HETATM    1  C   UNL     1       5.287  29.855  55.992  1.00  0.00    -0.010 A 
HETATM    2  C   UNL     1       4.565  28.717  56.363  1.00  0.00     0.016 A 
HETATM    3  C   UNL     1       5.228  27.625  56.936  1.00  0.00     0.030 A 
HETATM    4  C   UNL     1       6.613  27.666  57.135  1.00  0.00     0.036 A 
HETATM    5  C   UNL     1       7.331  28.797  56.730  1.00  0.00     0.030 A 
HETATM    6  C   UNL     1       6.669  29.901  56.190  1.00  0.00     0.016 A 
ENDROOT
BRANCH   1   7
HETATM    7  C   UNL     1       4.597  31.028  55.394  1.00  0.00     0.061 C 
HETATM    8  C   UNL     1       4.241  32.160  56.331  1.00  0.00     0.073 C 
HETATM    9  N   UNL     1       4.306  31.189  54.136  1.00  0.00    -0.176 NA
BRANCH   9  10
HETATM   10  N   UNL     1       4.511  30.161  53.264  1.00  0.00    -0.243 N 
HETATM   11  C   UNL     1       3.711  30.045  52.136  1.00  0.00     0.273 C 
HETATM   12  O   UNL     1       2.785  30.796  51.843  1.00  0.00    -0.266 OA
HETATM   13  H   UNL     1       5.148  29.425  53.538  1.00  0.00     0.192 HD
BRANCH  11  14
HETATM   14  C   UNL     1       4.025  28.913  51.227  1.00  0.00     0.051 A 
HETATM   15  C   UNL     1       3.323  28.672  50.052  1.00  0.00     0.133 A 
HETATM   16  N   UNL     1       3.578  27.640  49.209  1.00  0.00    -0.272 NA
HETATM   17  C   UNL     1       4.566  26.793  49.572  1.00  0.00     0.116 A 
HETATM   18  C   UNL     1       5.308  26.929  50.735  1.00  0.00     0.020 A 
HETATM   19  C   UNL     1       5.028  28.005  51.574  1.00  0.00     0.020 A 
ENDBRANCH  11  14
ENDBRANCH   9  10
ENDBRANCH   1   7
BRANCH   4  20
HETATM   20  N   UNL     1       7.355  26.601  57.666  1.00  0.00    -0.309 N 
HETATM   21  C   UNL     1       7.899  25.477  57.106  1.00  0.00     0.325 C 
HETATM   22  N   UNL     1       7.391  25.095  55.892  1.00  0.00    -0.309 N 
HETATM   23  O   UNL     1       8.707  24.846  57.781  1.00  0.00    -0.247 OA
HETATM   24  H   UNL     1       6.604  25.633  55.564  1.00  0.00     0.170 HD
HETATM   25  H   UNL     1       7.528  26.615  58.665  1.00  0.00     0.170 HD
BRANCH  22  26
HETATM   26  C   UNL     1       7.657  23.905  55.182  1.00  0.00     0.036 A 
HETATM   27  C   UNL     1       7.620  22.629  55.750  1.00  0.00     0.031 A 
HETATM   28  C   UNL     1       7.840  21.492  54.963  1.00  0.00     0.026 A 
HETATM   29  C   UNL     1       8.111  21.629  53.605  1.00  0.00     0.034 A 
HETATM   30 CL   UNL     1       8.365  20.231  52.635  1.00  0.00    -0.084 Cl
HETATM   31  C   UNL     1       8.173  22.893  53.029  1.00  0.00     0.026 A 
HETATM   32  C   UNL     1       7.946  24.028  53.815  1.00  0.00     0.031 A 
ENDBRANCH  22  26
ENDBRANCH   4  20
TORSDOF 5
ENDMDL
MODEL 9
REMARK VINA RESULT:      -8.7      3.948      9.588
REMARK  5 active torsions:
REMARK  status: ('A' for Active; 'I' for Inactive)
REMARK    1  A    between atoms: C_2  and  C_3 
REMARK    2  A    between atoms: C_6  and  N_7 
REMARK       I    between atoms: N_7  and  C_8 
REMARK       I    between atoms: C_8  and  N_9 
REMARK    3  A    between atoms: N_9  and  C_10 
REMARK    4  A    between atoms: N_20  and  N_21 
REMARK       I    between atoms: N_21  and  C_22 
REMARK    5  A    between atoms: C_22  and  C_23 
ROOT
HETATM    1  C   UNL     1       5.280  26.633  53.501  1.00  0.00    -0.010 A 
HETATM    2  C   UNL     1       5.523  26.162  54.795  1.00  0.00     0.016 A 
HETATM    3  C   UNL     1       5.105  26.912  55.902  1.00  0.00     0.030 A 
HETATM    4  C   UNL     1       4.448  28.133  55.718  1.00  0.00     0.036 A 
HETATM    5  C   UNL     1       4.238  28.611  54.420  1.00  0.00     0.030 A 
HETATM    6  C   UNL     1       4.623  27.851  53.314  1.00  0.00     0.016 A 
ENDROOT
BRANCH   1   7
HETATM    7  C   UNL     1       5.707  25.844  52.316  1.00  0.00     0.061 C 
HETATM    8  C   UNL     1       5.318  26.389  50.959  1.00  0.00     0.073 C 
HETATM    9  N   UNL     1       6.415  24.753  52.334  1.00  0.00    -0.176 NA
BRANCH   9  10
HETATM   10  N   UNL     1       6.706  24.163  53.527  1.00  0.00    -0.243 N 
HETATM   11  C   UNL     1       7.474  23.007  53.555  1.00  0.00     0.273 C 
HETATM   12  O   UNL     1       7.920  22.428  52.569  1.00  0.00    -0.266 OA
HETATM   13  H   UNL     1       6.232  24.502  54.354  1.00  0.00     0.192 HD
BRANCH  11  14
HETATM   14  C   UNL     1       7.767  22.450  54.901  1.00  0.00     0.051 A 
HETATM   15  C   UNL     1       8.078  23.247  55.996  1.00  0.00     0.133 A 
HETATM   16  N   UNL     1       8.362  22.767  57.232  1.00  0.00    -0.272 NA
HETATM   17  C   UNL     1       8.359  21.423  57.375  1.00  0.00     0.116 A 
HETATM   18  C   UNL     1       8.088  20.540  56.342  1.00  0.00     0.020 A 
HETATM   19  C   UNL     1       7.790  21.065  55.086  1.00  0.00     0.020 A 
ENDBRANCH  11  14
ENDBRANCH   9  10
ENDBRANCH   1   7
BRANCH   4  20
HETATM   20  N   UNL     1       4.032  28.960  56.772  1.00  0.00    -0.309 N 
HETATM   21  C   UNL     1       4.696  29.852  57.570  1.00  0.00     0.325 C 
HETATM   22  N   UNL     1       6.059  29.724  57.624  1.00  0.00    -0.309 N 
HETATM   23  O   UNL     1       4.014  30.613  58.252  1.00  0.00    -0.247 OA
HETATM   24  H   UNL     1       6.437  28.929  57.134  1.00  0.00     0.170 HD
HETATM   25  H   UNL     1       3.058  28.900  57.045  1.00  0.00     0.170 HD
BRANCH  22  26
HETATM   26  C   UNL     1       6.954  30.402  58.478  1.00  0.00     0.036 A 
HETATM   27  C   UNL     1       6.706  31.659  59.036  1.00  0.00     0.031 A 
HETATM   28  C   UNL     1       7.622  32.238  59.923  1.00  0.00     0.026 A 
HETATM   29  C   UNL     1       8.797  31.567  60.245  1.00  0.00     0.034 A 
HETATM   30 CL   UNL     1       9.915  32.272  61.346  1.00  0.00    -0.084 Cl
HETATM   31  C   UNL     1       9.070  30.324  59.681  1.00  0.00     0.026 A 
HETATM   32  C   UNL     1       8.150  29.744  58.801  1.00  0.00     0.031 A 
ENDBRANCH  22  26
ENDBRANCH   4  20
TORSDOF 5
ENDMDL
MODEL 10
REMARK VINA RESULT:      -8.6      5.945      9.688
REMARK  5 active torsions:
REMARK  status: ('A' for Active; 'I' for Inactive)
REMARK    1  A    between atoms: C_2  and  C_3 
REMARK    2  A    between atoms: C_6  and  N_7 
REMARK       I    between atoms: N_7  and  C_8 
REMARK       I    between atoms: C_8  and  N_9 
REMARK    3  A    between atoms: N_9  and  C_10 
REMARK    4  A    between atoms: N_20  and  N_21 
REMARK       I    between atoms: N_21  and  C_22 
REMARK    5  A    between atoms: C_22  and  C_23 
ROOT
HETATM    1  C   UNL     1       6.409  26.741  53.892  1.00  0.00    -0.010 A 
HETATM    2  C   UNL     1       5.060  27.081  53.747  1.00  0.00     0.016 A 
HETATM    3  C   UNL     1       4.384  26.768  52.562  1.00  0.00     0.030 A 
HETATM    4  C   UNL     1       5.054  26.118  51.518  1.00  0.00     0.036 A 
HETATM    5  C   UNL     1       6.411  25.811  51.661  1.00  0.00     0.030 A 
HETATM    6  C   UNL     1       7.080  26.092  52.853  1.00  0.00     0.016 A 
ENDROOT
BRANCH   1   7
HETATM    7  C   UNL     1       7.138  27.056  55.148  1.00  0.00     0.061 C 
HETATM    8  C   UNL     1       7.119  28.498  55.605  1.00  0.00     0.073 C 
HETATM    9  N   UNL     1       7.758  26.203  55.911  1.00  0.00    -0.176 NA
BRANCH   9  10
HETATM   10  N   UNL     1       7.894  24.911  55.497  1.00  0.00    -0.243 N 
HETATM   11  C   UNL     1       8.405  23.959  56.369  1.00  0.00     0.273 C 
HETATM   12  O   UNL     1       8.781  24.179  57.517  1.00  0.00    -0.266 OA
HETATM   13  H   UNL     1       7.755  24.708  54.516  1.00  0.00     0.192 HD
BRANCH  11  14
HETATM   14  C   UNL     1       8.491  22.573  55.845  1.00  0.00     0.051 A 
HETATM   15  C   UNL     1       8.502  21.453  56.669  1.00  0.00     0.133 A 
HETATM   16  N   UNL     1       8.592  20.177  56.219  1.00  0.00    -0.272 NA
HETATM   17  C   UNL     1       8.701  20.012  54.883  1.00  0.00     0.116 A 
HETATM   18  C   UNL     1       8.725  21.061  53.977  1.00  0.00     0.020 A 
HETATM   19  C   UNL     1       8.621  22.360  54.470  1.00  0.00     0.020 A 
ENDBRANCH  11  14
ENDBRANCH   9  10
ENDBRANCH   1   7
BRANCH   4  20
HETATM   20  N   UNL     1       4.458  25.805  50.288  1.00  0.00    -0.309 N 
HETATM   21  C   UNL     1       4.239  26.533  49.149  1.00  0.00     0.325 C 
HETATM   22  N   UNL     1       4.284  27.896  49.280  1.00  0.00    -0.309 N 
HETATM   23  O   UNL     1       3.911  25.914  48.140  1.00  0.00    -0.247 OA
HETATM   24  H   UNL     1       4.392  28.235  50.223  1.00  0.00     0.170 HD
HETATM   25  H   UNL     1       4.082  24.869  50.186  1.00  0.00     0.170 HD
BRANCH  22  26
HETATM   26  C   UNL     1       3.942  28.865  48.315  1.00  0.00     0.036 A 
HETATM   27  C   UNL     1       4.873  29.582  47.559  1.00  0.00     0.031 A 
HETATM   28  C   UNL     1       4.450  30.485  46.577  1.00  0.00     0.026 A 
HETATM   29  C   UNL     1       3.091  30.686  46.355  1.00  0.00     0.034 A 
HETATM   30 CL   UNL     1       2.573  31.785  45.138  1.00  0.00    -0.084 Cl
HETATM   31  C   UNL     1       2.151  29.996  47.114  1.00  0.00     0.026 A 
HETATM   32  C   UNL     1       2.575  29.089  48.090  1.00  0.00     0.031 A 
ENDBRANCH  22  26
ENDBRANCH   4  20
TORSDOF 5
ENDMDL
