MODEL 1
REMARK VINA RESULT:      -8.4      0.000      0.000
REMARK  3 active torsions:
REMARK  status: ('A' for Active; 'I' for Inactive)
REMARK    1  A    between atoms: C_9  and  C_10 
REMARK    2  A    between atoms: C_16  and  C_17 
REMARK       I    between atoms: C_17  and  N_18 
REMARK    3  A    between atoms: N_18  and  C_19 
ROOT
HETATM    1  C   UNL     1       5.195  26.644  50.405  1.00  0.00     0.070 C 
HETATM    2  C   UNL     1       4.987  27.438  51.670  1.00  0.00     0.037 A 
HETATM    3  N   UNL     1       4.714  28.792  51.495  1.00  0.00    -0.191 N 
HETATM    4  C   UNL     1       4.329  29.597  52.506  1.00  0.00     0.735 A 
HETATM    5  N   UNL     1       4.314  29.109  53.782  1.00  0.00    -0.091 N 
HETATM    6  N   UNL     1       3.771  30.012  54.617  1.00  0.00     0.012 NA
HETATM    7  N   UNL     1       3.540  31.074  53.852  1.00  0.00     0.033 NA
HETATM    8  N   UNL     1       3.878  30.828  52.535  1.00  0.00     0.030 NA
HETATM    9  C   UNL     1       4.684  27.750  54.156  1.00  0.00     0.216 A 
HETATM   10  C   UNL     1       4.993  26.913  52.920  1.00  0.00     0.063 A 
HETATM   11  H   UNL     1       4.654  29.143  50.542  1.00  0.00     0.184 HD
ENDROOT
BRANCH  10  12
HETATM   12  C   UNL     1       5.220  25.478  53.227  1.00  0.00     0.256 C 
HETATM   13  N   UNL     1       6.525  25.190  53.557  1.00  0.00    -0.323 N 
HETATM   14  H   UNL     1       7.157  25.979  53.631  1.00  0.00     0.169 HD
HETATM   15  O   UNL     1       4.261  24.718  53.202  1.00  0.00    -0.267 OA
BRANCH  13  16
HETATM   16  C   UNL     1       7.081  23.922  53.823  1.00  0.00     0.035 A 
HETATM   17  C   UNL     1       7.594  23.074  52.841  1.00  0.00     0.029 A 
HETATM   18  C   UNL     1       8.147  21.838  53.190  1.00  0.00     0.002 A 
HETATM   19  C   UNL     1       8.200  21.443  54.524  1.00  0.00     0.000 A 
HETATM   20  C   UNL     1       7.691  22.282  55.512  1.00  0.00     0.002 A 
HETATM   21  C   UNL     1       7.131  23.514  55.163  1.00  0.00     0.029 A 
ENDBRANCH  13  16
ENDBRANCH  10  12
BRANCH   9  22
HETATM   22  C   UNL     1       5.856  27.813  55.127  1.00  0.00     0.064 A 
HETATM   23  N   UNL     1       7.032  28.339  54.683  1.00  0.00    -0.263 NA
HETATM   24  C   UNL     1       8.049  28.426  55.570  1.00  0.00     0.117 A 
HETATM   25  C   UNL     1       7.963  28.008  56.887  1.00  0.00     0.019 A 
HETATM   26  C   UNL     1       6.762  27.468  57.327  1.00  0.00     0.003 A 
HETATM   27  C   UNL     1       5.692  27.368  56.442  1.00  0.00     0.030 A 
ENDBRANCH   9  22
TORSDOF 3
ENDMDL
MODEL 2
REMARK VINA RESULT:      -8.4      1.323      1.798
REMARK  3 active torsions:
REMARK  status: ('A' for Active; 'I' for Inactive)
REMARK    1  A    between atoms: C_9  and  C_10 
REMARK    2  A    between atoms: C_16  and  C_17 
REMARK       I    between atoms: C_17  and  N_18 
REMARK    3  A    between atoms: N_18  and  C_19 
ROOT
HETATM    1  C   UNL     1       4.917  25.011  52.159  1.00  0.00     0.070 C 
HETATM    2  C   UNL     1       4.908  26.180  53.111  1.00  0.00     0.037 A 
HETATM    3  N   UNL     1       4.326  27.348  52.626  1.00  0.00    -0.191 N 
HETATM    4  C   UNL     1       4.078  28.420  53.406  1.00  0.00     0.735 A 
HETATM    5  N   UNL     1       4.515  28.422  54.700  1.00  0.00    -0.091 N 
HETATM    6  N   UNL     1       4.050  29.506  55.345  1.00  0.00     0.012 NA
HETATM    7  N   UNL     1       3.405  30.197  54.410  1.00  0.00     0.033 NA
HETATM    8  N   UNL     1       3.410  29.529  53.200  1.00  0.00     0.030 NA
HETATM    9  C   UNL     1       5.243  27.330  55.332  1.00  0.00     0.216 A 
HETATM   10  C   UNL     1       5.365  26.140  54.387  1.00  0.00     0.063 A 
HETATM   11  H   UNL     1       3.935  27.327  51.687  1.00  0.00     0.184 HD
ENDROOT
BRANCH  10  12
HETATM   12  C   UNL     1       5.957  24.940  55.030  1.00  0.00     0.256 C 
HETATM   13  N   UNL     1       6.876  24.293  54.235  1.00  0.00    -0.323 N 
HETATM   14  H   UNL     1       7.104  24.737  53.353  1.00  0.00     0.169 HD
HETATM   15  O   UNL     1       5.621  24.667  56.175  1.00  0.00    -0.267 OA
BRANCH  13  16
HETATM   16  C   UNL     1       7.553  23.089  54.517  1.00  0.00     0.035 A 
HETATM   17  C   UNL     1       8.067  22.758  55.772  1.00  0.00     0.029 A 
HETATM   18  C   UNL     1       8.709  21.533  55.975  1.00  0.00     0.002 A 
HETATM   19  C   UNL     1       8.836  20.624  54.927  1.00  0.00     0.000 A 
HETATM   20  C   UNL     1       8.326  20.943  53.672  1.00  0.00     0.002 A 
HETATM   21  C   UNL     1       7.691  22.171  53.466  1.00  0.00     0.029 A 
ENDBRANCH  13  16
ENDBRANCH  10  12
BRANCH   9  22
HETATM   22  C   UNL     1       6.599  27.850  55.794  1.00  0.00     0.064 A 
HETATM   23  N   UNL     1       7.442  28.369  54.858  1.00  0.00    -0.263 NA
HETATM   24  C   UNL     1       8.623  28.865  55.290  1.00  0.00     0.117 A 
HETATM   25  C   UNL     1       9.021  28.867  56.616  1.00  0.00     0.019 A 
HETATM   26  C   UNL     1       8.156  28.330  57.561  1.00  0.00     0.003 A 
HETATM   27  C   UNL     1       6.930  27.816  57.151  1.00  0.00     0.030 A 
ENDBRANCH   9  22
TORSDOF 3
ENDMDL
MODEL 3
REMARK VINA RESULT:      -8.3      7.926     10.624
REMARK  3 active torsions:
REMARK  status: ('A' for Active; 'I' for Inactive)
REMARK    1  A    between atoms: C_9  and  C_10 
REMARK    2  A    between atoms: C_16  and  C_17 
REMARK       I    between atoms: C_17  and  N_18 
REMARK    3  A    between atoms: N_18  and  C_19 
ROOT
HETATM    1  C   UNL     1       3.113  34.171  64.077  1.00  0.00     0.070 C 
HETATM    2  C   UNL     1       2.681  34.259  62.636  1.00  0.00     0.037 A 
HETATM    3  N   UNL     1       1.310  34.368  62.423  1.00  0.00    -0.191 N 
HETATM    4  C   UNL     1       0.776  34.635  61.213  1.00  0.00     0.735 A 
HETATM    5  N   UNL     1       1.592  34.688  60.118  1.00  0.00    -0.091 N 
HETATM    6  N   UNL     1       0.898  35.104  59.044  1.00  0.00     0.012 NA
HETATM    7  N   UNL     1      -0.353  35.215  59.479  1.00  0.00     0.033 NA
HETATM    8  N   UNL     1      -0.442  34.931  60.829  1.00  0.00     0.030 NA
HETATM    9  C   UNL     1       3.033  34.482  60.147  1.00  0.00     0.216 A 
HETATM   10  C   UNL     1       3.528  34.297  61.577  1.00  0.00     0.063 A 
HETATM   11  H   UNL     1       0.705  34.400  63.241  1.00  0.00     0.184 HD
ENDROOT
BRANCH  10  12
HETATM   12  C   UNL     1       5.007  34.243  61.683  1.00  0.00     0.256 C 
HETATM   13  N   UNL     1       5.524  32.986  61.460  1.00  0.00    -0.323 N 
HETATM   14  H   UNL     1       4.866  32.270  61.177  1.00  0.00     0.169 HD
HETATM   15  O   UNL     1       5.614  35.282  61.907  1.00  0.00    -0.267 OA
BRANCH  13  16
HETATM   16  C   UNL     1       6.872  32.585  61.563  1.00  0.00     0.035 A 
HETATM   17  C   UNL     1       7.446  32.071  62.726  1.00  0.00     0.029 A 
HETATM   18  C   UNL     1       8.788  31.677  62.740  1.00  0.00     0.002 A 
HETATM   19  C   UNL     1       9.564  31.785  61.589  1.00  0.00     0.000 A 
HETATM   20  C   UNL     1       9.001  32.295  60.422  1.00  0.00     0.002 A 
HETATM   21  C   UNL     1       7.662  32.697  60.410  1.00  0.00     0.029 A 
ENDBRANCH  13  16
ENDBRANCH  10  12
BRANCH   9  22
HETATM   22  C   UNL     1       3.374  33.295  59.254  1.00  0.00     0.064 A 
HETATM   23  N   UNL     1       3.033  32.048  59.684  1.00  0.00    -0.263 NA
HETATM   24  C   UNL     1       3.304  31.009  58.861  1.00  0.00     0.117 A 
HETATM   25  C   UNL     1       3.909  31.144  57.623  1.00  0.00     0.019 A 
HETATM   26  C   UNL     1       4.257  32.419  57.197  1.00  0.00     0.003 A 
HETATM   27  C   UNL     1       3.988  33.511  58.017  1.00  0.00     0.030 A 
ENDBRANCH   9  22
TORSDOF 3
ENDMDL
MODEL 4
REMARK VINA RESULT:      -8.0      5.201      8.701
REMARK  3 active torsions:
REMARK  status: ('A' for Active; 'I' for Inactive)
REMARK    1  A    between atoms: C_9  and  C_10 
REMARK    2  A    between atoms: C_16  and  C_17 
REMARK       I    between atoms: C_17  and  N_18 
REMARK    3  A    between atoms: N_18  and  C_19 
ROOT
HETATM    1  C   UNL     1      10.635  30.242  57.704  1.00  0.00     0.070 C 
HETATM    2  C   UNL     1       9.224  29.738  57.538  1.00  0.00     0.037 A 
HETATM    3  N   UNL     1       9.063  28.676  56.653  1.00  0.00    -0.191 N 
HETATM    4  C   UNL     1       7.905  27.997  56.527  1.00  0.00     0.735 A 
HETATM    5  N   UNL     1       6.799  28.430  57.202  1.00  0.00    -0.091 N 
HETATM    6  N   UNL     1       5.794  27.548  57.060  1.00  0.00     0.012 NA
HETATM    7  N   UNL     1       6.275  26.629  56.228  1.00  0.00     0.033 NA
HETATM    8  N   UNL     1       7.589  26.894  55.892  1.00  0.00     0.030 NA
HETATM    9  C   UNL     1       6.763  29.594  58.078  1.00  0.00     0.216 A 
HETATM   10  C   UNL     1       8.151  30.208  58.222  1.00  0.00     0.063 A 
HETATM   11  H   UNL     1       9.897  28.305  56.203  1.00  0.00     0.184 HD
ENDROOT
BRANCH  10  12
HETATM   12  C   UNL     1       8.208  31.298  59.227  1.00  0.00     0.256 C 
HETATM   13  N   UNL     1       7.589  30.979  60.414  1.00  0.00    -0.323 N 
HETATM   14  H   UNL     1       7.240  30.032  60.502  1.00  0.00     0.169 HD
HETATM   15  O   UNL     1       8.811  32.325  58.940  1.00  0.00    -0.267 OA
BRANCH  13  16
HETATM   16  C   UNL     1       7.401  31.816  61.533  1.00  0.00     0.035 A 
HETATM   17  C   UNL     1       8.222  31.805  62.662  1.00  0.00     0.029 A 
HETATM   18  C   UNL     1       7.979  32.682  63.724  1.00  0.00     0.002 A 
HETATM   19  C   UNL     1       6.920  33.584  63.662  1.00  0.00     0.000 A 
HETATM   20  C   UNL     1       6.095  33.604  62.540  1.00  0.00     0.002 A 
HETATM   21  C   UNL     1       6.333  32.721  61.482  1.00  0.00     0.029 A 
ENDBRANCH  13  16
ENDBRANCH  10  12
BRANCH   9  22
HETATM   22  C   UNL     1       5.741  30.584  57.534  1.00  0.00     0.064 A 
HETATM   23  N   UNL     1       4.912  31.204  58.420  1.00  0.00    -0.263 NA
HETATM   24  C   UNL     1       4.039  32.111  57.926  1.00  0.00     0.117 A 
HETATM   25  C   UNL     1       3.939  32.434  56.584  1.00  0.00     0.019 A 
HETATM   26  C   UNL     1       4.784  31.792  55.689  1.00  0.00     0.003 A 
HETATM   27  C   UNL     1       5.698  30.856  56.164  1.00  0.00     0.030 A 
ENDBRANCH   9  22
TORSDOF 3
ENDMDL
MODEL 5
REMARK VINA RESULT:      -7.9      1.800      3.896
REMARK  3 active torsions:
REMARK  status: ('A' for Active; 'I' for Inactive)
REMARK    1  A    between atoms: C_9  and  C_10 
REMARK    2  A    between atoms: C_16  and  C_17 
REMARK       I    between atoms: C_17  and  N_18 
REMARK    3  A    between atoms: N_18  and  C_19 
ROOT
HETATM    1  C   UNL     1       5.142  25.257  57.415  1.00  0.00     0.070 C 
HETATM    2  C   UNL     1       5.134  26.322  56.349  1.00  0.00     0.037 A 
HETATM    3  N   UNL     1       4.220  27.356  56.535  1.00  0.00    -0.191 N 
HETATM    4  C   UNL     1       4.210  28.469  55.775  1.00  0.00     0.735 A 
HETATM    5  N   UNL     1       5.048  28.553  54.699  1.00  0.00    -0.091 N 
HETATM    6  N   UNL     1       4.990  29.784  54.161  1.00  0.00     0.012 NA
HETATM    7  N   UNL     1       4.051  30.410  54.866  1.00  0.00     0.033 NA
HETATM    8  N   UNL     1       3.561  29.604  55.876  1.00  0.00     0.030 NA
HETATM    9  C   UNL     1       5.984  27.514  54.293  1.00  0.00     0.216 A 
HETATM   10  C   UNL     1       5.979  26.359  55.288  1.00  0.00     0.063 A 
HETATM   11  H   UNL     1       3.644  27.332  57.374  1.00  0.00     0.184 HD
ENDROOT
BRANCH  10  12
HETATM   12  C   UNL     1       7.027  25.345  55.015  1.00  0.00     0.256 C 
HETATM   13  N   UNL     1       6.519  24.095  54.741  1.00  0.00    -0.323 N 
HETATM   14  H   UNL     1       5.510  24.020  54.679  1.00  0.00     0.169 HD
HETATM   15  O   UNL     1       8.198  25.702  55.014  1.00  0.00    -0.267 OA
BRANCH  13  16
HETATM   16  C   UNL     1       7.244  22.907  54.518  1.00  0.00     0.035 A 
HETATM   17  C   UNL     1       7.611  22.016  55.528  1.00  0.00     0.029 A 
HETATM   18  C   UNL     1       8.315  20.847  55.221  1.00  0.00     0.002 A 
HETATM   19  C   UNL     1       8.648  20.553  53.901  1.00  0.00     0.000 A 
HETATM   20  C   UNL     1       8.285  21.434  52.885  1.00  0.00     0.002 A 
HETATM   21  C   UNL     1       7.590  22.607  53.193  1.00  0.00     0.029 A 
ENDBRANCH  13  16
ENDBRANCH  10  12
BRANCH   9  22
HETATM   22  C   UNL     1       5.635  27.067  52.879  1.00  0.00     0.064 A 
HETATM   23  N   UNL     1       5.149  25.806  52.704  1.00  0.00    -0.263 NA
HETATM   24  C   UNL     1       4.804  25.440  51.449  1.00  0.00     0.117 A 
HETATM   25  C   UNL     1       4.924  26.265  50.344  1.00  0.00     0.019 A 
HETATM   26  C   UNL     1       5.426  27.546  50.533  1.00  0.00     0.003 A 
HETATM   27  C   UNL     1       5.786  27.957  51.813  1.00  0.00     0.030 A 
ENDBRANCH   9  22
TORSDOF 3
ENDMDL
MODEL 6
REMARK VINA RESULT:      -7.8      2.860      7.154
REMARK  3 active torsions:
REMARK  status: ('A' for Active; 'I' for Inactive)
REMARK    1  A    between atoms: C_9  and  C_10 
REMARK    2  A    between atoms: C_16  and  C_17 
REMARK       I    between atoms: C_17  and  N_18 
REMARK    3  A    between atoms: N_18  and  C_19 
ROOT
HETATM    1  C   UNL     1       8.992  24.811  57.804  1.00  0.00     0.070 C 
HETATM    2  C   UNL     1       8.473  24.056  56.608  1.00  0.00     0.037 A 
HETATM    3  N   UNL     1       9.297  23.040  56.131  1.00  0.00    -0.191 N 
HETATM    4  C   UNL     1       8.903  22.160  55.188  1.00  0.00     0.735 A 
HETATM    5  N   UNL     1       7.691  22.328  54.580  1.00  0.00    -0.091 N 
HETATM    6  N   UNL     1       7.423  21.279  53.782  1.00  0.00     0.012 NA
HETATM    7  N   UNL     1       8.516  20.525  53.849  1.00  0.00     0.033 NA
HETATM    8  N   UNL     1       9.443  21.059  54.724  1.00  0.00     0.030 NA
HETATM    9  C   UNL     1       6.757  23.405  54.875  1.00  0.00     0.216 A 
HETATM   10  C   UNL     1       7.265  24.265  56.027  1.00  0.00     0.063 A 
HETATM   11  H   UNL     1      10.168  22.866  56.627  1.00  0.00     0.184 HD
ENDROOT
BRANCH  10  12
HETATM   12  C   UNL     1       6.282  25.281  56.479  1.00  0.00     0.256 C 
HETATM   13  N   UNL     1       6.562  26.551  56.027  1.00  0.00    -0.323 N 
HETATM   14  H   UNL     1       7.343  26.641  55.387  1.00  0.00     0.169 HD
HETATM   15  O   UNL     1       5.326  24.910  57.148  1.00  0.00    -0.267 OA
BRANCH  13  16
HETATM   16  C   UNL     1       5.875  27.741  56.339  1.00  0.00     0.035 A 
HETATM   17  C   UNL     1       4.622  28.077  55.821  1.00  0.00     0.029 A 
HETATM   18  C   UNL     1       3.997  29.270  56.197  1.00  0.00     0.002 A 
HETATM   19  C   UNL     1       4.613  30.133  57.100  1.00  0.00     0.000 A 
HETATM   20  C   UNL     1       5.862  29.807  57.623  1.00  0.00     0.002 A 
HETATM   21  C   UNL     1       6.491  28.619  57.241  1.00  0.00     0.029 A 
ENDBRANCH  13  16
ENDBRANCH  10  12
BRANCH   9  22
HETATM   22  C   UNL     1       6.523  24.212  53.604  1.00  0.00     0.064 A 
HETATM   23  N   UNL     1       5.246  24.581  53.302  1.00  0.00    -0.263 NA
HETATM   24  C   UNL     1       5.060  25.332  52.193  1.00  0.00     0.117 A 
HETATM   25  C   UNL     1       6.084  25.735  51.354  1.00  0.00     0.019 A 
HETATM   26  C   UNL     1       7.381  25.349  51.668  1.00  0.00     0.003 A 
HETATM   27  C   UNL     1       7.608  24.579  52.805  1.00  0.00     0.030 A 
ENDBRANCH   9  22
TORSDOF 3
ENDMDL
MODEL 7
REMARK VINA RESULT:      -7.7      1.966      4.628
REMARK  3 active torsions:
REMARK  status: ('A' for Active; 'I' for Inactive)
REMARK    1  A    between atoms: C_9  and  C_10 
REMARK    2  A    between atoms: C_16  and  C_17 
REMARK       I    between atoms: C_17  and  N_18 
REMARK    3  A    between atoms: N_18  and  C_19 
ROOT
HETATM    1  C   UNL     1       4.341  28.967  54.644  1.00  0.00     0.070 C 
HETATM    2  C   UNL     1       4.665  29.173  53.187  1.00  0.00     0.037 A 
HETATM    3  N   UNL     1       4.618  30.490  52.737  1.00  0.00    -0.191 N 
HETATM    4  C   UNL     1       5.051  30.863  51.516  1.00  0.00     0.735 A 
HETATM    5  N   UNL     1       5.447  29.905  50.625  1.00  0.00    -0.091 N 
HETATM    6  N   UNL     1       5.973  30.481  49.530  1.00  0.00     0.012 NA
HETATM    7  N   UNL     1       5.812  31.785  49.731  1.00  0.00     0.033 NA
HETATM    8  N   UNL     1       5.243  32.036  50.965  1.00  0.00     0.030 NA
HETATM    9  C   UNL     1       5.448  28.473  50.892  1.00  0.00     0.216 A 
HETATM   10  C   UNL     1       5.043  28.189  52.333  1.00  0.00     0.063 A 
HETATM   11  H   UNL     1       4.393  31.213  53.417  1.00  0.00     0.184 HD
ENDROOT
BRANCH  10  12
HETATM   12  C   UNL     1       5.180  26.759  52.709  1.00  0.00     0.256 C 
HETATM   13  N   UNL     1       6.470  26.400  53.027  1.00  0.00    -0.323 N 
HETATM   14  H   UNL     1       7.156  27.145  53.046  1.00  0.00     0.169 HD
HETATM   15  O   UNL     1       4.171  26.066  52.744  1.00  0.00    -0.267 OA
BRANCH  13  16
HETATM   16  C   UNL     1       6.945  25.111  53.346  1.00  0.00     0.035 A 
HETATM   17  C   UNL     1       7.601  24.275  52.441  1.00  0.00     0.029 A 
HETATM   18  C   UNL     1       8.060  23.017  52.844  1.00  0.00     0.002 A 
HETATM   19  C   UNL     1       7.875  22.588  54.156  1.00  0.00     0.000 A 
HETATM   20  C   UNL     1       7.223  23.414  55.067  1.00  0.00     0.002 A 
HETATM   21  C   UNL     1       6.757  24.669  54.663  1.00  0.00     0.029 A 
ENDBRANCH  13  16
ENDBRANCH  10  12
BRANCH   9  22
HETATM   22  C   UNL     1       4.534  27.788  49.883  1.00  0.00     0.064 A 
HETATM   23  N   UNL     1       3.281  28.294  49.703  1.00  0.00    -0.263 NA
HETATM   24  C   UNL     1       2.498  27.701  48.774  1.00  0.00     0.117 A 
HETATM   25  C   UNL     1       2.893  26.617  48.009  1.00  0.00     0.019 A 
HETATM   26  C   UNL     1       4.170  26.107  48.204  1.00  0.00     0.003 A 
HETATM   27  C   UNL     1       5.005  26.696  49.149  1.00  0.00     0.030 A 
ENDBRANCH   9  22
TORSDOF 3
ENDMDL
MODEL 8
REMARK VINA RESULT:      -7.7      9.016     12.332
REMARK  3 active torsions:
REMARK  status: ('A' for Active; 'I' for Inactive)
REMARK    1  A    between atoms: C_9  and  C_10 
REMARK    2  A    between atoms: C_16  and  C_17 
REMARK       I    between atoms: C_17  and  N_18 
REMARK    3  A    between atoms: N_18  and  C_19 
ROOT
HETATM    1  C   UNL     1       2.708  34.144  63.198  1.00  0.00     0.070 C 
HETATM    2  C   UNL     1       3.561  33.516  62.125  1.00  0.00     0.037 A 
HETATM    3  N   UNL     1       2.947  32.516  61.375  1.00  0.00    -0.191 N 
HETATM    4  C   UNL     1       3.507  31.983  60.269  1.00  0.00     0.735 A 
HETATM    5  N   UNL     1       4.778  32.344  59.922  1.00  0.00    -0.091 N 
HETATM    6  N   UNL     1       5.098  31.819  58.726  1.00  0.00     0.012 NA
HETATM    7  N   UNL     1       4.047  31.074  58.399  1.00  0.00     0.033 NA
HETATM    8  N   UNL     1       3.047  31.171  59.349  1.00  0.00     0.030 NA
HETATM    9  C   UNL     1       5.604  33.288  60.662  1.00  0.00     0.216 A 
HETATM   10  C   UNL     1       4.826  33.899  61.822  1.00  0.00     0.063 A 
HETATM   11  H   UNL     1       1.976  32.296  61.585  1.00  0.00     0.184 HD
ENDROOT
BRANCH  10  12
HETATM   12  C   UNL     1       5.563  34.985  62.514  1.00  0.00     0.256 C 
HETATM   13  N   UNL     1       5.292  36.237  62.009  1.00  0.00    -0.323 N 
HETATM   14  H   UNL     1       4.579  36.290  61.291  1.00  0.00     0.169 HD
HETATM   15  O   UNL     1       6.282  34.691  63.460  1.00  0.00    -0.267 OA
BRANCH  13  16
HETATM   16  C   UNL     1       5.882  37.459  62.389  1.00  0.00     0.035 A 
HETATM   17  C   UNL     1       6.666  38.244  61.542  1.00  0.00     0.029 A 
HETATM   18  C   UNL     1       7.200  39.456  61.992  1.00  0.00     0.002 A 
HETATM   19  C   UNL     1       6.946  39.898  63.288  1.00  0.00     0.000 A 
HETATM   20  C   UNL     1       6.164  39.124  64.140  1.00  0.00     0.002 A 
HETATM   21  C   UNL     1       5.638  37.908  63.695  1.00  0.00     0.029 A 
ENDBRANCH  13  16
ENDBRANCH  10  12
BRANCH   9  22
HETATM   22  C   UNL     1       6.870  32.574  61.121  1.00  0.00     0.064 A 
HETATM   23  N   UNL     1       6.768  31.676  62.141  1.00  0.00    -0.263 NA
HETATM   24  C   UNL     1       7.892  31.020  62.508  1.00  0.00     0.117 A 
HETATM   25  C   UNL     1       9.127  31.214  61.914  1.00  0.00     0.019 A 
HETATM   26  C   UNL     1       9.221  32.135  60.879  1.00  0.00     0.003 A 
HETATM   27  C   UNL     1       8.082  32.825  60.473  1.00  0.00     0.030 A 
ENDBRANCH   9  22
TORSDOF 3
ENDMDL
MODEL 9
REMARK VINA RESULT:      -7.6      8.779     10.170
REMARK  3 active torsions:
REMARK  status: ('A' for Active; 'I' for Inactive)
REMARK    1  A    between atoms: C_9  and  C_10 
REMARK    2  A    between atoms: C_16  and  C_17 
REMARK       I    between atoms: C_17  and  N_18 
REMARK    3  A    between atoms: N_18  and  C_19 
ROOT
HETATM    1  C   UNL     1       4.713  34.116  57.056  1.00  0.00     0.070 C 
HETATM    2  C   UNL     1       3.742  34.215  58.204  1.00  0.00     0.037 A 
HETATM    3  N   UNL     1       2.631  35.025  57.987  1.00  0.00    -0.191 N 
HETATM    4  C   UNL     1       1.586  35.078  58.838  1.00  0.00     0.735 A 
HETATM    5  N   UNL     1       1.656  34.405  60.026  1.00  0.00    -0.091 N 
HETATM    6  N   UNL     1       0.472  34.465  60.662  1.00  0.00     0.012 NA
HETATM    7  N   UNL     1      -0.278  35.248  59.893  1.00  0.00     0.033 NA
HETATM    8  N   UNL     1       0.402  35.633  58.753  1.00  0.00     0.030 NA
HETATM    9  C   UNL     1       2.792  33.606  60.462  1.00  0.00     0.216 A 
HETATM   10  C   UNL     1       3.857  33.536  59.373  1.00  0.00     0.063 A 
HETATM   11  H   UNL     1       2.541  35.471  57.077  1.00  0.00     0.184 HD
ENDROOT
BRANCH  10  12
HETATM   12  C   UNL     1       4.967  32.605  59.697  1.00  0.00     0.256 C 
HETATM   13  N   UNL     1       5.873  33.127  60.592  1.00  0.00    -0.323 N 
HETATM   14  H   UNL     1       5.651  34.035  60.984  1.00  0.00     0.169 HD
HETATM   15  O   UNL     1       4.956  31.488  59.196  1.00  0.00    -0.267 OA
BRANCH  13  16
HETATM   16  C   UNL     1       7.071  32.534  61.041  1.00  0.00     0.035 A 
HETATM   17  C   UNL     1       7.195  31.848  62.250  1.00  0.00     0.029 A 
HETATM   18  C   UNL     1       8.415  31.270  62.614  1.00  0.00     0.002 A 
HETATM   19  C   UNL     1       9.518  31.365  61.769  1.00  0.00     0.000 A 
HETATM   20  C   UNL     1       9.405  32.047  60.561  1.00  0.00     0.002 A 
HETATM   21  C   UNL     1       8.188  32.632  60.200  1.00  0.00     0.029 A 
ENDBRANCH  13  16
ENDBRANCH  10  12
BRANCH   9  22
HETATM   22  C   UNL     1       3.327  34.187  61.765  1.00  0.00     0.064 A 
HETATM   23  N   UNL     1       3.514  33.342  62.817  1.00  0.00    -0.263 NA
HETATM   24  C   UNL     1       4.030  33.865  63.952  1.00  0.00     0.117 A 
HETATM   25  C   UNL     1       4.366  35.199  64.103  1.00  0.00     0.019 A 
HETATM   26  C   UNL     1       4.166  36.053  63.027  1.00  0.00     0.003 A 
HETATM   27  C   UNL     1       3.642  35.546  61.841  1.00  0.00     0.030 A 
ENDBRANCH   9  22
TORSDOF 3
ENDMDL
MODEL 10
REMARK VINA RESULT:      -7.5      6.184      9.278
REMARK  3 active torsions:
REMARK  status: ('A' for Active; 'I' for Inactive)
REMARK    1  A    between atoms: C_9  and  C_10 
REMARK    2  A    between atoms: C_16  and  C_17 
REMARK       I    between atoms: C_17  and  N_18 
REMARK    3  A    between atoms: N_18  and  C_19 
ROOT
HETATM    1  C   UNL     1       9.650  30.568  58.456  1.00  0.00     0.070 C 
HETATM    2  C   UNL     1       8.181  30.582  58.118  1.00  0.00     0.037 A 
HETATM    3  N   UNL     1       7.807  29.814  57.019  1.00  0.00    -0.191 N 
HETATM    4  C   UNL     1       6.519  29.578  56.696  1.00  0.00     0.735 A 
HETATM    5  N   UNL     1       5.527  30.206  57.395  1.00  0.00    -0.091 N 
HETATM    6  N   UNL     1       4.325  29.734  57.020  1.00  0.00     0.012 NA
HETATM    7  N   UNL     1       4.596  28.885  56.033  1.00  0.00     0.033 NA
HETATM    8  N   UNL     1       5.958  28.774  55.825  1.00  0.00     0.030 NA
HETATM    9  C   UNL     1       5.747  31.132  58.498  1.00  0.00     0.216 A 
HETATM   10  C   UNL     1       7.231  31.231  58.836  1.00  0.00     0.063 A 
HETATM   11  H   UNL     1       8.535  29.288  56.540  1.00  0.00     0.184 HD
ENDROOT
BRANCH  10  12
HETATM   12  C   UNL     1       7.502  32.036  60.053  1.00  0.00     0.256 C 
HETATM   13  N   UNL     1       6.779  31.625  61.151  1.00  0.00    -0.323 N 
HETATM   14  H   UNL     1       6.216  30.791  61.035  1.00  0.00     0.169 HD
HETATM   15  O   UNL     1       8.338  32.928  59.988  1.00  0.00    -0.267 OA
BRANCH  13  16
HETATM   16  C   UNL     1       6.748  32.223  62.427  1.00  0.00     0.035 A 
HETATM   17  C   UNL     1       7.889  32.566  63.155  1.00  0.00     0.029 A 
HETATM   18  C   UNL     1       7.772  33.175  64.409  1.00  0.00     0.002 A 
HETATM   19  C   UNL     1       6.516  33.454  64.941  1.00  0.00     0.000 A 
HETATM   20  C   UNL     1       5.372  33.117  64.222  1.00  0.00     0.002 A 
HETATM   21  C   UNL     1       5.488  32.501  62.973  1.00  0.00     0.029 A 
ENDBRANCH  13  16
ENDBRANCH  10  12
BRANCH   9  22
HETATM   22  C   UNL     1       5.141  32.480  58.131  1.00  0.00     0.064 A 
HETATM   23  N   UNL     1       5.455  33.019  56.919  1.00  0.00    -0.263 NA
HETATM   24  C   UNL     1       4.875  34.195  56.591  1.00  0.00     0.117 A 
HETATM   25  C   UNL     1       3.995  34.878  57.413  1.00  0.00     0.019 A 
HETATM   26  C   UNL     1       3.687  34.323  58.648  1.00  0.00     0.003 A 
HETATM   27  C   UNL     1       4.262  33.110  59.016  1.00  0.00     0.030 A 
ENDBRANCH   9  22
TORSDOF 3
ENDMDL
