MODEL 1
REMARK VINA RESULT:     -10.3      0.000      0.000
REMARK  4 active torsions:
REMARK  status: ('A' for Active; 'I' for Inactive)
REMARK    1  A    between atoms: C_2  and  C_3 
REMARK       I    between atoms: C_3  and  N_4 
REMARK    2  A    between atoms: N_4  and  C_5 
REMARK    3  A    between atoms: C_12  and  C_13 
REMARK       I    between atoms: C_13  and  N_14 
REMARK    4  A    between atoms: C_19  and  C_20 
ROOT
HETATM    1  C   UNL     1       7.203  27.385  55.762  1.00  0.00     0.036 A 
HETATM    2  C   UNL     1       8.250  28.231  56.172  1.00  0.00     0.046 A 
HETATM    3  C   UNL     1       8.019  29.208  57.161  1.00  0.00     0.030 A 
HETATM    4  C   UNL     1       6.752  29.313  57.715  1.00  0.00     0.063 A 
HETATM    5  N   UNL     1       6.836  30.329  58.624  1.00  0.00    -0.277 N 
HETATM    6  H   UNL     1       6.094  30.683  59.218  1.00  0.00     0.189 HD
HETATM    7  N   UNL     1       8.051  30.898  58.712  1.00  0.00    -0.168 NA
HETATM    8  C   UNL     1       8.793  30.214  57.812  1.00  0.00     0.156 A 
HETATM    9  C   UNL     1       5.689  28.489  57.335  1.00  0.00     0.034 A 
HETATM   10  C   UNL     1       5.944  27.524  56.348  1.00  0.00     0.032 A 
ENDROOT
BRANCH   1  11
HETATM   11  N   UNL     1       7.514  26.446  54.751  1.00  0.00    -0.323 N 
HETATM   12  C   UNL     1       6.748  25.376  54.322  1.00  0.00     0.251 C 
HETATM   13  O   UNL     1       5.680  25.044  54.822  1.00  0.00    -0.268 OA
HETATM   14  H   UNL     1       8.408  26.596  54.311  1.00  0.00     0.169 HD
BRANCH  12  15
HETATM   15  C   UNL     1       7.332  24.619  53.144  1.00  0.00     0.007 C 
HETATM   16  C   UNL     1       7.259  25.237  51.771  1.00  0.00     0.054 C 
HETATM   17  C   UNL     1       7.914  23.404  53.260  1.00  0.00     0.025 C 
BRANCH  17  18
HETATM   18  C   UNL     1       8.126  22.564  54.451  1.00  0.00    -0.014 A 
HETATM   19  C   UNL     1       8.039  21.162  54.393  1.00  0.00     0.044 A 
HETATM   20 CL   UNL     1       7.745  20.327  52.903  1.00  0.00    -0.083 Cl
HETATM   21  C   UNL     1       8.175  20.391  55.553  1.00  0.00     0.024 A 
HETATM   22  C   UNL     1       8.397  21.009  56.781  1.00  0.00     0.002 A 
HETATM   23  C   UNL     1       8.479  22.398  56.853  1.00  0.00     0.001 A 
HETATM   24  C   UNL     1       8.334  23.170  55.698  1.00  0.00     0.013 A 
ENDBRANCH  17  18
ENDBRANCH  12  15
ENDBRANCH   1  11
BRANCH   8  25
HETATM   25  C   UNL     1      10.210  30.526  57.587  1.00  0.00     0.270 C 
HETATM   26  N   UNL     1      10.932  29.497  57.047  1.00  0.00    -0.365 N 
HETATM   27  H   UNL     1      10.457  28.626  56.845  1.00  0.00     0.159 HD
HETATM   28  H   UNL     1      11.913  29.618  56.853  1.00  0.00     0.159 HD
HETATM   29  O   UNL     1      10.733  31.605  57.850  1.00  0.00    -0.266 OA
ENDBRANCH   8  25
TORSDOF 4
ENDMDL
MODEL 2
REMARK VINA RESULT:     -10.3      2.271      3.475
REMARK  4 active torsions:
REMARK  status: ('A' for Active; 'I' for Inactive)
REMARK    1  A    between atoms: C_2  and  C_3 
REMARK       I    between atoms: C_3  and  N_4 
REMARK    2  A    between atoms: N_4  and  C_5 
REMARK    3  A    between atoms: C_12  and  C_13 
REMARK       I    between atoms: C_13  and  N_14 
REMARK    4  A    between atoms: C_19  and  C_20 
ROOT
HETATM    1  C   UNL     1       8.028  28.418  57.081  1.00  0.00     0.036 A 
HETATM    2  C   UNL     1       7.697  29.316  58.114  1.00  0.00     0.046 A 
HETATM    3  C   UNL     1       8.570  30.376  58.431  1.00  0.00     0.030 A 
HETATM    4  C   UNL     1       9.747  30.511  57.709  1.00  0.00     0.063 A 
HETATM    5  N   UNL     1      10.373  31.605  58.237  1.00  0.00    -0.277 N 
HETATM    6  H   UNL     1      11.263  32.000  57.953  1.00  0.00     0.189 HD
HETATM    7  N   UNL     1       9.705  32.196  59.244  1.00  0.00    -0.168 NA
HETATM    8  C   UNL     1       8.587  31.445  59.374  1.00  0.00     0.156 A 
HETATM    9  C   UNL     1      10.108  29.642  56.677  1.00  0.00     0.034 A 
HETATM   10  C   UNL     1       9.222  28.594  56.380  1.00  0.00     0.032 A 
ENDROOT
BRANCH   1  11
HETATM   11  N   UNL     1       7.107  27.372  56.840  1.00  0.00    -0.323 N 
HETATM   12  C   UNL     1       7.275  26.021  57.086  1.00  0.00     0.251 C 
HETATM   13  O   UNL     1       8.310  25.516  57.506  1.00  0.00    -0.268 OA
HETATM   14  H   UNL     1       6.235  27.676  56.436  1.00  0.00     0.169 HD
BRANCH  12  15
HETATM   15  C   UNL     1       6.048  25.173  56.803  1.00  0.00     0.007 C 
HETATM   16  C   UNL     1       4.742  25.537  57.462  1.00  0.00     0.054 C 
HETATM   17  C   UNL     1       6.066  24.096  55.986  1.00  0.00     0.025 C 
BRANCH  17  18
HETATM   18  C   UNL     1       7.175  23.506  55.217  1.00  0.00    -0.014 A 
HETATM   19  C   UNL     1       7.252  23.627  53.818  1.00  0.00     0.044 A 
HETATM   20 CL   UNL     1       6.088  24.537  52.915  1.00  0.00    -0.083 Cl
HETATM   21  C   UNL     1       8.278  22.997  53.105  1.00  0.00     0.024 A 
HETATM   22  C   UNL     1       9.234  22.239  53.777  1.00  0.00     0.002 A 
HETATM   23  C   UNL     1       9.164  22.106  55.162  1.00  0.00     0.001 A 
HETATM   24  C   UNL     1       8.136  22.727  55.876  1.00  0.00     0.013 A 
ENDBRANCH  17  18
ENDBRANCH  12  15
ENDBRANCH   1  11
BRANCH   8  25
HETATM   25  C   UNL     1       7.566  31.754  60.383  1.00  0.00     0.270 C 
HETATM   26  N   UNL     1       7.600  30.941  61.482  1.00  0.00    -0.365 N 
HETATM   27  H   UNL     1       8.302  30.211  61.523  1.00  0.00     0.159 HD
HETATM   28  H   UNL     1       6.940  31.078  62.230  1.00  0.00     0.159 HD
HETATM   29  O   UNL     1       6.740  32.656  60.280  1.00  0.00    -0.266 OA
ENDBRANCH   8  25
TORSDOF 4
ENDMDL
MODEL 3
REMARK VINA RESULT:     -10.1      2.150      2.767
REMARK  4 active torsions:
REMARK  status: ('A' for Active; 'I' for Inactive)
REMARK    1  A    between atoms: C_2  and  C_3 
REMARK       I    between atoms: C_3  and  N_4 
REMARK    2  A    between atoms: N_4  and  C_5 
REMARK    3  A    between atoms: C_12  and  C_13 
REMARK       I    between atoms: C_13  and  N_14 
REMARK    4  A    between atoms: C_19  and  C_20 
ROOT
HETATM    1  C   UNL     1       7.360  27.438  55.703  1.00  0.00     0.036 A 
HETATM    2  C   UNL     1       6.464  28.468  55.365  1.00  0.00     0.046 A 
HETATM    3  C   UNL     1       6.141  29.459  56.314  1.00  0.00     0.030 A 
HETATM    4  C   UNL     1       6.721  29.395  57.572  1.00  0.00     0.063 A 
HETATM    5  N   UNL     1       6.224  30.468  58.256  1.00  0.00    -0.277 N 
HETATM    6  H   UNL     1       6.432  30.736  59.212  1.00  0.00     0.189 HD
HETATM    7  N   UNL     1       5.366  31.228  57.552  1.00  0.00    -0.168 NA
HETATM    8  C   UNL     1       5.306  30.615  56.348  1.00  0.00     0.156 A 
HETATM    9  C   UNL     1       7.617  28.389  57.942  1.00  0.00     0.034 A 
HETATM   10  C   UNL     1       7.923  27.414  56.981  1.00  0.00     0.032 A 
ENDROOT
BRANCH   1  11
HETATM   11  N   UNL     1       7.615  26.472  54.701  1.00  0.00    -0.323 N 
HETATM   12  C   UNL     1       6.798  25.431  54.299  1.00  0.00     0.251 C 
HETATM   13  O   UNL     1       5.724  25.152  54.819  1.00  0.00    -0.268 OA
HETATM   14  H   UNL     1       8.508  26.578  54.246  1.00  0.00     0.169 HD
BRANCH  12  15
HETATM   15  C   UNL     1       7.330  24.633  53.123  1.00  0.00     0.007 C 
HETATM   16  C   UNL     1       7.237  25.223  51.738  1.00  0.00     0.054 C 
HETATM   17  C   UNL     1       7.884  23.407  53.251  1.00  0.00     0.025 C 
BRANCH  17  18
HETATM   18  C   UNL     1       8.107  22.587  54.454  1.00  0.00    -0.014 A 
HETATM   19  C   UNL     1       8.131  21.182  54.399  1.00  0.00     0.044 A 
HETATM   20 CL   UNL     1       7.971  20.325  52.902  1.00  0.00    -0.083 Cl
HETATM   21  C   UNL     1       8.273  20.426  55.568  1.00  0.00     0.024 A 
HETATM   22  C   UNL     1       8.390  21.062  56.802  1.00  0.00     0.002 A 
HETATM   23  C   UNL     1       8.361  22.452  56.871  1.00  0.00     0.001 A 
HETATM   24  C   UNL     1       8.210  23.209  55.706  1.00  0.00     0.013 A 
ENDBRANCH  17  18
ENDBRANCH  12  15
ENDBRANCH   1  11
BRANCH   8  25
HETATM   25  C   UNL     1       4.462  31.132  55.263  1.00  0.00     0.270 C 
HETATM   26  N   UNL     1       4.986  32.219  54.616  1.00  0.00    -0.365 N 
HETATM   27  H   UNL     1       5.885  32.575  54.918  1.00  0.00     0.159 HD
HETATM   28  H   UNL     1       4.481  32.642  53.855  1.00  0.00     0.159 HD
HETATM   29  O   UNL     1       3.379  30.655  54.939  1.00  0.00    -0.266 OA
ENDBRANCH   8  25
TORSDOF 4
ENDMDL
MODEL 4
REMARK VINA RESULT:     -10.0      3.642      5.738
REMARK  4 active torsions:
REMARK  status: ('A' for Active; 'I' for Inactive)
REMARK    1  A    between atoms: C_2  and  C_3 
REMARK       I    between atoms: C_3  and  N_4 
REMARK    2  A    between atoms: N_4  and  C_5 
REMARK    3  A    between atoms: C_12  and  C_13 
REMARK       I    between atoms: C_13  and  N_14 
REMARK    4  A    between atoms: C_19  and  C_20 
ROOT
HETATM    1  C   UNL     1       6.141  26.306  52.545  1.00  0.00     0.036 A 
HETATM    2  C   UNL     1       6.077  27.656  52.153  1.00  0.00     0.046 A 
HETATM    3  C   UNL     1       5.335  28.023  51.013  1.00  0.00     0.030 A 
HETATM    4  C   UNL     1       4.677  27.034  50.296  1.00  0.00     0.063 A 
HETATM    5  N   UNL     1       4.058  27.684  49.265  1.00  0.00    -0.277 N 
HETATM    6  H   UNL     1       3.484  27.272  48.537  1.00  0.00     0.189 HD
HETATM    7  N   UNL     1       4.257  29.014  49.247  1.00  0.00    -0.168 NA
HETATM    8  C   UNL     1       5.045  29.237  50.323  1.00  0.00     0.156 A 
HETATM    9  C   UNL     1       4.715  25.685  50.656  1.00  0.00     0.034 A 
HETATM   10  C   UNL     1       5.461  25.344  51.795  1.00  0.00     0.032 A 
ENDROOT
BRANCH   1  11
HETATM   11  N   UNL     1       6.923  26.020  53.689  1.00  0.00    -0.323 N 
HETATM   12  C   UNL     1       6.506  25.463  54.884  1.00  0.00     0.251 C 
HETATM   13  O   UNL     1       5.342  25.187  55.152  1.00  0.00    -0.268 OA
HETATM   14  H   UNL     1       7.895  26.267  53.594  1.00  0.00     0.169 HD
BRANCH  12  15
HETATM   15  C   UNL     1       7.623  25.197  55.877  1.00  0.00     0.007 C 
HETATM   16  C   UNL     1       7.984  26.269  56.874  1.00  0.00     0.054 C 
HETATM   17  C   UNL     1       8.321  24.041  55.910  1.00  0.00     0.025 C 
BRANCH  17  18
HETATM   18  C   UNL     1       8.200  22.833  55.075  1.00  0.00    -0.014 A 
HETATM   19  C   UNL     1       8.195  21.544  55.635  1.00  0.00     0.044 A 
HETATM   20 CL   UNL     1       8.258  21.291  57.347  1.00  0.00    -0.083 Cl
HETATM   21  C   UNL     1       8.149  20.411  54.813  1.00  0.00     0.024 A 
HETATM   22  C   UNL     1       8.113  20.554  53.428  1.00  0.00     0.002 A 
HETATM   23  C   UNL     1       8.125  21.826  52.861  1.00  0.00     0.001 A 
HETATM   24  C   UNL     1       8.179  22.958  53.679  1.00  0.00     0.013 A 
ENDBRANCH  17  18
ENDBRANCH  12  15
ENDBRANCH   1  11
BRANCH   8  25
HETATM   25  C   UNL     1       5.506  30.587  50.672  1.00  0.00     0.270 C 
HETATM   26  N   UNL     1       4.876  31.131  51.758  1.00  0.00    -0.365 N 
HETATM   27  H   UNL     1       4.164  30.584  52.229  1.00  0.00     0.159 HD
HETATM   28  H   UNL     1       5.127  32.053  52.076  1.00  0.00     0.159 HD
HETATM   29  O   UNL     1       6.377  31.201  50.064  1.00  0.00    -0.266 OA
ENDBRANCH   8  25
TORSDOF 4
ENDMDL
MODEL 5
REMARK VINA RESULT:      -9.9      2.432      3.538
REMARK  4 active torsions:
REMARK  status: ('A' for Active; 'I' for Inactive)
REMARK    1  A    between atoms: C_2  and  C_3 
REMARK       I    between atoms: C_3  and  N_4 
REMARK    2  A    between atoms: N_4  and  C_5 
REMARK    3  A    between atoms: C_12  and  C_13 
REMARK       I    between atoms: C_13  and  N_14 
REMARK    4  A    between atoms: C_19  and  C_20 
ROOT
HETATM    1  C   UNL     1       7.207  28.816  56.312  1.00  0.00     0.036 A 
HETATM    2  C   UNL     1       6.692  29.844  57.123  1.00  0.00     0.046 A 
HETATM    3  C   UNL     1       7.557  30.581  57.958  1.00  0.00     0.030 A 
HETATM    4  C   UNL     1       8.909  30.272  57.959  1.00  0.00     0.063 A 
HETATM    5  N   UNL     1       9.478  31.137  58.851  1.00  0.00    -0.277 N 
HETATM    6  H   UNL     1      10.458  31.197  59.107  1.00  0.00     0.189 HD
HETATM    7  N   UNL     1       8.612  31.984  59.434  1.00  0.00    -0.168 NA
HETATM    8  C   UNL     1       7.419  31.651  58.890  1.00  0.00     0.156 A 
HETATM    9  C   UNL     1       9.456  29.261  57.166  1.00  0.00     0.034 A 
HETATM   10  C   UNL     1       8.575  28.541  56.343  1.00  0.00     0.032 A 
ENDROOT
BRANCH   1  11
HETATM   11  N   UNL     1       6.269  28.114  55.519  1.00  0.00    -0.323 N 
HETATM   12  C   UNL     1       6.426  27.661  54.221  1.00  0.00     0.251 C 
HETATM   13  O   UNL     1       7.416  27.868  53.529  1.00  0.00    -0.268 OA
HETATM   14  H   UNL     1       5.390  27.941  55.979  1.00  0.00     0.169 HD
BRANCH  12  15
HETATM   15  C   UNL     1       5.255  26.851  53.693  1.00  0.00     0.007 C 
HETATM   16  C   UNL     1       4.002  27.573  53.267  1.00  0.00     0.054 C 
HETATM   17  C   UNL     1       5.276  25.504  53.589  1.00  0.00     0.025 C 
BRANCH  17  18
HETATM   18  C   UNL     1       6.339  24.541  53.924  1.00  0.00    -0.014 A 
HETATM   19  C   UNL     1       6.665  24.231  55.255  1.00  0.00     0.044 A 
HETATM   20 CL   UNL     1       5.790  24.905  56.590  1.00  0.00    -0.083 Cl
HETATM   21  C   UNL     1       7.727  23.366  55.546  1.00  0.00     0.024 A 
HETATM   22  C   UNL     1       8.475  22.806  54.513  1.00  0.00     0.002 A 
HETATM   23  C   UNL     1       8.167  23.112  53.189  1.00  0.00     0.001 A 
HETATM   24  C   UNL     1       7.113  23.981  52.897  1.00  0.00     0.013 A 
ENDBRANCH  17  18
ENDBRANCH  12  15
ENDBRANCH   1  11
BRANCH   8  25
HETATM   25  C   UNL     1       6.182  32.348  59.264  1.00  0.00     0.270 C 
HETATM   26  N   UNL     1       5.675  31.978  60.480  1.00  0.00    -0.365 N 
HETATM   27  H   UNL     1       6.171  31.277  61.018  1.00  0.00     0.159 HD
HETATM   28  H   UNL     1       4.831  32.404  60.824  1.00  0.00     0.159 HD
HETATM   29  O   UNL     1       5.626  33.194  58.571  1.00  0.00    -0.266 OA
ENDBRANCH   8  25
TORSDOF 4
ENDMDL
MODEL 6
REMARK VINA RESULT:      -9.7      3.361      5.527
REMARK  4 active torsions:
REMARK  status: ('A' for Active; 'I' for Inactive)
REMARK    1  A    between atoms: C_2  and  C_3 
REMARK       I    between atoms: C_3  and  N_4 
REMARK    2  A    between atoms: N_4  and  C_5 
REMARK    3  A    between atoms: C_12  and  C_13 
REMARK       I    between atoms: C_13  and  N_14 
REMARK    4  A    between atoms: C_19  and  C_20 
ROOT
HETATM    1  C   UNL     1       5.407  27.812  54.826  1.00  0.00     0.036 A 
HETATM    2  C   UNL     1       5.374  27.517  53.450  1.00  0.00     0.046 A 
HETATM    3  C   UNL     1       4.439  28.160  52.615  1.00  0.00     0.030 A 
HETATM    4  C   UNL     1       3.564  29.079  53.174  1.00  0.00     0.063 A 
HETATM    5  N   UNL     1       2.793  29.524  52.138  1.00  0.00    -0.277 N 
HETATM    6  H   UNL     1       2.043  30.206  52.179  1.00  0.00     0.189 HD
HETATM    7  N   UNL     1       3.089  28.973  50.947  1.00  0.00    -0.168 NA
HETATM    8  C   UNL     1       4.107  28.127  51.228  1.00  0.00     0.156 A 
HETATM    9  C   UNL     1       3.568  29.399  54.534  1.00  0.00     0.034 A 
HETATM   10  C   UNL     1       4.508  28.745  55.346  1.00  0.00     0.032 A 
ENDROOT
BRANCH   1  11
HETATM   11  N   UNL     1       6.362  27.108  55.596  1.00  0.00    -0.323 N 
HETATM   12  C   UNL     1       6.271  25.818  56.088  1.00  0.00     0.251 C 
HETATM   13  O   UNL     1       5.285  25.100  55.972  1.00  0.00    -0.268 OA
HETATM   14  H   UNL     1       7.195  27.637  55.800  1.00  0.00     0.169 HD
BRANCH  12  15
HETATM   15  C   UNL     1       7.520  25.328  56.797  1.00  0.00     0.007 C 
HETATM   16  C   UNL     1       7.977  26.037  58.047  1.00  0.00     0.054 C 
HETATM   17  C   UNL     1       8.255  24.281  56.360  1.00  0.00     0.025 C 
BRANCH  17  18
HETATM   18  C   UNL     1       8.063  23.409  55.188  1.00  0.00    -0.014 A 
HETATM   19  C   UNL     1       8.072  22.007  55.299  1.00  0.00     0.044 A 
HETATM   20 CL   UNL     1       8.239  21.214  56.830  1.00  0.00    -0.083 Cl
HETATM   21  C   UNL     1       7.957  21.202  54.160  1.00  0.00     0.024 A 
HETATM   22  C   UNL     1       7.836  21.786  52.901  1.00  0.00     0.002 A 
HETATM   23  C   UNL     1       7.833  23.173  52.777  1.00  0.00     0.001 A 
HETATM   24  C   UNL     1       7.956  23.979  53.912  1.00  0.00     0.013 A 
ENDBRANCH  17  18
ENDBRANCH  12  15
ENDBRANCH   1  11
BRANCH   8  25
HETATM   25  C   UNL     1       4.738  27.310  50.185  1.00  0.00     0.270 C 
HETATM   26  N   UNL     1       4.534  25.964  50.327  1.00  0.00    -0.365 N 
HETATM   27  H   UNL     1       3.982  25.638  51.112  1.00  0.00     0.159 HD
HETATM   28  H   UNL     1       4.926  25.322  49.657  1.00  0.00     0.159 HD
HETATM   29  O   UNL     1       5.395  27.761  49.252  1.00  0.00    -0.266 OA
ENDBRANCH   8  25
TORSDOF 4
ENDMDL
MODEL 7
REMARK VINA RESULT:      -9.7      3.771      8.168
REMARK  4 active torsions:
REMARK  status: ('A' for Active; 'I' for Inactive)
REMARK    1  A    between atoms: C_2  and  C_3 
REMARK       I    between atoms: C_3  and  N_4 
REMARK    2  A    between atoms: N_4  and  C_5 
REMARK    3  A    between atoms: C_12  and  C_13 
REMARK       I    between atoms: C_13  and  N_14 
REMARK    4  A    between atoms: C_19  and  C_20 
ROOT
HETATM    1  C   UNL     1       7.103  28.595  55.689  1.00  0.00     0.036 A 
HETATM    2  C   UNL     1       7.505  27.326  55.233  1.00  0.00     0.046 A 
HETATM    3  C   UNL     1       6.576  26.482  54.590  1.00  0.00     0.030 A 
HETATM    4  C   UNL     1       5.274  26.928  54.420  1.00  0.00     0.063 A 
HETATM    5  N   UNL     1       4.623  25.911  53.780  1.00  0.00    -0.277 N 
HETATM    6  H   UNL     1       3.649  25.890  53.496  1.00  0.00     0.189 HD
HETATM    7  N   UNL     1       5.389  24.838  53.519  1.00  0.00    -0.168 NA
HETATM    8  C   UNL     1       6.600  25.178  54.015  1.00  0.00     0.156 A 
HETATM    9  C   UNL     1       4.839  28.182  54.857  1.00  0.00     0.034 A 
HETATM   10  C   UNL     1       5.782  29.004  55.494  1.00  0.00     0.032 A 
ENDROOT
BRANCH   1  11
HETATM   11  N   UNL     1       8.091  29.370  56.340  1.00  0.00    -0.323 N 
HETATM   12  C   UNL     1       8.507  29.281  57.657  1.00  0.00     0.251 C 
HETATM   13  O   UNL     1       8.013  28.531  58.490  1.00  0.00    -0.268 OA
HETATM   14  H   UNL     1       8.522  30.065  55.752  1.00  0.00     0.169 HD
BRANCH  12  15
HETATM   15  C   UNL     1       9.662  30.199  58.013  1.00  0.00     0.007 C 
HETATM   16  C   UNL     1      10.968  30.049  57.274  1.00  0.00     0.054 C 
HETATM   17  C   UNL     1       9.583  31.149  58.971  1.00  0.00     0.025 C 
BRANCH  17  18
HETATM   18  C   UNL     1       8.459  31.523  59.847  1.00  0.00    -0.014 A 
HETATM   19  C   UNL     1       8.427  31.162  61.206  1.00  0.00     0.044 A 
HETATM   20 CL   UNL     1       9.739  30.315  61.956  1.00  0.00    -0.083 Cl
HETATM   21  C   UNL     1       7.315  31.469  61.998  1.00  0.00     0.024 A 
HETATM   22  C   UNL     1       6.224  32.136  61.444  1.00  0.00     0.002 A 
HETATM   23  C   UNL     1       6.241  32.493  60.098  1.00  0.00     0.001 A 
HETATM   24  C   UNL     1       7.347  32.180  59.302  1.00  0.00     0.013 A 
ENDBRANCH  17  18
ENDBRANCH  12  15
ENDBRANCH   1  11
BRANCH   8  25
HETATM   25  C   UNL     1       7.748  24.265  53.934  1.00  0.00     0.270 C 
HETATM   26  N   UNL     1       8.046  23.850  52.665  1.00  0.00    -0.365 N 
HETATM   27  H   UNL     1       7.478  24.190  51.898  1.00  0.00     0.159 HD
HETATM   28  H   UNL     1       8.820  23.224  52.509  1.00  0.00     0.159 HD
HETATM   29  O   UNL     1       8.403  23.888  54.901  1.00  0.00    -0.266 OA
ENDBRANCH   8  25
TORSDOF 4
ENDMDL
MODEL 8
REMARK VINA RESULT:      -9.5      2.183      2.693
REMARK  4 active torsions:
REMARK  status: ('A' for Active; 'I' for Inactive)
REMARK    1  A    between atoms: C_2  and  C_3 
REMARK       I    between atoms: C_3  and  N_4 
REMARK    2  A    between atoms: N_4  and  C_5 
REMARK    3  A    between atoms: C_12  and  C_13 
REMARK       I    between atoms: C_13  and  N_14 
REMARK    4  A    between atoms: C_19  and  C_20 
ROOT
HETATM    1  C   UNL     1       4.931  28.406  54.992  1.00  0.00     0.036 A 
HETATM    2  C   UNL     1       5.842  28.593  56.048  1.00  0.00     0.046 A 
HETATM    3  C   UNL     1       5.924  29.843  56.693  1.00  0.00     0.030 A 
HETATM    4  C   UNL     1       5.095  30.871  56.268  1.00  0.00     0.063 A 
HETATM    5  N   UNL     1       5.400  31.937  57.066  1.00  0.00    -0.277 N 
HETATM    6  H   UNL     1       4.988  32.863  57.037  1.00  0.00     0.189 HD
HETATM    7  N   UNL     1       6.360  31.694  57.976  1.00  0.00    -0.168 NA
HETATM    8  C   UNL     1       6.692  30.401  57.757  1.00  0.00     0.156 A 
HETATM    9  C   UNL     1       4.178  30.722  55.225  1.00  0.00     0.034 A 
HETATM   10  C   UNL     1       4.114  29.467  54.598  1.00  0.00     0.032 A 
ENDROOT
BRANCH   1  11
HETATM   11  N   UNL     1       4.926  27.128  54.386  1.00  0.00    -0.323 N 
HETATM   12  C   UNL     1       5.816  26.628  53.452  1.00  0.00     0.251 C 
HETATM   13  O   UNL     1       6.732  27.272  52.954  1.00  0.00    -0.268 OA
HETATM   14  H   UNL     1       4.169  26.534  54.686  1.00  0.00     0.169 HD
BRANCH  12  15
HETATM   15  C   UNL     1       5.583  25.176  53.076  1.00  0.00     0.007 C 
HETATM   16  C   UNL     1       4.645  24.857  51.940  1.00  0.00     0.054 C 
HETATM   17  C   UNL     1       6.174  24.143  53.718  1.00  0.00     0.025 C 
BRANCH  17  18
HETATM   18  C   UNL     1       7.120  24.143  54.847  1.00  0.00    -0.014 A 
HETATM   19  C   UNL     1       8.301  23.380  54.824  1.00  0.00     0.044 A 
HETATM   20 CL   UNL     1       8.756  22.445  53.438  1.00  0.00    -0.083 Cl
HETATM   21  C   UNL     1       9.146  23.342  55.938  1.00  0.00     0.024 A 
HETATM   22  C   UNL     1       8.822  24.062  57.087  1.00  0.00     0.002 A 
HETATM   23  C   UNL     1       7.652  24.816  57.124  1.00  0.00     0.001 A 
HETATM   24  C   UNL     1       6.801  24.848  56.016  1.00  0.00     0.013 A 
ENDBRANCH  17  18
ENDBRANCH  12  15
ENDBRANCH   1  11
BRANCH   8  25
HETATM   25  C   UNL     1       7.726  29.727  58.553  1.00  0.00     0.270 C 
HETATM   26  N   UNL     1       7.957  30.302  59.773  1.00  0.00    -0.365 N 
HETATM   27  H   UNL     1       7.419  31.121  60.033  1.00  0.00     0.159 HD
HETATM   28  H   UNL     1       8.646  29.908  60.392  1.00  0.00     0.159 HD
HETATM   29  O   UNL     1       8.345  28.733  58.187  1.00  0.00    -0.266 OA
ENDBRANCH   8  25
TORSDOF 4
ENDMDL
MODEL 9
REMARK VINA RESULT:      -9.4      8.507     12.829
REMARK  4 active torsions:
REMARK  status: ('A' for Active; 'I' for Inactive)
REMARK    1  A    between atoms: C_2  and  C_3 
REMARK       I    between atoms: C_3  and  N_4 
REMARK    2  A    between atoms: N_4  and  C_5 
REMARK    3  A    between atoms: C_12  and  C_13 
REMARK       I    between atoms: C_13  and  N_14 
REMARK    4  A    between atoms: C_19  and  C_20 
ROOT
HETATM    1  C   UNL     1       6.856  33.297  63.085  1.00  0.00     0.036 A 
HETATM    2  C   UNL     1       6.364  33.072  61.786  1.00  0.00     0.046 A 
HETATM    3  C   UNL     1       6.978  32.110  60.958  1.00  0.00     0.030 A 
HETATM    4  C   UNL     1       8.063  31.400  61.450  1.00  0.00     0.063 A 
HETATM    5  N   UNL     1       8.435  30.561  60.438  1.00  0.00    -0.277 N 
HETATM    6  H   UNL     1       9.198  29.892  60.445  1.00  0.00     0.189 HD
HETATM    7  N   UNL     1       7.686  30.663  59.326  1.00  0.00    -0.168 NA
HETATM    8  C   UNL     1       6.780  31.618  59.635  1.00  0.00     0.156 A 
HETATM    9  C   UNL     1       8.577  31.594  62.734  1.00  0.00     0.034 A 
HETATM   10  C   UNL     1       7.949  32.558  63.539  1.00  0.00     0.032 A 
ENDROOT
BRANCH   1  11
HETATM   11  N   UNL     1       6.196  34.293  63.843  1.00  0.00    -0.323 N 
HETATM   12  C   UNL     1       5.138  34.131  64.719  1.00  0.00     0.251 C 
HETATM   13  O   UNL     1       4.562  33.068  64.921  1.00  0.00    -0.268 OA
HETATM   14  H   UNL     1       6.558  35.223  63.703  1.00  0.00     0.169 HD
BRANCH  12  15
HETATM   15  C   UNL     1       4.726  35.397  65.448  1.00  0.00     0.007 C 
HETATM   16  C   UNL     1       4.726  35.403  66.956  1.00  0.00     0.054 C 
HETATM   17  C   UNL     1       4.352  36.528  64.811  1.00  0.00     0.025 C 
BRANCH  17  18
HETATM   18  C   UNL     1       4.252  36.819  63.370  1.00  0.00    -0.014 A 
HETATM   19  C   UNL     1       5.129  37.715  62.733  1.00  0.00     0.044 A 
HETATM   20 CL   UNL     1       6.428  38.482  63.585  1.00  0.00    -0.083 Cl
HETATM   21  C   UNL     1       4.968  38.026  61.378  1.00  0.00     0.024 A 
HETATM   22  C   UNL     1       3.931  37.451  60.647  1.00  0.00     0.002 A 
HETATM   23  C   UNL     1       3.052  36.567  61.269  1.00  0.00     0.001 A 
HETATM   24  C   UNL     1       3.205  36.261  62.623  1.00  0.00     0.013 A 
ENDBRANCH  17  18
ENDBRANCH  12  15
ENDBRANCH   1  11
BRANCH   8  25
HETATM   25  C   UNL     1       5.753  32.043  58.675  1.00  0.00     0.270 C 
HETATM   26  N   UNL     1       4.650  31.235  58.639  1.00  0.00    -0.365 N 
HETATM   27  H   UNL     1       4.618  30.431  59.256  1.00  0.00     0.159 HD
HETATM   28  H   UNL     1       3.890  31.447  58.014  1.00  0.00     0.159 HD
HETATM   29  O   UNL     1       5.844  33.032  57.953  1.00  0.00    -0.266 OA
ENDBRANCH   8  25
TORSDOF 4
ENDMDL
MODEL 10
REMARK VINA RESULT:      -9.3      4.765      7.422
REMARK  4 active torsions:
REMARK  status: ('A' for Active; 'I' for Inactive)
REMARK    1  A    between atoms: C_2  and  C_3 
REMARK       I    between atoms: C_3  and  N_4 
REMARK    2  A    between atoms: N_4  and  C_5 
REMARK    3  A    between atoms: C_12  and  C_13 
REMARK       I    between atoms: C_13  and  N_14 
REMARK    4  A    between atoms: C_19  and  C_20 
ROOT
HETATM    1  C   UNL     1       4.601  29.220  52.072  1.00  0.00     0.036 A 
HETATM    2  C   UNL     1       4.557  28.260  51.045  1.00  0.00     0.046 A 
HETATM    3  C   UNL     1       3.589  28.365  50.025  1.00  0.00     0.030 A 
HETATM    4  C   UNL     1       2.695  29.424  50.059  1.00  0.00     0.063 A 
HETATM    5  N   UNL     1       1.895  29.259  48.963  1.00  0.00    -0.277 N 
HETATM    6  H   UNL     1       1.125  29.851  48.671  1.00  0.00     0.189 HD
HETATM    7  N   UNL     1       2.190  28.180  48.216  1.00  0.00    -0.168 NA
HETATM    8  C   UNL     1       3.238  27.618  48.862  1.00  0.00     0.156 A 
HETATM    9  C   UNL     1       2.710  30.397  51.061  1.00  0.00     0.034 A 
HETATM   10  C   UNL     1       3.682  30.271  52.066  1.00  0.00     0.032 A 
ENDROOT
BRANCH   1  11
HETATM   11  N   UNL     1       5.589  29.030  53.067  1.00  0.00    -0.323 N 
HETATM   12  C   UNL     1       5.459  28.373  54.277  1.00  0.00     0.251 C 
HETATM   13  O   UNL     1       4.411  27.900  54.700  1.00  0.00    -0.268 OA
HETATM   14  H   UNL     1       6.483  29.437  52.841  1.00  0.00     0.169 HD
BRANCH  12  15
HETATM   15  C   UNL     1       6.747  28.262  55.073  1.00  0.00     0.007 C 
HETATM   16  C   UNL     1       7.157  29.410  55.961  1.00  0.00     0.054 C 
HETATM   17  C   UNL     1       7.556  27.180  55.024  1.00  0.00     0.025 C 
BRANCH  17  18
HETATM   18  C   UNL     1       7.421  25.928  54.260  1.00  0.00    -0.014 A 
HETATM   19  C   UNL     1       7.024  24.726  54.871  1.00  0.00     0.044 A 
HETATM   20 CL   UNL     1       6.599  24.653  56.549  1.00  0.00    -0.083 Cl
HETATM   21  C   UNL     1       6.973  23.537  54.137  1.00  0.00     0.024 A 
HETATM   22  C   UNL     1       7.319  23.533  52.787  1.00  0.00     0.002 A 
HETATM   23  C   UNL     1       7.721  24.716  52.171  1.00  0.00     0.001 A 
HETATM   24  C   UNL     1       7.781  25.903  52.905  1.00  0.00     0.013 A 
ENDBRANCH  17  18
ENDBRANCH  12  15
ENDBRANCH   1  11
BRANCH   8  25
HETATM   25  C   UNL     1       3.878  26.392  48.368  1.00  0.00     0.270 C 
HETATM   26  N   UNL     1       3.341  25.238  48.871  1.00  0.00    -0.365 N 
HETATM   27  H   UNL     1       2.568  25.307  49.522  1.00  0.00     0.159 HD
HETATM   28  H   UNL     1       3.712  24.346  48.587  1.00  0.00     0.159 HD
HETATM   29  O   UNL     1       4.812  26.370  47.573  1.00  0.00    -0.266 OA
ENDBRANCH   8  25
TORSDOF 4
ENDMDL
