MODEL 1
REMARK VINA RESULT:     -10.0      0.000      0.000
REMARK  7 active torsions:
REMARK  status: ('A' for Active; 'I' for Inactive)
REMARK    1  A    between atoms: C_4  and  O_5 
REMARK    2  A    between atoms: O_5  and  C_6 
REMARK    3  A    between atoms: C_9  and  N_10 
REMARK       I    between atoms: N_10  and  C_11 
REMARK    4  A    between atoms: C_11  and  C_12 
REMARK    5  A    between atoms: C_12  and  C_13 
REMARK    6  A    between atoms: C_13  and  N_14 
REMARK       I    between atoms: N_14  and  C_15 
REMARK    7  A    between atoms: C_15  and  C_16 
ROOT
HETATM    1  N   UNL     1       6.573  28.227  56.231  1.00  0.00    -0.327 N 
HETATM    2  C   UNL     1       7.159  28.394  57.473  1.00  0.00     0.223 C 
HETATM    3  O   UNL     1       7.687  27.521  58.155  1.00  0.00    -0.273 OA
HETATM    4  H   UNL     1       6.143  29.044  55.814  1.00  0.00     0.169 HD
ENDROOT
BRANCH   1   5
HETATM    5  C   UNL     1       6.543  27.054  55.446  1.00  0.00     0.034 A 
HETATM    6  C   UNL     1       5.608  26.029  55.602  1.00  0.00     0.032 A 
HETATM    7  C   UNL     1       5.675  24.874  54.810  1.00  0.00     0.039 A 
HETATM    8  C   UNL     1       6.667  24.749  53.838  1.00  0.00     0.076 A 
HETATM    9  C   UNL     1       7.608  25.766  53.680  1.00  0.00     0.039 A 
HETATM   10  C   UNL     1       7.544  26.914  54.476  1.00  0.00     0.032 A 
BRANCH   8  11
HETATM   11  O   UNL     1       6.854  23.630  53.059  1.00  0.00    -0.311 OA
BRANCH  11  12
HETATM   12  C   UNL     1       7.505  22.547  53.599  1.00  0.00     0.076 A 
HETATM   13  C   UNL     1       7.647  22.360  54.977  1.00  0.00     0.044 A 
HETATM   14  C   UNL     1       8.272  21.207  55.471  1.00  0.00    -0.059 A 
HETATM   15  C   UNL     1       8.406  20.994  56.949  1.00  0.00     0.048 C 
HETATM   16  C   UNL     1       8.707  20.227  54.569  1.00  0.00     0.007 A 
HETATM   17  C   UNL     1       8.540  20.405  53.194  1.00  0.00     0.003 A 
HETATM   18  C   UNL     1       7.936  21.563  52.710  1.00  0.00     0.037 A 
ENDBRANCH  11  12
ENDBRANCH   8  11
ENDBRANCH   1   5
BRANCH   2  19
HETATM   19  C   UNL     1       7.100  29.825  57.969  1.00  0.00     0.123 C 
BRANCH  19  20
HETATM   20  C   UNL     1       8.186  30.024  59.019  1.00  0.00     0.132 C 
BRANCH  20  21
HETATM   21  N   UNL     1       7.737  30.787  60.165  1.00  0.00    -0.355 N 
HETATM   22  C   UNL     1       8.209  32.054  60.444  1.00  0.00     0.275 C 
HETATM   23  O   UNL     1       8.906  32.684  59.653  1.00  0.00    -0.265 OA
HETATM   24  H   UNL     1       7.234  30.317  60.911  1.00  0.00     0.162 HD
BRANCH  22  25
HETATM   25  C   UNL     1       7.819  32.553  61.747  1.00  0.00     0.142 A 
HETATM   26  O   UNL     1       6.786  33.452  61.844  1.00  0.00    -0.317 OA
HETATM   27  C   UNL     1       6.619  33.729  63.163  1.00  0.00     0.143 A 
HETATM   28  C   UNL     1       7.526  33.028  63.923  1.00  0.00     0.027 A 
HETATM   29  C   UNL     1       8.301  32.271  63.012  1.00  0.00     0.045 A 
ENDBRANCH  22  25
ENDBRANCH  20  21
ENDBRANCH  19  20
ENDBRANCH   2  19
TORSDOF 7
ENDMDL
MODEL 2
REMARK VINA RESULT:      -9.5      2.419      3.290
REMARK  7 active torsions:
REMARK  status: ('A' for Active; 'I' for Inactive)
REMARK    1  A    between atoms: C_4  and  O_5 
REMARK    2  A    between atoms: O_5  and  C_6 
REMARK    3  A    between atoms: C_9  and  N_10 
REMARK       I    between atoms: N_10  and  C_11 
REMARK    4  A    between atoms: C_11  and  C_12 
REMARK    5  A    between atoms: C_12  and  C_13 
REMARK    6  A    between atoms: C_13  and  N_14 
REMARK       I    between atoms: N_14  and  C_15 
REMARK    7  A    between atoms: C_15  and  C_16 
ROOT
HETATM    1  N   UNL     1       4.843  27.917  56.974  1.00  0.00    -0.327 N 
HETATM    2  C   UNL     1       4.737  29.213  56.504  1.00  0.00     0.223 C 
HETATM    3  O   UNL     1       5.533  29.791  55.771  1.00  0.00    -0.273 OA
HETATM    4  H   UNL     1       4.118  27.599  57.607  1.00  0.00     0.169 HD
ENDROOT
BRANCH   1   5
HETATM    5  C   UNL     1       5.825  26.959  56.641  1.00  0.00     0.034 A 
HETATM    6  C   UNL     1       5.660  25.972  55.667  1.00  0.00     0.032 A 
HETATM    7  C   UNL     1       6.670  25.029  55.428  1.00  0.00     0.039 A 
HETATM    8  C   UNL     1       7.863  25.083  56.147  1.00  0.00     0.076 A 
HETATM    9  C   UNL     1       8.033  26.063  57.124  1.00  0.00     0.039 A 
HETATM   10  C   UNL     1       7.023  26.998  57.367  1.00  0.00     0.032 A 
BRANCH   8  11
HETATM   11  O   UNL     1       8.883  24.166  56.030  1.00  0.00    -0.311 OA
BRANCH  11  12
HETATM   12  C   UNL     1       8.571  22.866  55.712  1.00  0.00     0.076 A 
HETATM   13  C   UNL     1       8.598  22.381  54.401  1.00  0.00     0.044 A 
HETATM   14  C   UNL     1       8.325  21.030  54.145  1.00  0.00    -0.059 A 
HETATM   15  C   UNL     1       8.374  20.502  52.742  1.00  0.00     0.048 C 
HETATM   16  C   UNL     1       8.073  20.168  55.221  1.00  0.00     0.007 A 
HETATM   17  C   UNL     1       8.073  20.651  56.531  1.00  0.00     0.003 A 
HETATM   18  C   UNL     1       8.326  21.999  56.776  1.00  0.00     0.037 A 
ENDBRANCH  11  12
ENDBRANCH   8  11
ENDBRANCH   1   5
BRANCH   2  19
HETATM   19  C   UNL     1       3.485  29.919  56.987  1.00  0.00     0.123 C 
BRANCH  19  20
HETATM   20  C   UNL     1       3.889  31.013  57.968  1.00  0.00     0.132 C 
BRANCH  20  21
HETATM   21  N   UNL     1       5.240  30.860  58.466  1.00  0.00    -0.355 N 
HETATM   22  C   UNL     1       6.153  31.895  58.466  1.00  0.00     0.275 C 
HETATM   23  O   UNL     1       5.833  33.052  58.207  1.00  0.00    -0.265 OA
HETATM   24  H   UNL     1       5.613  29.928  58.617  1.00  0.00     0.162 HD
BRANCH  22  25
HETATM   25  C   UNL     1       7.506  31.486  58.783  1.00  0.00     0.142 A 
HETATM   26  O   UNL     1       8.429  32.435  59.149  1.00  0.00    -0.317 OA
HETATM   27  C   UNL     1       9.591  31.782  59.410  1.00  0.00     0.143 A 
HETATM   28  C   UNL     1       9.440  30.429  59.217  1.00  0.00     0.027 A 
HETATM   29  C   UNL     1       8.097  30.237  58.812  1.00  0.00     0.045 A 
ENDBRANCH  22  25
ENDBRANCH  20  21
ENDBRANCH  19  20
ENDBRANCH   2  19
TORSDOF 7
ENDMDL
MODEL 3
REMARK VINA RESULT:      -9.5      5.332      9.167
REMARK  7 active torsions:
REMARK  status: ('A' for Active; 'I' for Inactive)
REMARK    1  A    between atoms: C_4  and  O_5 
REMARK    2  A    between atoms: O_5  and  C_6 
REMARK    3  A    between atoms: C_9  and  N_10 
REMARK       I    between atoms: N_10  and  C_11 
REMARK    4  A    between atoms: C_11  and  C_12 
REMARK    5  A    between atoms: C_12  and  C_13 
REMARK    6  A    between atoms: C_13  and  N_14 
REMARK       I    between atoms: N_14  and  C_15 
REMARK    7  A    between atoms: C_15  and  C_16 
ROOT
HETATM    1  N   UNL     1       5.967  32.772  63.657  1.00  0.00    -0.327 N 
HETATM    2  C   UNL     1       5.824  33.887  64.461  1.00  0.00     0.223 C 
HETATM    3  O   UNL     1       6.539  34.884  64.461  1.00  0.00    -0.273 OA
HETATM    4  H   UNL     1       5.315  32.011  63.808  1.00  0.00     0.169 HD
ENDROOT
BRANCH   1   5
HETATM    5  C   UNL     1       6.893  32.582  62.608  1.00  0.00     0.034 A 
HETATM    6  C   UNL     1       8.214  32.166  62.792  1.00  0.00     0.032 A 
HETATM    7  C   UNL     1       9.084  32.045  61.699  1.00  0.00     0.039 A 
HETATM    8  C   UNL     1       8.629  32.317  60.410  1.00  0.00     0.076 A 
HETATM    9  C   UNL     1       7.313  32.737  60.218  1.00  0.00     0.039 A 
HETATM   10  C   UNL     1       6.449  32.864  61.310  1.00  0.00     0.032 A 
BRANCH   8  11
HETATM   11  O   UNL     1       9.422  32.290  59.285  1.00  0.00    -0.311 OA
BRANCH  11  12
HETATM   12  C   UNL     1       9.502  31.127  58.558  1.00  0.00     0.076 A 
HETATM   13  C   UNL     1       8.482  30.171  58.546  1.00  0.00     0.044 A 
HETATM   14  C   UNL     1       8.597  29.030  57.741  1.00  0.00    -0.059 A 
HETATM   15  C   UNL     1       7.495  28.013  57.709  1.00  0.00     0.048 C 
HETATM   16  C   UNL     1       9.721  28.885  56.917  1.00  0.00     0.007 A 
HETATM   17  C   UNL     1      10.725  29.855  56.912  1.00  0.00     0.003 A 
HETATM   18  C   UNL     1      10.614  30.977  57.730  1.00  0.00     0.037 A 
ENDBRANCH  11  12
ENDBRANCH   8  11
ENDBRANCH   1   5
BRANCH   2  19
HETATM   19  C   UNL     1       4.644  33.788  65.408  1.00  0.00     0.123 C 
BRANCH  19  20
HETATM   20  C   UNL     1       4.753  34.901  66.443  1.00  0.00     0.132 C 
BRANCH  20  21
HETATM   21  N   UNL     1       5.837  34.701  67.382  1.00  0.00    -0.355 N 
HETATM   22  C   UNL     1       5.657  34.082  68.602  1.00  0.00     0.275 C 
HETATM   23  O   UNL     1       4.612  33.510  68.901  1.00  0.00    -0.265 OA
HETATM   24  H   UNL     1       6.706  35.212  67.257  1.00  0.00     0.162 HD
BRANCH  22  25
HETATM   25  C   UNL     1       6.799  34.185  69.488  1.00  0.00     0.142 A 
HETATM   26  O   UNL     1       6.871  33.373  70.592  1.00  0.00    -0.317 OA
HETATM   27  C   UNL     1       8.040  33.658  71.223  1.00  0.00     0.143 A 
HETATM   28  C   UNL     1       8.725  34.642  70.550  1.00  0.00     0.027 A 
HETATM   29  C   UNL     1       7.926  34.984  69.433  1.00  0.00     0.045 A 
ENDBRANCH  22  25
ENDBRANCH  20  21
ENDBRANCH  19  20
ENDBRANCH   2  19
TORSDOF 7
ENDMDL
MODEL 4
REMARK VINA RESULT:      -9.4      1.509      2.284
REMARK  7 active torsions:
REMARK  status: ('A' for Active; 'I' for Inactive)
REMARK    1  A    between atoms: C_4  and  O_5 
REMARK    2  A    between atoms: O_5  and  C_6 
REMARK    3  A    between atoms: C_9  and  N_10 
REMARK       I    between atoms: N_10  and  C_11 
REMARK    4  A    between atoms: C_11  and  C_12 
REMARK    5  A    between atoms: C_12  and  C_13 
REMARK    6  A    between atoms: C_13  and  N_14 
REMARK       I    between atoms: N_14  and  C_15 
REMARK    7  A    between atoms: C_15  and  C_16 
ROOT
HETATM    1  N   UNL     1       6.988  30.002  57.309  1.00  0.00    -0.327 N 
HETATM    2  C   UNL     1       7.774  30.176  58.433  1.00  0.00     0.223 C 
HETATM    3  O   UNL     1       8.362  29.298  59.056  1.00  0.00    -0.273 OA
HETATM    4  H   UNL     1       6.536  30.827  56.933  1.00  0.00     0.169 HD
ENDROOT
BRANCH   1   5
HETATM    5  C   UNL     1       6.774  28.807  56.587  1.00  0.00     0.034 A 
HETATM    6  C   UNL     1       7.527  28.415  55.478  1.00  0.00     0.032 A 
HETATM    7  C   UNL     1       7.220  27.233  54.788  1.00  0.00     0.039 A 
HETATM    8  C   UNL     1       6.171  26.424  55.220  1.00  0.00     0.076 A 
HETATM    9  C   UNL     1       5.411  26.811  56.323  1.00  0.00     0.039 A 
HETATM   10  C   UNL     1       5.714  27.993  57.005  1.00  0.00     0.032 A 
BRANCH   8  11
HETATM   11  O   UNL     1       5.753  25.283  54.572  1.00  0.00    -0.311 OA
BRANCH  11  12
HETATM   12  C   UNL     1       6.631  24.234  54.444  1.00  0.00     0.076 A 
HETATM   13  C   UNL     1       7.101  23.502  55.539  1.00  0.00     0.044 A 
HETATM   14  C   UNL     1       7.952  22.407  55.340  1.00  0.00    -0.059 A 
HETATM   15  C   UNL     1       8.440  21.607  56.512  1.00  0.00     0.048 C 
HETATM   16  C   UNL     1       8.286  22.030  54.033  1.00  0.00     0.007 A 
HETATM   17  C   UNL     1       7.795  22.747  52.941  1.00  0.00     0.003 A 
HETATM   18  C   UNL     1       6.964  23.846  53.147  1.00  0.00     0.037 A 
ENDBRANCH  11  12
ENDBRANCH   8  11
ENDBRANCH   1   5
BRANCH   2  19
HETATM   19  C   UNL     1       7.865  31.624  58.874  1.00  0.00     0.123 C 
BRANCH  19  20
HETATM   20  C   UNL     1       8.852  31.721  60.031  1.00  0.00     0.132 C 
BRANCH  20  21
HETATM   21  N   UNL     1       8.293  32.363  61.202  1.00  0.00    -0.355 N 
HETATM   22  C   UNL     1       8.111  31.698  62.398  1.00  0.00     0.275 C 
HETATM   23  O   UNL     1       8.566  30.575  62.600  1.00  0.00    -0.265 OA
HETATM   24  H   UNL     1       7.815  33.253  61.103  1.00  0.00     0.162 HD
BRANCH  22  25
HETATM   25  C   UNL     1       7.331  32.437  63.370  1.00  0.00     0.142 A 
HETATM   26  O   UNL     1       5.962  32.342  63.348  1.00  0.00    -0.317 OA
HETATM   27  C   UNL     1       5.491  33.106  64.368  1.00  0.00     0.143 A 
HETATM   28  C   UNL     1       6.530  33.697  65.048  1.00  0.00     0.027 A 
HETATM   29  C   UNL     1       7.716  33.268  64.405  1.00  0.00     0.045 A 
ENDBRANCH  22  25
ENDBRANCH  20  21
ENDBRANCH  19  20
ENDBRANCH   2  19
TORSDOF 7
ENDMDL
MODEL 5
REMARK VINA RESULT:      -9.4      1.959      3.492
REMARK  7 active torsions:
REMARK  status: ('A' for Active; 'I' for Inactive)
REMARK    1  A    between atoms: C_4  and  O_5 
REMARK    2  A    between atoms: O_5  and  C_6 
REMARK    3  A    between atoms: C_9  and  N_10 
REMARK       I    between atoms: N_10  and  C_11 
REMARK    4  A    between atoms: C_11  and  C_12 
REMARK    5  A    between atoms: C_12  and  C_13 
REMARK    6  A    between atoms: C_13  and  N_14 
REMARK       I    between atoms: N_14  and  C_15 
REMARK    7  A    between atoms: C_15  and  C_16 
ROOT
HETATM    1  N   UNL     1       8.760  30.104  58.706  1.00  0.00    -0.327 N 
HETATM    2  C   UNL     1       8.306  31.328  59.162  1.00  0.00     0.223 C 
HETATM    3  O   UNL     1       7.431  32.020  58.650  1.00  0.00    -0.273 OA
HETATM    4  H   UNL     1       9.519  29.676  59.222  1.00  0.00     0.169 HD
ENDROOT
BRANCH   1   5
HETATM    5  C   UNL     1       8.257  29.350  57.623  1.00  0.00     0.034 A 
HETATM    6  C   UNL     1       8.784  29.385  56.330  1.00  0.00     0.032 A 
HETATM    7  C   UNL     1       8.196  28.639  55.299  1.00  0.00     0.039 A 
HETATM    8  C   UNL     1       7.090  27.832  55.562  1.00  0.00     0.076 A 
HETATM    9  C   UNL     1       6.555  27.796  56.849  1.00  0.00     0.039 A 
HETATM   10  C   UNL     1       7.138  28.546  57.874  1.00  0.00     0.032 A 
BRANCH   8  11
HETATM   11  O   UNL     1       6.407  27.116  54.605  1.00  0.00    -0.311 OA
BRANCH  11  12
HETATM   12  C   UNL     1       6.965  25.958  54.120  1.00  0.00     0.076 A 
HETATM   13  C   UNL     1       7.065  24.789  54.880  1.00  0.00     0.044 A 
HETATM   14  C   UNL     1       7.593  23.623  54.311  1.00  0.00    -0.059 A 
HETATM   15  C   UNL     1       7.681  22.361  55.117  1.00  0.00     0.048 C 
HETATM   16  C   UNL     1       7.975  23.632  52.962  1.00  0.00     0.007 A 
HETATM   17  C   UNL     1       7.850  24.795  52.199  1.00  0.00     0.003 A 
HETATM   18  C   UNL     1       7.341  25.956  52.777  1.00  0.00     0.037 A 
ENDBRANCH  11  12
ENDBRANCH   8  11
ENDBRANCH   1   5
BRANCH   2  19
HETATM   19  C   UNL     1       9.008  31.788  60.425  1.00  0.00     0.123 C 
BRANCH  19  20
HETATM   20  C   UNL     1       8.693  30.806  61.545  1.00  0.00     0.132 C 
BRANCH  20  21
HETATM   21  N   UNL     1       8.094  31.436  62.703  1.00  0.00    -0.355 N 
HETATM   22  C   UNL     1       6.809  31.940  62.692  1.00  0.00     0.275 C 
HETATM   23  O   UNL     1       6.032  31.736  61.763  1.00  0.00    -0.265 OA
HETATM   24  H   UNL     1       8.685  31.722  63.477  1.00  0.00     0.162 HD
BRANCH  22  25
HETATM   25  C   UNL     1       6.478  32.732  63.859  1.00  0.00     0.142 A 
HETATM   26  O   UNL     1       5.187  32.735  64.328  1.00  0.00    -0.317 OA
HETATM   27  C   UNL     1       5.164  33.530  65.429  1.00  0.00     0.143 A 
HETATM   28  C   UNL     1       6.414  34.045  65.680  1.00  0.00     0.027 A 
HETATM   29  C   UNL     1       7.261  33.533  64.669  1.00  0.00     0.045 A 
ENDBRANCH  22  25
ENDBRANCH  20  21
ENDBRANCH  19  20
ENDBRANCH   2  19
TORSDOF 7
ENDMDL
MODEL 6
REMARK VINA RESULT:      -9.3      2.731      3.492
REMARK  7 active torsions:
REMARK  status: ('A' for Active; 'I' for Inactive)
REMARK    1  A    between atoms: C_4  and  O_5 
REMARK    2  A    between atoms: O_5  and  C_6 
REMARK    3  A    between atoms: C_9  and  N_10 
REMARK       I    between atoms: N_10  and  C_11 
REMARK    4  A    between atoms: C_11  and  C_12 
REMARK    5  A    between atoms: C_12  and  C_13 
REMARK    6  A    between atoms: C_13  and  N_14 
REMARK       I    between atoms: N_14  and  C_15 
REMARK    7  A    between atoms: C_15  and  C_16 
ROOT
HETATM    1  N   UNL     1       4.918  27.933  54.748  1.00  0.00    -0.327 N 
HETATM    2  C   UNL     1       4.780  28.187  56.100  1.00  0.00     0.223 C 
HETATM    3  O   UNL     1       5.159  27.468  57.020  1.00  0.00    -0.273 OA
HETATM    4  H   UNL     1       4.514  28.610  54.112  1.00  0.00     0.169 HD
ENDROOT
BRANCH   1   5
HETATM    5  C   UNL     1       5.599  26.857  54.140  1.00  0.00     0.034 A 
HETATM    6  C   UNL     1       4.974  25.712  53.641  1.00  0.00     0.032 A 
HETATM    7  C   UNL     1       5.730  24.667  53.092  1.00  0.00     0.039 A 
HETATM    8  C   UNL     1       7.118  24.771  53.018  1.00  0.00     0.076 A 
HETATM    9  C   UNL     1       7.750  25.908  53.519  1.00  0.00     0.039 A 
HETATM   10  C   UNL     1       6.996  26.947  54.072  1.00  0.00     0.032 A 
BRANCH   8  11
HETATM   11  O   UNL     1       7.948  23.774  52.557  1.00  0.00    -0.311 OA
BRANCH  11  12
HETATM   12  C   UNL     1       8.113  22.644  53.321  1.00  0.00     0.076 A 
HETATM   13  C   UNL     1       8.221  22.681  54.714  1.00  0.00     0.044 A 
HETATM   14  C   UNL     1       8.330  21.489  55.444  1.00  0.00    -0.059 A 
HETATM   15  C   UNL     1       8.425  21.525  56.940  1.00  0.00     0.048 C 
HETATM   16  C   UNL     1       8.282  20.265  54.764  1.00  0.00     0.007 A 
HETATM   17  C   UNL     1       8.148  20.231  53.375  1.00  0.00     0.003 A 
HETATM   18  C   UNL     1       8.059  21.420  52.654  1.00  0.00     0.037 A 
ENDBRANCH  11  12
ENDBRANCH   8  11
ENDBRANCH   1   5
BRANCH   2  19
HETATM   19  C   UNL     1       4.083  29.501  56.390  1.00  0.00     0.123 C 
BRANCH  19  20
HETATM   20  C   UNL     1       5.018  30.380  57.211  1.00  0.00     0.132 C 
BRANCH  20  21
HETATM   21  N   UNL     1       6.410  30.002  57.085  1.00  0.00    -0.355 N 
HETATM   22  C   UNL     1       7.374  30.409  57.986  1.00  0.00     0.275 C 
HETATM   23  O   UNL     1       7.091  30.970  59.042  1.00  0.00    -0.265 OA
HETATM   24  H   UNL     1       6.745  29.617  56.207  1.00  0.00     0.162 HD
BRANCH  22  25
HETATM   25  C   UNL     1       8.731  30.126  57.563  1.00  0.00     0.142 A 
HETATM   26  O   UNL     1       9.762  30.889  58.052  1.00  0.00    -0.317 OA
HETATM   27  C   UNL     1      10.911  30.398  57.518  1.00  0.00     0.143 A 
HETATM   28  C   UNL     1      10.643  29.333  56.690  1.00  0.00     0.027 A 
HETATM   29  C   UNL     1       9.238  29.158  56.717  1.00  0.00     0.045 A 
ENDBRANCH  22  25
ENDBRANCH  20  21
ENDBRANCH  19  20
ENDBRANCH   2  19
TORSDOF 7
ENDMDL
MODEL 7
REMARK VINA RESULT:      -9.2      2.052      2.947
REMARK  7 active torsions:
REMARK  status: ('A' for Active; 'I' for Inactive)
REMARK    1  A    between atoms: C_4  and  O_5 
REMARK    2  A    between atoms: O_5  and  C_6 
REMARK    3  A    between atoms: C_9  and  N_10 
REMARK       I    between atoms: N_10  and  C_11 
REMARK    4  A    between atoms: C_11  and  C_12 
REMARK    5  A    between atoms: C_12  and  C_13 
REMARK    6  A    between atoms: C_13  and  N_14 
REMARK       I    between atoms: N_14  and  C_15 
REMARK    7  A    between atoms: C_15  and  C_16 
ROOT
HETATM    1  N   UNL     1       4.876  28.807  57.726  1.00  0.00    -0.327 N 
HETATM    2  C   UNL     1       4.891  30.067  57.156  1.00  0.00     0.223 C 
HETATM    3  O   UNL     1       5.617  30.446  56.242  1.00  0.00    -0.273 OA
HETATM    4  H   UNL     1       4.242  28.663  58.503  1.00  0.00     0.169 HD
ENDROOT
BRANCH   1   5
HETATM    5  C   UNL     1       5.613  27.672  57.323  1.00  0.00     0.034 A 
HETATM    6  C   UNL     1       5.041  26.503  56.818  1.00  0.00     0.032 A 
HETATM    7  C   UNL     1       5.842  25.402  56.483  1.00  0.00     0.039 A 
HETATM    8  C   UNL     1       7.227  25.475  56.627  1.00  0.00     0.076 A 
HETATM    9  C   UNL     1       7.806  26.638  57.134  1.00  0.00     0.039 A 
HETATM   10  C   UNL     1       7.005  27.731  57.476  1.00  0.00     0.032 A 
BRANCH   8  11
HETATM   11  O   UNL     1       8.089  24.429  56.387  1.00  0.00    -0.311 OA
BRANCH  11  12
HETATM   12  C   UNL     1       8.082  23.837  55.147  1.00  0.00     0.076 A 
HETATM   13  C   UNL     1       8.141  22.452  54.969  1.00  0.00     0.044 A 
HETATM   14  C   UNL     1       8.074  21.903  53.681  1.00  0.00    -0.059 A 
HETATM   15  C   UNL     1       8.116  20.416  53.490  1.00  0.00     0.048 C 
HETATM   16  C   UNL     1       7.900  22.757  52.584  1.00  0.00     0.007 A 
HETATM   17  C   UNL     1       7.815  24.138  52.767  1.00  0.00     0.003 A 
HETATM   18  C   UNL     1       7.902  24.677  54.049  1.00  0.00     0.037 A 
ENDBRANCH  11  12
ENDBRANCH   8  11
ENDBRANCH   1   5
BRANCH   2  19
HETATM   19  C   UNL     1       3.881  31.011  57.777  1.00  0.00     0.123 C 
BRANCH  19  20
HETATM   20  C   UNL     1       4.626  32.197  58.378  1.00  0.00     0.132 C 
BRANCH  20  21
HETATM   21  N   UNL     1       5.748  31.804  59.204  1.00  0.00    -0.355 N 
HETATM   22  C   UNL     1       6.032  32.414  60.409  1.00  0.00     0.275 C 
HETATM   23  O   UNL     1       5.260  33.208  60.941  1.00  0.00    -0.265 OA
HETATM   24  H   UNL     1       6.480  31.223  58.807  1.00  0.00     0.162 HD
BRANCH  22  25
HETATM   25  C   UNL     1       7.316  32.043  60.968  1.00  0.00     0.142 A 
HETATM   26  O   UNL     1       7.366  31.154  62.013  1.00  0.00    -0.317 OA
HETATM   27  C   UNL     1       8.676  30.969  62.319  1.00  0.00     0.143 A 
HETATM   28  C   UNL     1       9.477  31.723  61.495  1.00  0.00     0.027 A 
HETATM   29  C   UNL     1       8.602  32.417  60.625  1.00  0.00     0.045 A 
ENDBRANCH  22  25
ENDBRANCH  20  21
ENDBRANCH  19  20
ENDBRANCH   2  19
TORSDOF 7
ENDMDL
MODEL 8
REMARK VINA RESULT:      -9.1      1.648      2.615
REMARK  7 active torsions:
REMARK  status: ('A' for Active; 'I' for Inactive)
REMARK    1  A    between atoms: C_4  and  O_5 
REMARK    2  A    between atoms: O_5  and  C_6 
REMARK    3  A    between atoms: C_9  and  N_10 
REMARK       I    between atoms: N_10  and  C_11 
REMARK    4  A    between atoms: C_11  and  C_12 
REMARK    5  A    between atoms: C_12  and  C_13 
REMARK    6  A    between atoms: C_13  and  N_14 
REMARK       I    between atoms: N_14  and  C_15 
REMARK    7  A    between atoms: C_15  and  C_16 
ROOT
HETATM    1  N   UNL     1       6.000  28.292  55.536  1.00  0.00    -0.327 N 
HETATM    2  C   UNL     1       5.238  29.337  55.046  1.00  0.00     0.223 C 
HETATM    3  O   UNL     1       4.791  29.444  53.908  1.00  0.00    -0.273 OA
HETATM    4  H   UNL     1       6.328  28.373  56.491  1.00  0.00     0.169 HD
ENDROOT
BRANCH   1   5
HETATM    5  C   UNL     1       6.342  27.094  54.873  1.00  0.00     0.034 A 
HETATM    6  C   UNL     1       7.500  26.919  54.112  1.00  0.00     0.032 A 
HETATM    7  C   UNL     1       7.743  25.709  53.448  1.00  0.00     0.039 A 
HETATM    8  C   UNL     1       6.839  24.655  53.561  1.00  0.00     0.076 A 
HETATM    9  C   UNL     1       5.678  24.822  54.315  1.00  0.00     0.039 A 
HETATM   10  C   UNL     1       5.433  26.032  54.971  1.00  0.00     0.032 A 
BRANCH   8  11
HETATM   11  O   UNL     1       6.957  23.455  52.897  1.00  0.00    -0.311 OA
BRANCH  11  12
HETATM   12  C   UNL     1       7.584  22.407  53.527  1.00  0.00     0.076 A 
HETATM   13  C   UNL     1       7.697  22.319  54.917  1.00  0.00     0.044 A 
HETATM   14  C   UNL     1       8.298  21.198  55.505  1.00  0.00    -0.059 A 
HETATM   15  C   UNL     1       8.401  21.090  56.998  1.00  0.00     0.048 C 
HETATM   16  C   UNL     1       8.740  20.151  54.685  1.00  0.00     0.007 A 
HETATM   17  C   UNL     1       8.602  20.231  53.298  1.00  0.00     0.003 A 
HETATM   18  C   UNL     1       8.021  21.357  52.720  1.00  0.00     0.037 A 
ENDBRANCH  11  12
ENDBRANCH   8  11
ENDBRANCH   1   5
BRANCH   2  19
HETATM   19  C   UNL     1       4.974  30.415  56.079  1.00  0.00     0.123 C 
BRANCH  19  20
HETATM   20  C   UNL     1       5.181  29.823  57.467  1.00  0.00     0.132 C 
BRANCH  20  21
HETATM   21  N   UNL     1       6.187  30.522  58.239  1.00  0.00    -0.355 N 
HETATM   22  C   UNL     1       7.498  30.096  58.308  1.00  0.00     0.275 C 
HETATM   23  O   UNL     1       7.937  29.203  57.589  1.00  0.00    -0.265 OA
HETATM   24  H   UNL     1       5.898  31.211  58.926  1.00  0.00     0.162 HD
BRANCH  22  25
HETATM   25  C   UNL     1       8.288  30.786  59.308  1.00  0.00     0.142 A 
HETATM   26  O   UNL     1       8.914  31.962  58.978  1.00  0.00    -0.317 OA
HETATM   27  C   UNL     1       9.556  32.400  60.093  1.00  0.00     0.143 A 
HETATM   28  C   UNL     1       9.360  31.528  61.138  1.00  0.00     0.027 A 
HETATM   29  C   UNL     1       8.544  30.487  60.633  1.00  0.00     0.045 A 
ENDBRANCH  22  25
ENDBRANCH  20  21
ENDBRANCH  19  20
ENDBRANCH   2  19
TORSDOF 7
ENDMDL
MODEL 9
REMARK VINA RESULT:      -9.1      1.981      2.779
REMARK  7 active torsions:
REMARK  status: ('A' for Active; 'I' for Inactive)
REMARK    1  A    between atoms: C_4  and  O_5 
REMARK    2  A    between atoms: O_5  and  C_6 
REMARK    3  A    between atoms: C_9  and  N_10 
REMARK       I    between atoms: N_10  and  C_11 
REMARK    4  A    between atoms: C_11  and  C_12 
REMARK    5  A    between atoms: C_12  and  C_13 
REMARK    6  A    between atoms: C_13  and  N_14 
REMARK       I    between atoms: N_14  and  C_15 
REMARK    7  A    between atoms: C_15  and  C_16 
ROOT
HETATM    1  N   UNL     1       4.753  28.877  57.525  1.00  0.00    -0.327 N 
HETATM    2  C   UNL     1       4.611  30.253  57.513  1.00  0.00     0.223 C 
HETATM    3  O   UNL     1       5.262  31.048  56.842  1.00  0.00    -0.273 OA
HETATM    4  H   UNL     1       4.164  28.362  58.167  1.00  0.00     0.169 HD
ENDROOT
BRANCH   1   5
HETATM    5  C   UNL     1       5.597  28.093  56.708  1.00  0.00     0.034 A 
HETATM    6  C   UNL     1       6.957  27.890  56.949  1.00  0.00     0.032 A 
HETATM    7  C   UNL     1       7.735  27.133  56.062  1.00  0.00     0.039 A 
HETATM    8  C   UNL     1       7.150  26.553  54.938  1.00  0.00     0.076 A 
HETATM    9  C   UNL     1       5.793  26.755  54.687  1.00  0.00     0.039 A 
HETATM   10  C   UNL     1       5.020  27.516  55.569  1.00  0.00     0.032 A 
BRANCH   8  11
HETATM   11  O   UNL     1       7.842  25.849  53.978  1.00  0.00    -0.311 OA
BRANCH  11  12
HETATM   12  C   UNL     1       7.928  24.483  54.092  1.00  0.00     0.076 A 
HETATM   13  C   UNL     1       8.134  23.837  55.314  1.00  0.00     0.044 A 
HETATM   14  C   UNL     1       8.157  22.437  55.375  1.00  0.00    -0.059 A 
HETATM   15  C   UNL     1       8.356  21.741  56.689  1.00  0.00     0.048 C 
HETATM   16  C   UNL     1       7.925  21.698  54.208  1.00  0.00     0.007 A 
HETATM   17  C   UNL     1       7.694  22.347  52.993  1.00  0.00     0.003 A 
HETATM   18  C   UNL     1       7.692  23.739  52.936  1.00  0.00     0.037 A 
ENDBRANCH  11  12
ENDBRANCH   8  11
ENDBRANCH   1   5
BRANCH   2  19
HETATM   19  C   UNL     1       3.525  30.746  58.448  1.00  0.00     0.123 C 
BRANCH  19  20
HETATM   20  C   UNL     1       4.072  31.912  59.261  1.00  0.00     0.132 C 
BRANCH  20  21
HETATM   21  N   UNL     1       5.434  31.704  59.709  1.00  0.00    -0.355 N 
HETATM   22  C   UNL     1       6.115  32.633  60.469  1.00  0.00     0.275 C 
HETATM   23  O   UNL     1       5.562  33.614  60.958  1.00  0.00    -0.265 OA
HETATM   24  H   UNL     1       5.991  30.969  59.285  1.00  0.00     0.162 HD
BRANCH  22  25
HETATM   25  C   UNL     1       7.528  32.349  60.617  1.00  0.00     0.142 A 
HETATM   26  O   UNL     1       8.345  32.399  59.515  1.00  0.00    -0.317 OA
HETATM   27  C   UNL     1       9.605  32.118  59.939  1.00  0.00     0.143 A 
HETATM   28  C   UNL     1       9.619  31.884  61.294  1.00  0.00     0.027 A 
HETATM   29  C   UNL     1       8.282  32.031  61.732  1.00  0.00     0.045 A 
ENDBRANCH  22  25
ENDBRANCH  20  21
ENDBRANCH  19  20
ENDBRANCH   2  19
TORSDOF 7
ENDMDL
MODEL 10
REMARK VINA RESULT:      -9.0      1.909     10.266
REMARK  7 active torsions:
REMARK  status: ('A' for Active; 'I' for Inactive)
REMARK    1  A    between atoms: C_4  and  O_5 
REMARK    2  A    between atoms: O_5  and  C_6 
REMARK    3  A    between atoms: C_9  and  N_10 
REMARK       I    between atoms: N_10  and  C_11 
REMARK    4  A    between atoms: C_11  and  C_12 
REMARK    5  A    between atoms: C_12  and  C_13 
REMARK    6  A    between atoms: C_13  and  N_14 
REMARK       I    between atoms: N_14  and  C_15 
REMARK    7  A    between atoms: C_15  and  C_16 
ROOT
HETATM    1  N   UNL     1       7.772  27.694  55.903  1.00  0.00    -0.327 N 
HETATM    2  C   UNL     1       7.602  27.623  54.533  1.00  0.00     0.223 C 
HETATM    3  O   UNL     1       7.789  28.528  53.726  1.00  0.00    -0.273 OA
HETATM    4  H   UNL     1       7.536  26.867  56.438  1.00  0.00     0.169 HD
ENDROOT
BRANCH   1   5
HETATM    5  C   UNL     1       8.285  28.776  56.650  1.00  0.00     0.034 A 
HETATM    6  C   UNL     1       9.646  29.042  56.816  1.00  0.00     0.032 A 
HETATM    7  C   UNL     1      10.073  30.113  57.613  1.00  0.00     0.039 A 
HETATM    8  C   UNL     1       9.138  30.942  58.231  1.00  0.00     0.076 A 
HETATM    9  C   UNL     1       7.778  30.681  58.074  1.00  0.00     0.039 A 
HETATM   10  C   UNL     1       7.353  29.608  57.286  1.00  0.00     0.032 A 
BRANCH   8  11
HETATM   11  O   UNL     1       9.459  31.976  59.082  1.00  0.00    -0.311 OA
BRANCH  11  12
HETATM   12  C   UNL     1       8.976  31.949  60.368  1.00  0.00     0.076 A 
HETATM   13  C   UNL     1       8.061  32.888  60.852  1.00  0.00     0.044 A 
HETATM   14  C   UNL     1       7.561  32.776  62.157  1.00  0.00    -0.059 A 
HETATM   15  C   UNL     1       6.563  33.770  62.672  1.00  0.00     0.048 C 
HETATM   16  C   UNL     1       7.953  31.687  62.948  1.00  0.00     0.007 A 
HETATM   17  C   UNL     1       8.848  30.737  62.451  1.00  0.00     0.003 A 
HETATM   18  C   UNL     1       9.355  30.866  61.161  1.00  0.00     0.037 A 
ENDBRANCH  11  12
ENDBRANCH   8  11
ENDBRANCH   1   5
BRANCH   2  19
HETATM   19  C   UNL     1       7.136  26.259  54.062  1.00  0.00     0.123 C 
BRANCH  19  20
HETATM   20  C   UNL     1       6.361  25.591  55.191  1.00  0.00     0.132 C 
BRANCH  20  21
HETATM   21  N   UNL     1       6.661  24.182  55.331  1.00  0.00    -0.355 N 
HETATM   22  C   UNL     1       7.803  23.725  55.957  1.00  0.00     0.275 C 
HETATM   23  O   UNL     1       8.551  24.470  56.585  1.00  0.00    -0.265 OA
HETATM   24  H   UNL     1       6.149  23.505  54.773  1.00  0.00     0.162 HD
BRANCH  22  25
HETATM   25  C   UNL     1       8.037  22.305  55.791  1.00  0.00     0.142 A 
HETATM   26  O   UNL     1       7.937  21.747  54.540  1.00  0.00    -0.317 OA
HETATM   27  C   UNL     1       8.225  20.425  54.668  1.00  0.00     0.143 A 
HETATM   28  C   UNL     1       8.507  20.116  55.978  1.00  0.00     0.027 A 
HETATM   29  C   UNL     1       8.384  21.325  56.702  1.00  0.00     0.045 A 
ENDBRANCH  22  25
ENDBRANCH  20  21
ENDBRANCH  19  20
ENDBRANCH   2  19
TORSDOF 7
ENDMDL
