MODEL 1
REMARK VINA RESULT:      -8.8      0.000      0.000
REMARK  6 active torsions:
REMARK  status: ('A' for Active; 'I' for Inactive)
REMARK    1  A    between atoms: C_2  and  O_3 
REMARK    2  A    between atoms: O_3  and  C_4 
REMARK    3  A    between atoms: C_4  and  C_5 
REMARK    4  A    between atoms: C_6  and  O_7 
REMARK    5  A    between atoms: C_12  and  O_13 
REMARK    6  A    between atoms: C_17  and  C_18 
ROOT
HETATM    1  C   UNL     1       7.061  26.791  55.514  1.00  0.00     0.133 C 
HETATM    2  C   UNL     1       5.569  27.108  55.860  1.00  0.00     0.073 C 
HETATM    3  C   UNL     1       5.420  27.966  57.126  1.00  0.00     0.047 C 
HETATM    4  C   UNL     1       4.761  27.748  54.694  1.00  0.00     0.097 C 
HETATM    5  C   UNL     1       5.135  27.108  53.408  1.00  0.00     0.042 A 
HETATM    6  C   UNL     1       6.260  26.357  53.143  1.00  0.00     0.030 A 
HETATM    7  C   UNL     1       6.106  26.014  51.790  1.00  0.00     0.190 A 
HETATM    8  N   UNL     1       5.002  26.503  51.238  1.00  0.00    -0.149 NA
HETATM    9  N   UNL     1       4.410  27.156  52.252  1.00  0.00    -0.279 N 
HETATM   10  H   UNL     1       3.518  27.608  52.078  1.00  0.00     0.189 HD
HETATM   11  C   UNL     1       7.325  26.090  54.150  1.00  0.00     0.074 C 
ENDROOT
BRANCH  11  12
HETATM   12  C   UNL     1       7.486  24.580  54.278  1.00  0.00    -0.048 A 
HETATM   13  C   UNL     1       7.976  23.862  53.169  1.00  0.00     0.011 A 
HETATM   14  C   UNL     1       8.172  22.482  53.238  1.00  0.00     0.043 A 
HETATM   15  C   UNL     1       7.889  21.809  54.418  1.00  0.00     0.116 A 
HETATM   16  F   UNL     1       8.083  20.485  54.485  1.00  0.00    -0.206 F 
HETATM   17  C   UNL     1       7.416  22.491  55.530  1.00  0.00     0.043 A 
HETATM   18  C   UNL     1       7.218  23.871  55.463  1.00  0.00     0.011 A 
ENDBRANCH  11  12
BRANCH   1  19
HETATM   19  C   UNL     1       7.990  27.986  55.572  1.00  0.00     0.267 C 
HETATM   20  O   UNL     1       8.092  28.783  54.647  1.00  0.00    -0.265 OA
BRANCH  19  21
HETATM   21  O   UNL     1       8.618  28.108  56.767  1.00  0.00    -0.316 OA
BRANCH  21  22
HETATM   22  C   UNL     1       9.080  29.429  57.119  1.00  0.00     0.123 C 
HETATM   23  C   UNL     1      10.604  29.473  57.097  1.00  0.00     0.040 C 
HETATM   24  C   UNL     1       8.558  29.722  58.520  1.00  0.00     0.040 C 
ENDBRANCH  21  22
ENDBRANCH  19  21
ENDBRANCH   1  19
BRANCH   2  25
HETATM   25  O   UNL     1       4.906  25.862  56.182  1.00  0.00    -0.389 OA
HETATM   26  H   UNL     1       4.709  25.389  55.353  1.00  0.00     0.210 HD
ENDBRANCH   2  25
BRANCH   7  27
HETATM   27  O   UNL     1       6.887  25.270  51.006  1.00  0.00    -0.343 OA
HETATM   28  H   UNL     1       7.018  25.722  50.159  1.00  0.00     0.219 HD
ENDBRANCH   7  27
TORSDOF 6
ENDMDL
MODEL 2
REMARK VINA RESULT:      -8.3      2.932      6.046
REMARK  6 active torsions:
REMARK  status: ('A' for Active; 'I' for Inactive)
REMARK    1  A    between atoms: C_2  and  O_3 
REMARK    2  A    between atoms: O_3  and  C_4 
REMARK    3  A    between atoms: C_4  and  C_5 
REMARK    4  A    between atoms: C_6  and  O_7 
REMARK    5  A    between atoms: C_12  and  O_13 
REMARK    6  A    between atoms: C_17  and  C_18 
ROOT
HETATM    1  C   UNL     1       7.609  26.119  55.430  1.00  0.00     0.133 C 
HETATM    2  C   UNL     1       7.203  26.354  53.937  1.00  0.00     0.073 C 
HETATM    3  C   UNL     1       7.647  25.210  53.012  1.00  0.00     0.047 C 
HETATM    4  C   UNL     1       5.690  26.647  53.721  1.00  0.00     0.097 C 
HETATM    5  C   UNL     1       5.185  27.527  54.804  1.00  0.00     0.042 A 
HETATM    6  C   UNL     1       5.771  27.768  56.028  1.00  0.00     0.030 A 
HETATM    7  C   UNL     1       4.875  28.657  56.643  1.00  0.00     0.190 A 
HETATM    8  N   UNL     1       3.817  28.951  55.898  1.00  0.00    -0.149 NA
HETATM    9  N   UNL     1       4.035  28.262  54.764  1.00  0.00    -0.279 N 
HETATM   10  H   UNL     1       3.356  28.343  54.014  1.00  0.00     0.189 HD
HETATM   11  C   UNL     1       7.041  27.127  56.471  1.00  0.00     0.074 C 
ENDROOT
BRANCH  11  12
HETATM   12  C   UNL     1       8.027  28.233  56.829  1.00  0.00    -0.048 A 
HETATM   13  C   UNL     1       7.986  28.771  58.131  1.00  0.00     0.011 A 
HETATM   14  C   UNL     1       8.885  29.764  58.524  1.00  0.00     0.043 A 
HETATM   15  C   UNL     1       9.838  30.220  57.624  1.00  0.00     0.116 A 
HETATM   16  F   UNL     1      10.702  31.169  58.004  1.00  0.00    -0.206 F 
HETATM   17  C   UNL     1       9.909  29.701  56.339  1.00  0.00     0.043 A 
HETATM   18  C   UNL     1       9.010  28.708  55.943  1.00  0.00     0.011 A 
ENDBRANCH  11  12
BRANCH   1  19
HETATM   19  C   UNL     1       7.299  24.733  55.957  1.00  0.00     0.267 C 
HETATM   20  O   UNL     1       6.169  24.394  56.286  1.00  0.00    -0.265 OA
BRANCH  19  21
HETATM   21  O   UNL     1       8.378  23.913  55.948  1.00  0.00    -0.316 OA
BRANCH  21  22
HETATM   22  C   UNL     1       8.134  22.534  55.601  1.00  0.00     0.123 C 
HETATM   23  C   UNL     1       8.361  21.642  56.817  1.00  0.00     0.040 C 
HETATM   24  C   UNL     1       9.111  22.178  54.488  1.00  0.00     0.040 C 
ENDBRANCH  21  22
ENDBRANCH  19  21
ENDBRANCH   1  19
BRANCH   2  25
HETATM   25  O   UNL     1       7.919  27.515  53.453  1.00  0.00    -0.389 OA
HETATM   26  H   UNL     1       7.871  27.529  52.480  1.00  0.00     0.210 HD
ENDBRANCH   2  25
BRANCH   7  27
HETATM   27  O   UNL     1       4.946  29.247  57.838  1.00  0.00    -0.343 OA
HETATM   28  H   UNL     1       5.869  29.464  58.036  1.00  0.00     0.219 HD
ENDBRANCH   7  27
TORSDOF 6
ENDMDL
MODEL 3
REMARK VINA RESULT:      -8.2      3.159      5.399
REMARK  6 active torsions:
REMARK  status: ('A' for Active; 'I' for Inactive)
REMARK    1  A    between atoms: C_2  and  O_3 
REMARK    2  A    between atoms: O_3  and  C_4 
REMARK    3  A    between atoms: C_4  and  C_5 
REMARK    4  A    between atoms: C_6  and  O_7 
REMARK    5  A    between atoms: C_12  and  O_13 
REMARK    6  A    between atoms: C_17  and  C_18 
ROOT
HETATM    1  C   UNL     1       6.285  25.509  55.399  1.00  0.00     0.133 C 
HETATM    2  C   UNL     1       5.473  26.195  56.547  1.00  0.00     0.073 C 
HETATM    3  C   UNL     1       4.721  25.186  57.429  1.00  0.00     0.047 C 
HETATM    4  C   UNL     1       6.310  27.154  57.442  1.00  0.00     0.097 C 
HETATM    5  C   UNL     1       7.263  27.926  56.606  1.00  0.00     0.042 A 
HETATM    6  C   UNL     1       7.677  27.633  55.324  1.00  0.00     0.030 A 
HETATM    7  C   UNL     1       8.567  28.678  55.029  1.00  0.00     0.190 A 
HETATM    8  N   UNL     1       8.719  29.547  56.021  1.00  0.00    -0.149 NA
HETATM    9  N   UNL     1       7.895  29.078  56.973  1.00  0.00    -0.279 N 
HETATM   10  H   UNL     1       7.821  29.596  57.843  1.00  0.00     0.189 HD
HETATM   11  C   UNL     1       7.228  26.429  54.570  1.00  0.00     0.074 C 
ENDROOT
BRANCH  11  12
HETATM   12  C   UNL     1       6.604  26.898  53.261  1.00  0.00    -0.048 A 
HETATM   13  C   UNL     1       6.477  25.968  52.209  1.00  0.00     0.011 A 
HETATM   14  C   UNL     1       5.886  26.332  50.998  1.00  0.00     0.043 A 
HETATM   15  C   UNL     1       5.408  27.625  50.831  1.00  0.00     0.116 A 
HETATM   16  F   UNL     1       4.837  27.971  49.671  1.00  0.00    -0.206 F 
HETATM   17  C   UNL     1       5.509  28.558  51.853  1.00  0.00     0.043 A 
HETATM   18  C   UNL     1       6.102  28.196  53.065  1.00  0.00     0.011 A 
ENDBRANCH  11  12
BRANCH   1  19
HETATM   19  C   UNL     1       7.116  24.321  55.836  1.00  0.00     0.267 C 
HETATM   20  O   UNL     1       7.908  24.382  56.768  1.00  0.00    -0.265 OA
BRANCH  19  21
HETATM   21  O   UNL     1       6.829  23.193  55.142  1.00  0.00    -0.316 OA
BRANCH  21  22
HETATM   22  C   UNL     1       7.948  22.495  54.558  1.00  0.00     0.123 C 
HETATM   23  C   UNL     1       7.881  22.580  53.037  1.00  0.00     0.040 C 
HETATM   24  C   UNL     1       7.855  21.045  55.016  1.00  0.00     0.040 C 
ENDBRANCH  21  22
ENDBRANCH  19  21
ENDBRANCH   1  19
BRANCH   2  25
HETATM   25  O   UNL     1       4.433  27.001  55.945  1.00  0.00    -0.389 OA
HETATM   26  H   UNL     1       4.090  27.621  56.614  1.00  0.00     0.210 HD
ENDBRANCH   2  25
BRANCH   7  27
HETATM   27  O   UNL     1       9.254  28.922  53.911  1.00  0.00    -0.343 OA
HETATM   28  H   UNL     1       8.960  29.763  53.530  1.00  0.00     0.219 HD
ENDBRANCH   7  27
TORSDOF 6
ENDMDL
MODEL 4
REMARK VINA RESULT:      -8.1      8.422     10.646
REMARK  6 active torsions:
REMARK  status: ('A' for Active; 'I' for Inactive)
REMARK    1  A    between atoms: C_2  and  O_3 
REMARK    2  A    between atoms: O_3  and  C_4 
REMARK    3  A    between atoms: C_4  and  C_5 
REMARK    4  A    between atoms: C_6  and  O_7 
REMARK    5  A    between atoms: C_12  and  O_13 
REMARK    6  A    between atoms: C_17  and  C_18 
ROOT
HETATM    1  C   UNL     1       5.493  34.375  62.533  1.00  0.00     0.133 C 
HETATM    2  C   UNL     1       4.299  33.830  63.385  1.00  0.00     0.073 C 
HETATM    3  C   UNL     1       3.880  34.792  64.508  1.00  0.00     0.047 C 
HETATM    4  C   UNL     1       3.050  33.419  62.552  1.00  0.00     0.097 C 
HETATM    5  C   UNL     1       3.475  32.744  61.301  1.00  0.00     0.042 A 
HETATM    6  C   UNL     1       4.721  32.781  60.712  1.00  0.00     0.030 A 
HETATM    7  C   UNL     1       4.559  31.983  59.568  1.00  0.00     0.190 A 
HETATM    8  N   UNL     1       3.333  31.493  59.428  1.00  0.00    -0.149 NA
HETATM    9  N   UNL     1       2.688  31.955  60.513  1.00  0.00    -0.279 N 
HETATM   10  H   UNL     1       1.716  31.693  60.642  1.00  0.00     0.189 HD
HETATM   11  C   UNL     1       5.865  33.563  61.259  1.00  0.00     0.074 C 
ENDROOT
BRANCH  11  12
HETATM   12  C   UNL     1       7.028  32.604  61.483  1.00  0.00    -0.048 A 
HETATM   13  C   UNL     1       8.156  32.712  60.645  1.00  0.00     0.011 A 
HETATM   14  C   UNL     1       9.264  31.881  60.823  1.00  0.00     0.043 A 
HETATM   15  C   UNL     1       9.257  30.941  61.844  1.00  0.00     0.116 A 
HETATM   16  F   UNL     1      10.321  30.148  62.017  1.00  0.00    -0.206 F 
HETATM   17  C   UNL     1       8.165  30.819  62.692  1.00  0.00     0.043 A 
HETATM   18  C   UNL     1       7.055  31.649  62.514  1.00  0.00     0.011 A 
ENDBRANCH  11  12
BRANCH   1  19
HETATM   19  C   UNL     1       5.350  35.819  62.098  1.00  0.00     0.267 C 
HETATM   20  O   UNL     1       4.538  36.172  61.252  1.00  0.00    -0.265 OA
BRANCH  19  21
HETATM   21  O   UNL     1       6.152  36.661  62.795  1.00  0.00    -0.316 OA
BRANCH  21  22
HETATM   22  C   UNL     1       5.853  38.068  62.690  1.00  0.00     0.123 C 
HETATM   23  C   UNL     1       6.865  38.750  61.774  1.00  0.00     0.040 C 
HETATM   24  C   UNL     1       5.933  38.645  64.097  1.00  0.00     0.040 C 
ENDBRANCH  21  22
ENDBRANCH  19  21
ENDBRANCH   1  19
BRANCH   2  25
HETATM   25  O   UNL     1       4.743  32.636  64.072  1.00  0.00    -0.389 OA
HETATM   26  H   UNL     1       4.073  32.387  64.733  1.00  0.00     0.210 HD
ENDBRANCH   2  25
BRANCH   7  27
HETATM   27  O   UNL     1       5.448  31.644  58.633  1.00  0.00    -0.343 OA
HETATM   28  H   UNL     1       5.790  32.445  58.209  1.00  0.00     0.219 HD
ENDBRANCH   7  27
TORSDOF 6
ENDMDL
MODEL 5
REMARK VINA RESULT:      -7.8      4.134      6.089
REMARK  6 active torsions:
REMARK  status: ('A' for Active; 'I' for Inactive)
REMARK    1  A    between atoms: C_2  and  O_3 
REMARK    2  A    between atoms: O_3  and  C_4 
REMARK    3  A    between atoms: C_4  and  C_5 
REMARK    4  A    between atoms: C_6  and  O_7 
REMARK    5  A    between atoms: C_12  and  O_13 
REMARK    6  A    between atoms: C_17  and  C_18 
ROOT
HETATM    1  C   UNL     1       7.585  29.858  57.029  1.00  0.00     0.133 C 
HETATM    2  C   UNL     1       8.838  29.143  56.424  1.00  0.00     0.073 C 
HETATM    3  C   UNL     1      10.138  29.931  56.646  1.00  0.00     0.047 C 
HETATM    4  C   UNL     1       9.029  27.672  56.894  1.00  0.00     0.097 C 
HETATM    5  C   UNL     1       7.713  26.989  56.968  1.00  0.00     0.042 A 
HETATM    6  C   UNL     1       6.467  27.577  57.012  1.00  0.00     0.030 A 
HETATM    7  C   UNL     1       5.596  26.477  57.079  1.00  0.00     0.190 A 
HETATM    8  N   UNL     1       6.217  25.304  57.088  1.00  0.00    -0.149 NA
HETATM    9  N   UNL     1       7.516  25.639  56.999  1.00  0.00    -0.279 N 
HETATM   10  H   UNL     1       8.204  24.893  56.968  1.00  0.00     0.189 HD
HETATM   11  C   UNL     1       6.254  29.051  57.022  1.00  0.00     0.074 C 
ENDROOT
BRANCH  11  12
HETATM   12  C   UNL     1       5.350  29.405  55.847  1.00  0.00    -0.048 A 
HETATM   13  C   UNL     1       4.413  30.445  56.013  1.00  0.00     0.011 A 
HETATM   14  C   UNL     1       3.579  30.832  54.963  1.00  0.00     0.043 A 
HETATM   15  C   UNL     1       3.681  30.191  53.736  1.00  0.00     0.116 A 
HETATM   16  F   UNL     1       2.884  30.567  52.728  1.00  0.00    -0.206 F 
HETATM   17  C   UNL     1       4.601  29.171  53.540  1.00  0.00     0.043 A 
HETATM   18  C   UNL     1       5.435  28.781  54.590  1.00  0.00     0.011 A 
ENDBRANCH  11  12
BRANCH   1  19
HETATM   19  C   UNL     1       7.772  30.369  58.443  1.00  0.00     0.267 C 
HETATM   20  O   UNL     1       8.239  29.673  59.336  1.00  0.00    -0.265 OA
BRANCH  19  21
HETATM   21  O   UNL     1       7.442  31.677  58.577  1.00  0.00    -0.316 OA
BRANCH  21  22
HETATM   22  C   UNL     1       6.258  31.966  59.349  1.00  0.00     0.123 C 
HETATM   23  C   UNL     1       5.352  32.919  58.577  1.00  0.00     0.040 C 
HETATM   24  C   UNL     1       6.721  32.606  60.651  1.00  0.00     0.040 C 
ENDBRANCH  21  22
ENDBRANCH  19  21
ENDBRANCH   1  19
BRANCH   2  25
HETATM   25  O   UNL     1       8.679  29.096  54.986  1.00  0.00    -0.389 OA
HETATM   26  H   UNL     1       7.789  28.758  54.779  1.00  0.00     0.210 HD
ENDBRANCH   2  25
BRANCH   7  27
HETATM   27  O   UNL     1       4.263  26.447  57.119  1.00  0.00    -0.343 OA
HETATM   28  H   UNL     1       3.914  26.467  56.216  1.00  0.00     0.219 HD
ENDBRANCH   7  27
TORSDOF 6
ENDMDL
MODEL 6
REMARK VINA RESULT:      -7.8      3.562      6.020
REMARK  6 active torsions:
REMARK  status: ('A' for Active; 'I' for Inactive)
REMARK    1  A    between atoms: C_2  and  O_3 
REMARK    2  A    between atoms: O_3  and  C_4 
REMARK    3  A    between atoms: C_4  and  C_5 
REMARK    4  A    between atoms: C_6  and  O_7 
REMARK    5  A    between atoms: C_12  and  O_13 
REMARK    6  A    between atoms: C_17  and  C_18 
ROOT
HETATM    1  C   UNL     1       6.545  28.608  54.675  1.00  0.00     0.133 C 
HETATM    2  C   UNL     1       5.100  28.572  55.275  1.00  0.00     0.073 C 
HETATM    3  C   UNL     1       4.042  29.138  54.314  1.00  0.00     0.047 C 
HETATM    4  C   UNL     1       4.651  27.173  55.786  1.00  0.00     0.097 C 
HETATM    5  C   UNL     1       5.783  26.493  56.463  1.00  0.00     0.042 A 
HETATM    6  C   UNL     1       7.123  26.797  56.361  1.00  0.00     0.030 A 
HETATM    7  C   UNL     1       7.733  25.847  57.195  1.00  0.00     0.190 A 
HETATM    8  N   UNL     1       6.876  25.010  57.767  1.00  0.00    -0.149 NA
HETATM    9  N   UNL     1       5.681  25.435  57.320  1.00  0.00    -0.279 N 
HETATM   10  H   UNL     1       4.848  24.954  57.642  1.00  0.00     0.189 HD
HETATM   11  C   UNL     1       7.654  27.885  55.493  1.00  0.00     0.074 C 
ENDROOT
BRANCH  11  12
HETATM   12  C   UNL     1       8.462  28.836  56.369  1.00  0.00    -0.048 A 
HETATM   13  C   UNL     1       9.679  29.338  55.867  1.00  0.00     0.011 A 
HETATM   14  C   UNL     1      10.447  30.235  56.612  1.00  0.00     0.043 A 
HETATM   15  C   UNL     1       9.999  30.645  57.861  1.00  0.00     0.116 A 
HETATM   16  F   UNL     1      10.734  31.509  58.572  1.00  0.00    -0.206 F 
HETATM   17  C   UNL     1       8.800  30.176  58.376  1.00  0.00     0.043 A 
HETATM   18  C   UNL     1       8.032  29.277  57.633  1.00  0.00     0.011 A 
ENDBRANCH  11  12
BRANCH   1  19
HETATM   19  C   UNL     1       6.651  28.092  53.255  1.00  0.00     0.267 C 
HETATM   20  O   UNL     1       6.332  28.769  52.285  1.00  0.00    -0.265 OA
BRANCH  19  21
HETATM   21  O   UNL     1       7.198  26.854  53.183  1.00  0.00    -0.316 OA
BRANCH  21  22
HETATM   22  C   UNL     1       6.632  25.956  52.206  1.00  0.00     0.123 C 
HETATM   23  C   UNL     1       5.334  25.357  52.737  1.00  0.00     0.040 C 
HETATM   24  C   UNL     1       7.663  24.862  51.958  1.00  0.00     0.040 C 
ENDBRANCH  21  22
ENDBRANCH  19  21
ENDBRANCH   1  19
BRANCH   2  25
HETATM   25  O   UNL     1       5.065  29.456  56.420  1.00  0.00    -0.389 OA
HETATM   26  H   UNL     1       5.898  29.961  56.452  1.00  0.00     0.210 HD
ENDBRANCH   2  25
BRANCH   7  27
HETATM   27  O   UNL     1       9.021  25.681  57.499  1.00  0.00    -0.343 OA
HETATM   28  H   UNL     1       9.414  26.539  57.716  1.00  0.00     0.219 HD
ENDBRANCH   7  27
TORSDOF 6
ENDMDL
MODEL 7
REMARK VINA RESULT:      -7.7      2.802      5.658
REMARK  6 active torsions:
REMARK  status: ('A' for Active; 'I' for Inactive)
REMARK    1  A    between atoms: C_2  and  O_3 
REMARK    2  A    between atoms: O_3  and  C_4 
REMARK    3  A    between atoms: C_4  and  C_5 
REMARK    4  A    between atoms: C_6  and  O_7 
REMARK    5  A    between atoms: C_12  and  O_13 
REMARK    6  A    between atoms: C_17  and  C_18 
ROOT
HETATM    1  C   UNL     1       6.422  26.695  53.745  1.00  0.00     0.133 C 
HETATM    2  C   UNL     1       5.796  27.600  52.633  1.00  0.00     0.073 C 
HETATM    3  C   UNL     1       5.776  26.921  51.254  1.00  0.00     0.047 C 
HETATM    4  C   UNL     1       4.377  28.143  52.970  1.00  0.00     0.097 C 
HETATM    5  C   UNL     1       4.308  28.525  54.403  1.00  0.00     0.042 A 
HETATM    6  C   UNL     1       5.163  28.139  55.413  1.00  0.00     0.030 A 
HETATM    7  C   UNL     1       4.632  28.779  56.545  1.00  0.00     0.190 A 
HETATM    8  N   UNL     1       3.543  29.495  56.292  1.00  0.00    -0.149 NA
HETATM    9  N   UNL     1       3.372  29.342  54.967  1.00  0.00    -0.279 N 
HETATM   10  H   UNL     1       2.595  29.822  54.524  1.00  0.00     0.189 HD
HETATM   11  C   UNL     1       6.314  27.217  55.207  1.00  0.00     0.074 C 
ENDROOT
BRANCH  11  12
HETATM   12  C   UNL     1       7.578  27.927  55.680  1.00  0.00    -0.048 A 
HETATM   13  C   UNL     1       8.347  28.629  54.730  1.00  0.00     0.011 A 
HETATM   14  C   UNL     1       9.497  29.322  55.111  1.00  0.00     0.043 A 
HETATM   15  C   UNL     1       9.883  29.329  56.444  1.00  0.00     0.116 A 
HETATM   16  F   UNL     1      10.983  29.999  56.809  1.00  0.00    -0.206 F 
HETATM   17  C   UNL     1       9.139  28.656  57.403  1.00  0.00     0.043 A 
HETATM   18  C   UNL     1       7.989  27.960  57.024  1.00  0.00     0.011 A 
ENDBRANCH  11  12
BRANCH   1  19
HETATM   19  C   UNL     1       5.915  25.268  53.758  1.00  0.00     0.267 C 
HETATM   20  O   UNL     1       4.750  24.988  54.013  1.00  0.00    -0.265 OA
BRANCH  19  21
HETATM   21  O   UNL     1       6.860  24.369  53.388  1.00  0.00    -0.316 OA
BRANCH  21  22
HETATM   22  C   UNL     1       7.207  23.363  54.362  1.00  0.00     0.123 C 
HETATM   23  C   UNL     1       8.131  23.958  55.420  1.00  0.00     0.040 C 
HETATM   24  C   UNL     1       7.910  22.241  53.609  1.00  0.00     0.040 C 
ENDBRANCH  21  22
ENDBRANCH  19  21
ENDBRANCH   1  19
BRANCH   2  25
HETATM   25  O   UNL     1       6.647  28.757  52.460  1.00  0.00    -0.389 OA
HETATM   26  H   UNL     1       6.102  29.505  52.158  1.00  0.00     0.210 HD
ENDBRANCH   2  25
BRANCH   7  27
HETATM   27  O   UNL     1       5.068  28.782  57.805  1.00  0.00    -0.343 OA
HETATM   28  H   UNL     1       6.017  28.975  57.818  1.00  0.00     0.219 HD
ENDBRANCH   7  27
TORSDOF 6
ENDMDL
MODEL 8
REMARK VINA RESULT:      -7.6      3.610      6.458
REMARK  6 active torsions:
REMARK  status: ('A' for Active; 'I' for Inactive)
REMARK    1  A    between atoms: C_2  and  O_3 
REMARK    2  A    between atoms: O_3  and  C_4 
REMARK    3  A    between atoms: C_4  and  C_5 
REMARK    4  A    between atoms: C_6  and  O_7 
REMARK    5  A    between atoms: C_12  and  O_13 
REMARK    6  A    between atoms: C_17  and  C_18 
ROOT
HETATM    1  C   UNL     1       4.212  28.781  50.868  1.00  0.00     0.133 C 
HETATM    2  C   UNL     1       4.797  30.230  50.803  1.00  0.00     0.073 C 
HETATM    3  C   UNL     1       4.645  30.871  49.414  1.00  0.00     0.047 C 
HETATM    4  C   UNL     1       4.244  31.196  51.890  1.00  0.00     0.097 C 
HETATM    5  C   UNL     1       4.107  30.479  53.182  1.00  0.00     0.042 A 
HETATM    6  C   UNL     1       4.074  29.116  53.383  1.00  0.00     0.030 A 
HETATM    7  C   UNL     1       3.926  29.000  54.774  1.00  0.00     0.190 A 
HETATM    8  N   UNL     1       3.860  30.167  55.403  1.00  0.00    -0.149 NA
HETATM    9  N   UNL     1       3.992  31.063  54.410  1.00  0.00    -0.279 N 
HETATM   10  H   UNL     1       3.991  32.049  54.649  1.00  0.00     0.189 HD
HETATM   11  C   UNL     1       4.147  28.121  52.277  1.00  0.00     0.074 C 
ENDROOT
BRANCH  11  12
HETATM   12  C   UNL     1       5.324  27.193  52.554  1.00  0.00    -0.048 A 
HETATM   13  C   UNL     1       5.223  25.845  52.153  1.00  0.00     0.011 A 
HETATM   14  C   UNL     1       6.281  24.957  52.355  1.00  0.00     0.043 A 
HETATM   15  C   UNL     1       7.451  25.409  52.948  1.00  0.00     0.116 A 
HETATM   16  F   UNL     1       8.467  24.557  53.136  1.00  0.00    -0.206 F 
HETATM   17  C   UNL     1       7.583  26.733  53.343  1.00  0.00     0.043 A 
HETATM   18  C   UNL     1       6.526  27.623  53.144  1.00  0.00     0.011 A 
ENDBRANCH  11  12
BRANCH   1  19
HETATM   19  C   UNL     1       2.835  28.628  50.256  1.00  0.00     0.267 C 
HETATM   20  O   UNL     1       1.835  29.126  50.758  1.00  0.00    -0.265 OA
BRANCH  19  21
HETATM   21  O   UNL     1       2.853  27.956  49.079  1.00  0.00    -0.316 OA
BRANCH  21  22
HETATM   22  C   UNL     1       4.036  27.178  48.801  1.00  0.00     0.123 C 
HETATM   23  C   UNL     1       4.696  27.672  47.518  1.00  0.00     0.040 C 
HETATM   24  C   UNL     1       3.588  25.730  48.648  1.00  0.00     0.040 C 
ENDBRANCH  21  22
ENDBRANCH  19  21
ENDBRANCH   1  19
BRANCH   2  25
HETATM   25  O   UNL     1       6.227  30.150  51.015  1.00  0.00    -0.389 OA
HETATM   26  H   UNL     1       6.455  29.237  51.267  1.00  0.00     0.210 HD
ENDBRANCH   2  25
BRANCH   7  27
HETATM   27  O   UNL     1       3.861  27.907  55.536  1.00  0.00    -0.343 OA
HETATM   28  H   UNL     1       3.736  27.129  54.973  1.00  0.00     0.219 HD
ENDBRANCH   7  27
TORSDOF 6
ENDMDL
MODEL 9
REMARK VINA RESULT:      -7.6      9.886     12.489
REMARK  6 active torsions:
REMARK  status: ('A' for Active; 'I' for Inactive)
REMARK    1  A    between atoms: C_2  and  O_3 
REMARK    2  A    between atoms: O_3  and  C_4 
REMARK    3  A    between atoms: C_4  and  C_5 
REMARK    4  A    between atoms: C_6  and  O_7 
REMARK    5  A    between atoms: C_12  and  O_13 
REMARK    6  A    between atoms: C_17  and  C_18 
ROOT
HETATM    1  C   UNL     1       5.742  36.294  62.585  1.00  0.00     0.133 C 
HETATM    2  C   UNL     1       5.288  36.648  64.040  1.00  0.00     0.073 C 
HETATM    3  C   UNL     1       5.620  38.096  64.432  1.00  0.00     0.047 C 
HETATM    4  C   UNL     1       3.788  36.355  64.334  1.00  0.00     0.097 C 
HETATM    5  C   UNL     1       3.384  35.080  63.690  1.00  0.00     0.042 A 
HETATM    6  C   UNL     1       4.036  34.413  62.675  1.00  0.00     0.030 A 
HETATM    7  C   UNL     1       3.225  33.289  62.457  1.00  0.00     0.190 A 
HETATM    8  N   UNL     1       2.155  33.242  63.242  1.00  0.00    -0.149 NA
HETATM    9  N   UNL     1       2.282  34.341  64.006  1.00  0.00    -0.279 N 
HETATM   10  H   UNL     1       1.577  34.518  64.714  1.00  0.00     0.189 HD
HETATM   11  C   UNL     1       5.282  34.914  62.030  1.00  0.00     0.074 C 
ENDROOT
BRANCH  11  12
HETATM   12  C   UNL     1       6.349  33.834  62.162  1.00  0.00    -0.048 A 
HETATM   13  C   UNL     1       6.777  33.168  60.996  1.00  0.00     0.011 A 
HETATM   14  C   UNL     1       7.772  32.191  61.052  1.00  0.00     0.043 A 
HETATM   15  C   UNL     1       8.355  31.878  62.272  1.00  0.00     0.116 A 
HETATM   16  F   UNL     1       9.313  30.944  62.323  1.00  0.00    -0.206 F 
HETATM   17  C   UNL     1       7.963  32.524  63.435  1.00  0.00     0.043 A 
HETATM   18  C   UNL     1       6.966  33.501  63.381  1.00  0.00     0.011 A 
ENDBRANCH  11  12
BRANCH   1  19
HETATM   19  C   UNL     1       5.371  37.325  61.540  1.00  0.00     0.267 C 
HETATM   20  O   UNL     1       4.223  37.465  61.135  1.00  0.00    -0.265 OA
BRANCH  19  21
HETATM   21  O   UNL     1       6.418  38.105  61.174  1.00  0.00    -0.316 OA
BRANCH  21  22
HETATM   22  C   UNL     1       6.161  39.521  61.076  1.00  0.00     0.123 C 
HETATM   23  C   UNL     1       6.122  39.944  59.611  1.00  0.00     0.040 C 
HETATM   24  C   UNL     1       7.296  40.229  61.805  1.00  0.00     0.040 C 
ENDBRANCH  21  22
ENDBRANCH  19  21
ENDBRANCH   1  19
BRANCH   2  25
HETATM   25  O   UNL     1       6.052  35.834  64.962  1.00  0.00    -0.389 OA
HETATM   26  H   UNL     1       6.819  35.462  64.490  1.00  0.00     0.210 HD
ENDBRANCH   2  25
BRANCH   7  27
HETATM   27  O   UNL     1       3.382  32.276  61.602  1.00  0.00    -0.343 OA
HETATM   28  H   UNL     1       4.189  31.790  61.825  1.00  0.00     0.219 HD
ENDBRANCH   7  27
TORSDOF 6
ENDMDL
MODEL 10
REMARK VINA RESULT:      -7.4      9.907     12.336
REMARK  6 active torsions:
REMARK  status: ('A' for Active; 'I' for Inactive)
REMARK    1  A    between atoms: C_2  and  O_3 
REMARK    2  A    between atoms: O_3  and  C_4 
REMARK    3  A    between atoms: C_4  and  C_5 
REMARK    4  A    between atoms: C_6  and  O_7 
REMARK    5  A    between atoms: C_12  and  O_13 
REMARK    6  A    between atoms: C_17  and  C_18 
ROOT
HETATM    1  C   UNL     1       5.683  36.301  62.218  1.00  0.00     0.133 C 
HETATM    2  C   UNL     1       5.397  36.820  63.666  1.00  0.00     0.073 C 
HETATM    3  C   UNL     1       5.787  38.294  63.858  1.00  0.00     0.047 C 
HETATM    4  C   UNL     1       3.937  36.596  64.152  1.00  0.00     0.097 C 
HETATM    5  C   UNL     1       3.450  35.269  63.700  1.00  0.00     0.042 A 
HETATM    6  C   UNL     1       3.977  34.481  62.699  1.00  0.00     0.030 A 
HETATM    7  C   UNL     1       3.134  33.359  62.696  1.00  0.00     0.190 A 
HETATM    8  N   UNL     1       2.158  33.421  63.594  1.00  0.00    -0.149 NA
HETATM    9  N   UNL     1       2.381  34.593  64.214  1.00  0.00    -0.279 N 
HETATM   10  H   UNL     1       1.762  34.862  64.971  1.00  0.00     0.189 HD
HETATM   11  C   UNL     1       5.149  34.881  61.871  1.00  0.00     0.074 C 
ENDROOT
BRANCH  11  12
HETATM   12  C   UNL     1       6.212  33.797  62.003  1.00  0.00    -0.048 A 
HETATM   13  C   UNL     1       6.817  33.601  63.261  1.00  0.00     0.011 A 
HETATM   14  C   UNL     1       7.775  32.604  63.449  1.00  0.00     0.043 A 
HETATM   15  C   UNL     1       8.130  31.787  62.384  1.00  0.00     0.116 A 
HETATM   16  F   UNL     1       9.046  30.827  62.566  1.00  0.00    -0.206 F 
HETATM   17  C   UNL     1       7.544  31.949  61.137  1.00  0.00     0.043 A 
HETATM   18  C   UNL     1       6.587  32.948  60.947  1.00  0.00     0.011 A 
ENDBRANCH  11  12
BRANCH   1  19
HETATM   19  C   UNL     1       5.209  37.222  61.113  1.00  0.00     0.267 C 
HETATM   20  O   UNL     1       5.821  38.234  60.793  1.00  0.00    -0.265 OA
BRANCH  19  21
HETATM   21  O   UNL     1       4.098  36.764  60.485  1.00  0.00    -0.316 OA
BRANCH  21  22
HETATM   22  C   UNL     1       4.038  36.962  59.058  1.00  0.00     0.123 C 
HETATM   23  C   UNL     1       2.797  37.771  58.694  1.00  0.00     0.040 C 
HETATM   24  C   UNL     1       3.979  35.580  58.420  1.00  0.00     0.040 C 
ENDBRANCH  21  22
ENDBRANCH  19  21
ENDBRANCH   1  19
BRANCH   2  25
HETATM   25  O   UNL     1       6.250  36.093  64.582  1.00  0.00    -0.389 OA
HETATM   26  H   UNL     1       6.577  35.291  64.136  1.00  0.00     0.210 HD
ENDBRANCH   2  25
BRANCH   7  27
HETATM   27  O   UNL     1       3.184  32.257  61.945  1.00  0.00    -0.343 OA
HETATM   28  H   UNL     1       3.718  31.585  62.395  1.00  0.00     0.219 HD
ENDBRANCH   7  27
TORSDOF 6
ENDMDL
