MODEL 1
REMARK VINA RESULT:      -9.6      0.000      0.000
REMARK  8 active torsions:
REMARK  status: ('A' for Active; 'I' for Inactive)
REMARK    1  A    between atoms: C_6  and  N_7 
REMARK    2  A    between atoms: C_6  and  C_26 
REMARK       I    between atoms: N_7  and  C_8 
REMARK    3  A    between atoms: N_7  and  C_23 
REMARK    4  A    between atoms: C_8  and  C_9 
REMARK    5  A    between atoms: C_9  and  N_10 
REMARK    6  A    between atoms: C_14  and  C_15 
REMARK       I    between atoms: C_26  and  N_27 
REMARK    7  A    between atoms: N_27  and  C_28 
REMARK    8  A    between atoms: C_31  and  N_32 
ROOT
HETATM    1  C   UNL     1       0.471  28.204  46.149  1.00  0.00     0.269 C 
HETATM    2  N   UNL     1       1.117  28.096  47.509  1.00  0.00    -0.075 N 
HETATM    3  H   UNL     1       0.426  27.640  48.121  1.00  0.00     0.279 HD
HETATM    4  C   UNL     1       2.335  27.218  47.449  1.00  0.00     0.237 C 
HETATM    5  C   UNL     1       2.998  27.120  48.818  1.00  0.00     0.069 C 
HETATM    6  C   UNL     1       3.321  28.478  49.511  1.00  0.00     0.120 C 
HETATM    7  C   UNL     1       2.019  29.330  49.459  1.00  0.00     0.069 C 
HETATM    8  C   UNL     1       1.419  29.456  48.065  1.00  0.00     0.237 C 
ENDROOT
BRANCH   6   9
HETATM    9  N   UNL     1       3.809  28.247  50.929  1.00  0.00    -0.328 N 
HETATM   10  C   UNL     1       4.731  27.204  51.145  1.00  0.00     0.239 C 
HETATM   11  O   UNL     1       5.399  26.757  50.210  1.00  0.00    -0.271 OA
BRANCH  10  12
HETATM   12  C   UNL     1       4.873  26.618  52.564  1.00  0.00     0.228 C 
BRANCH  12  13
HETATM   13  N   UNL     1       6.110  25.873  52.781  1.00  0.00    -0.347 N 
HETATM   14  C   UNL     1       7.191  26.296  53.563  1.00  0.00     0.171 C 
HETATM   15  S   UNL     1       7.502  27.785  54.211  1.00  0.00    -0.041 SA
HETATM   16  N   UNL     1       8.036  25.217  53.749  1.00  0.00    -0.357 N 
HETATM   17  C   UNL     1       7.594  24.060  53.011  1.00  0.00     0.135 C 
HETATM   18  H   UNL     1       8.934  25.299  54.210  1.00  0.00     0.162 HD
HETATM   19  C   UNL     1       6.140  24.415  52.673  1.00  0.00     0.155 C 
BRANCH  17  20
HETATM   20  C   UNL     1       7.774  22.767  53.761  1.00  0.00    -0.034 A 
HETATM   21  C   UNL     1       8.051  21.560  53.101  1.00  0.00     0.009 A 
HETATM   22  C   UNL     1       8.203  20.373  53.820  1.00  0.00     0.001 A 
HETATM   23  C   UNL     1       8.092  20.379  55.208  1.00  0.00     0.000 A 
HETATM   24  C   UNL     1       7.833  21.572  55.880  1.00  0.00     0.001 A 
HETATM   25  C   UNL     1       7.678  22.759  55.162  1.00  0.00     0.009 A 
ENDBRANCH  17  20
ENDBRANCH  12  13
ENDBRANCH  10  12
BRANCH   9  26
HETATM   26  C   UNL     1       3.225  28.983  52.037  1.00  0.00     0.088 A 
HETATM   27  C   UNL     1       4.112  29.759  52.989  1.00  0.00     0.027 A 
HETATM   28  C   UNL     1       3.156  30.493  52.116  1.00  0.00     0.027 A 
ENDBRANCH   9  26
ENDBRANCH   6   9
BRANCH   6  29
HETATM   29  C   UNL     1       4.384  29.287  48.700  1.00  0.00     0.251 C 
HETATM   30  N   UNL     1       4.485  30.609  49.084  1.00  0.00    -0.325 N 
HETATM   31  H   UNL     1       4.246  30.807  50.050  1.00  0.00     0.169 HD
HETATM   32  O   UNL     1       4.847  28.816  47.662  1.00  0.00    -0.270 OA
BRANCH  30  33
HETATM   33  C   UNL     1       4.884  31.705  48.294  1.00  0.00     0.034 A 
HETATM   34  C   UNL     1       4.191  32.149  47.175  1.00  0.00     0.032 A 
HETATM   35  C   UNL     1       4.596  33.313  46.502  1.00  0.00     0.031 A 
HETATM   36  C   UNL     1       5.692  34.082  46.919  1.00  0.00     0.030 A 
HETATM   37  C   UNL     1       6.401  33.592  48.022  1.00  0.00     0.031 A 
HETATM   38  C   UNL     1       6.005  32.428  48.704  1.00  0.00     0.032 A 
BRANCH  36  39
HETATM   39  N   UNL     1       6.052  35.227  46.214  1.00  0.00    -0.377 N 
HETATM   40  C   UNL     1       7.222  36.004  46.695  1.00  0.00     0.149 C 
HETATM   41  C   UNL     1       8.498  35.551  45.962  1.00  0.00     0.187 C 
HETATM   42  O   UNL     1       8.358  35.668  44.536  1.00  0.00    -0.388 OA
HETATM   43  C   UNL     1       7.249  34.881  44.067  1.00  0.00     0.187 C 
HETATM   44  C   UNL     1       5.934  35.305  44.743  1.00  0.00     0.149 C 
ENDBRANCH  36  39
ENDBRANCH  30  33
ENDBRANCH   6  29
TORSDOF 8
ENDMDL
MODEL 2
REMARK VINA RESULT:      -9.3      7.420     10.676
REMARK  8 active torsions:
REMARK  status: ('A' for Active; 'I' for Inactive)
REMARK    1  A    between atoms: C_6  and  N_7 
REMARK    2  A    between atoms: C_6  and  C_26 
REMARK       I    between atoms: N_7  and  C_8 
REMARK    3  A    between atoms: N_7  and  C_23 
REMARK    4  A    between atoms: C_8  and  C_9 
REMARK    5  A    between atoms: C_9  and  N_10 
REMARK    6  A    between atoms: C_14  and  C_15 
REMARK       I    between atoms: C_26  and  N_27 
REMARK    7  A    between atoms: N_27  and  C_28 
REMARK    8  A    between atoms: C_31  and  N_32 
ROOT
HETATM    1  C   UNL     1       2.130  33.973  54.625  1.00  0.00     0.269 C 
HETATM    2  N   UNL     1       3.016  32.799  54.966  1.00  0.00    -0.075 N 
HETATM    3  H   UNL     1       3.255  32.349  54.071  1.00  0.00     0.279 HD
HETATM    4  C   UNL     1       4.293  33.266  55.605  1.00  0.00     0.237 C 
HETATM    5  C   UNL     1       5.182  32.082  55.964  1.00  0.00     0.069 C 
HETATM    6  C   UNL     1       4.508  30.963  56.813  1.00  0.00     0.120 C 
HETATM    7  C   UNL     1       3.171  30.603  56.102  1.00  0.00     0.069 C 
HETATM    8  C   UNL     1       2.281  31.805  55.815  1.00  0.00     0.237 C 
ENDROOT
BRANCH   6   9
HETATM    9  N   UNL     1       5.435  29.769  56.950  1.00  0.00    -0.328 N 
HETATM   10  C   UNL     1       5.180  28.644  56.142  1.00  0.00     0.239 C 
HETATM   11  O   UNL     1       4.502  28.750  55.117  1.00  0.00    -0.271 OA
BRANCH  10  12
HETATM   12  C   UNL     1       5.746  27.275  56.571  1.00  0.00     0.228 C 
BRANCH  12  13
HETATM   13  N   UNL     1       6.168  26.428  55.460  1.00  0.00    -0.347 N 
HETATM   14  C   UNL     1       7.199  26.719  54.558  1.00  0.00     0.171 C 
HETATM   15  S   UNL     1       8.014  28.136  54.313  1.00  0.00    -0.041 SA
HETATM   16  N   UNL     1       7.479  25.571  53.840  1.00  0.00    -0.357 N 
HETATM   17  C   UNL     1       6.573  24.499  54.172  1.00  0.00     0.135 C 
HETATM   18  H   UNL     1       8.130  25.556  53.064  1.00  0.00     0.162 HD
HETATM   19  C   UNL     1       5.955  24.982  55.490  1.00  0.00     0.155 C 
BRANCH  17  20
HETATM   20  C   UNL     1       7.240  23.151  54.240  1.00  0.00    -0.034 A 
HETATM   21  C   UNL     1       7.544  22.536  55.465  1.00  0.00     0.009 A 
HETATM   22  C   UNL     1       8.172  21.290  55.500  1.00  0.00     0.001 A 
HETATM   23  C   UNL     1       8.493  20.636  54.313  1.00  0.00     0.000 A 
HETATM   24  C   UNL     1       8.184  21.226  53.089  1.00  0.00     0.001 A 
HETATM   25  C   UNL     1       7.559  22.474  53.053  1.00  0.00     0.009 A 
ENDBRANCH  17  20
ENDBRANCH  12  13
ENDBRANCH  10  12
BRANCH   9  26
HETATM   26  C   UNL     1       6.450  29.742  57.988  1.00  0.00     0.088 A 
HETATM   27  C   UNL     1       7.861  29.294  57.663  1.00  0.00     0.027 A 
HETATM   28  C   UNL     1       7.615  30.705  58.067  1.00  0.00     0.027 A 
ENDBRANCH   9  26
ENDBRANCH   6   9
BRANCH   6  29
HETATM   29  C   UNL     1       4.102  31.494  58.225  1.00  0.00     0.251 C 
HETATM   30  N   UNL     1       4.800  32.620  58.615  1.00  0.00    -0.325 N 
HETATM   31  H   UNL     1       5.129  33.218  57.864  1.00  0.00     0.169 HD
HETATM   32  O   UNL     1       3.431  30.786  58.975  1.00  0.00    -0.270 OA
BRANCH  30  33
HETATM   33  C   UNL     1       5.101  33.033  59.928  1.00  0.00     0.034 A 
HETATM   34  C   UNL     1       6.259  32.674  60.609  1.00  0.00     0.032 A 
HETATM   35  C   UNL     1       6.534  33.211  61.876  1.00  0.00     0.031 A 
HETATM   36  C   UNL     1       5.683  34.129  62.508  1.00  0.00     0.030 A 
HETATM   37  C   UNL     1       4.503  34.442  61.822  1.00  0.00     0.031 A 
HETATM   38  C   UNL     1       4.215  33.911  60.553  1.00  0.00     0.032 A 
BRANCH  36  39
HETATM   39  N   UNL     1       6.003  34.631  63.766  1.00  0.00    -0.377 N 
HETATM   40  C   UNL     1       5.548  36.001  64.109  1.00  0.00     0.149 C 
HETATM   41  C   UNL     1       4.194  35.944  64.839  1.00  0.00     0.187 C 
HETATM   42  O   UNL     1       4.261  35.120  66.015  1.00  0.00    -0.388 OA
HETATM   43  C   UNL     1       4.663  33.781  65.675  1.00  0.00     0.187 C 
HETATM   44  C   UNL     1       6.027  33.766  64.965  1.00  0.00     0.149 C 
ENDBRANCH  36  39
ENDBRANCH  30  33
ENDBRANCH   6  29
TORSDOF 8
ENDMDL
MODEL 3
REMARK VINA RESULT:      -9.2      5.503      9.362
REMARK  8 active torsions:
REMARK  status: ('A' for Active; 'I' for Inactive)
REMARK    1  A    between atoms: C_6  and  N_7 
REMARK    2  A    between atoms: C_6  and  C_26 
REMARK       I    between atoms: N_7  and  C_8 
REMARK    3  A    between atoms: N_7  and  C_23 
REMARK    4  A    between atoms: C_8  and  C_9 
REMARK    5  A    between atoms: C_9  and  N_10 
REMARK    6  A    between atoms: C_14  and  C_15 
REMARK       I    between atoms: C_26  and  N_27 
REMARK    7  A    between atoms: N_27  and  C_28 
REMARK    8  A    between atoms: C_31  and  N_32 
ROOT
HETATM    1  C   UNL     1       8.125  22.750  57.080  1.00  0.00     0.269 C 
HETATM    2  N   UNL     1       7.791  24.222  57.098  1.00  0.00    -0.075 N 
HETATM    3  H   UNL     1       8.107  24.578  58.012  1.00  0.00     0.279 HD
HETATM    4  C   UNL     1       8.553  24.952  56.028  1.00  0.00     0.237 C 
HETATM    5  C   UNL     1       8.206  26.436  56.035  1.00  0.00     0.069 C 
HETATM    6  C   UNL     1       6.687  26.775  55.971  1.00  0.00     0.120 C 
HETATM    7  C   UNL     1       5.988  25.921  57.069  1.00  0.00     0.069 C 
HETATM    8  C   UNL     1       6.310  24.435  56.993  1.00  0.00     0.237 C 
ENDROOT
BRANCH   6   9
HETATM    9  N   UNL     1       6.467  28.264  56.163  1.00  0.00    -0.328 N 
HETATM   10  C   UNL     1       7.584  29.114  56.048  1.00  0.00     0.239 C 
HETATM   11  O   UNL     1       8.596  28.739  55.451  1.00  0.00    -0.271 OA
BRANCH  10  12
HETATM   12  C   UNL     1       7.528  30.510  56.700  1.00  0.00     0.228 C 
BRANCH  12  13
HETATM   13  N   UNL     1       7.978  30.539  58.089  1.00  0.00    -0.347 N 
HETATM   14  C   UNL     1       9.294  30.751  58.517  1.00  0.00     0.171 C 
HETATM   15  S   UNL     1      10.697  30.753  57.642  1.00  0.00    -0.041 SA
HETATM   16  N   UNL     1       9.271  30.984  59.879  1.00  0.00    -0.357 N 
HETATM   17  C   UNL     1       7.944  30.838  60.424  1.00  0.00     0.135 C 
HETATM   18  H   UNL     1      10.115  31.077  60.433  1.00  0.00     0.162 HD
HETATM   19  C   UNL     1       7.061  30.895  59.171  1.00  0.00     0.155 C 
BRANCH  17  20
HETATM   20  C   UNL     1       7.614  31.859  61.480  1.00  0.00    -0.034 A 
HETATM   21  C   UNL     1       6.677  32.878  61.257  1.00  0.00     0.009 A 
HETATM   22  C   UNL     1       6.396  33.818  62.251  1.00  0.00     0.001 A 
HETATM   23  C   UNL     1       7.040  33.745  63.483  1.00  0.00     0.000 A 
HETATM   24  C   UNL     1       7.962  32.729  63.726  1.00  0.00     0.001 A 
HETATM   25  C   UNL     1       8.245  31.790  62.733  1.00  0.00     0.009 A 
ENDBRANCH  17  20
ENDBRANCH  12  13
ENDBRANCH  10  12
BRANCH   9  26
HETATM   26  C   UNL     1       5.176  28.766  56.599  1.00  0.00     0.088 A 
HETATM   27  C   UNL     1       4.480  29.861  55.817  1.00  0.00     0.027 A 
HETATM   28  C   UNL     1       3.870  28.505  55.878  1.00  0.00     0.027 A 
ENDBRANCH   9  26
ENDBRANCH   6   9
BRANCH   6  29
HETATM   29  C   UNL     1       6.062  26.309  54.617  1.00  0.00     0.251 C 
HETATM   30  N   UNL     1       6.442  27.080  53.536  1.00  0.00    -0.325 N 
HETATM   31  H   UNL     1       7.351  27.526  53.611  1.00  0.00     0.169 HD
HETATM   32  O   UNL     1       5.124  25.512  54.619  1.00  0.00    -0.270 OA
BRANCH  30  33
HETATM   33  C   UNL     1       5.720  27.312  52.348  1.00  0.00     0.034 A 
HETATM   34  C   UNL     1       5.114  28.522  52.032  1.00  0.00     0.032 A 
HETATM   35  C   UNL     1       4.502  28.705  50.782  1.00  0.00     0.031 A 
HETATM   36  C   UNL     1       4.478  27.704  49.800  1.00  0.00     0.030 A 
HETATM   37  C   UNL     1       5.056  26.480  50.158  1.00  0.00     0.031 A 
HETATM   38  C   UNL     1       5.672  26.284  51.406  1.00  0.00     0.032 A 
BRANCH  36  39
HETATM   39  N   UNL     1       3.856  27.937  48.577  1.00  0.00    -0.377 N 
HETATM   40  C   UNL     1       3.891  26.859  47.557  1.00  0.00     0.149 C 
HETATM   41  C   UNL     1       2.625  25.989  47.662  1.00  0.00     0.187 C 
HETATM   42  O   UNL     1       1.429  26.776  47.531  1.00  0.00    -0.388 OA
HETATM   43  C   UNL     1       1.378  27.795  48.545  1.00  0.00     0.187 C 
HETATM   44  C   UNL     1       2.605  28.720  48.477  1.00  0.00     0.149 C 
ENDBRANCH  36  39
ENDBRANCH  30  33
ENDBRANCH   6  29
TORSDOF 8
ENDMDL
MODEL 4
REMARK VINA RESULT:      -8.6      9.182     13.221
REMARK  8 active torsions:
REMARK  status: ('A' for Active; 'I' for Inactive)
REMARK    1  A    between atoms: C_6  and  N_7 
REMARK    2  A    between atoms: C_6  and  C_26 
REMARK       I    between atoms: N_7  and  C_8 
REMARK    3  A    between atoms: N_7  and  C_23 
REMARK    4  A    between atoms: C_8  and  C_9 
REMARK    5  A    between atoms: C_9  and  N_10 
REMARK    6  A    between atoms: C_14  and  C_15 
REMARK       I    between atoms: C_26  and  N_27 
REMARK    7  A    between atoms: N_27  and  C_28 
REMARK    8  A    between atoms: C_31  and  N_32 
ROOT
HETATM    1  C   UNL     1       3.136  34.923  55.569  1.00  0.00     0.269 C 
HETATM    2  N   UNL     1       3.826  34.582  56.867  1.00  0.00    -0.075 N 
HETATM    3  H   UNL     1       4.223  35.463  57.222  1.00  0.00     0.279 HD
HETATM    4  C   UNL     1       2.836  34.078  57.878  1.00  0.00     0.237 C 
HETATM    5  C   UNL     1       3.533  33.719  59.184  1.00  0.00     0.069 C 
HETATM    6  C   UNL     1       4.746  32.749  59.059  1.00  0.00     0.120 C 
HETATM    7  C   UNL     1       5.670  33.327  57.946  1.00  0.00     0.069 C 
HETATM    8  C   UNL     1       4.950  33.615  56.635  1.00  0.00     0.237 C 
ENDROOT
BRANCH   6   9
HETATM    9  N   UNL     1       5.458  32.613  60.392  1.00  0.00    -0.328 N 
HETATM   10  C   UNL     1       4.671  32.628  61.561  1.00  0.00     0.239 C 
HETATM   11  O   UNL     1       3.465  32.376  61.506  1.00  0.00    -0.271 OA
BRANCH  10  12
HETATM   12  C   UNL     1       5.339  32.987  62.904  1.00  0.00     0.228 C 
BRANCH  12  13
HETATM   13  N   UNL     1       5.137  34.371  63.320  1.00  0.00    -0.347 N 
HETATM   14  C   UNL     1       5.219  34.849  64.634  1.00  0.00     0.171 C 
HETATM   15  S   UNL     1       5.288  34.009  66.056  1.00  0.00    -0.041 SA
HETATM   16  N   UNL     1       5.245  36.231  64.588  1.00  0.00    -0.357 N 
HETATM   17  C   UNL     1       5.081  36.724  63.243  1.00  0.00     0.135 C 
HETATM   18  H   UNL     1       5.214  36.806  65.421  1.00  0.00     0.162 HD
HETATM   19  C   UNL     1       5.368  35.479  62.394  1.00  0.00     0.155 C 
BRANCH  17  20
HETATM   20  C   UNL     1       5.944  37.917  62.933  1.00  0.00    -0.034 A 
HETATM   21  C   UNL     1       6.473  38.135  61.651  1.00  0.00     0.009 A 
HETATM   22  C   UNL     1       7.280  39.245  61.393  1.00  0.00     0.001 A 
HETATM   23  C   UNL     1       7.558  40.157  62.407  1.00  0.00     0.000 A 
HETATM   24  C   UNL     1       7.028  39.963  63.681  1.00  0.00     0.001 A 
HETATM   25  C   UNL     1       6.224  38.852  63.942  1.00  0.00     0.009 A 
ENDBRANCH  17  20
ENDBRANCH  12  13
ENDBRANCH  10  12
BRANCH   9  26
HETATM   26  C   UNL     1       6.908  32.620  60.456  1.00  0.00     0.088 A 
HETATM   27  C   UNL     1       7.650  31.458  61.086  1.00  0.00     0.027 A 
HETATM   28  C   UNL     1       7.803  31.722  59.629  1.00  0.00     0.027 A 
ENDBRANCH   9  26
ENDBRANCH   6   9
BRANCH   6  29
HETATM   29  C   UNL     1       4.295  31.345  58.543  1.00  0.00     0.251 C 
HETATM   30  N   UNL     1       5.326  30.590  58.020  1.00  0.00    -0.325 N 
HETATM   31  H   UNL     1       6.248  30.779  58.399  1.00  0.00     0.169 HD
HETATM   32  O   UNL     1       3.098  31.106  58.390  1.00  0.00    -0.270 OA
BRANCH  30  33
HETATM   33  C   UNL     1       5.243  29.590  57.030  1.00  0.00     0.034 A 
HETATM   34  C   UNL     1       4.943  29.842  55.696  1.00  0.00     0.032 A 
HETATM   35  C   UNL     1       4.981  28.804  54.751  1.00  0.00     0.031 A 
HETATM   36  C   UNL     1       5.329  27.489  55.089  1.00  0.00     0.030 A 
HETATM   37  C   UNL     1       5.584  27.251  56.445  1.00  0.00     0.031 A 
HETATM   38  C   UNL     1       5.549  28.281  57.401  1.00  0.00     0.032 A 
BRANCH  36  39
HETATM   39  N   UNL     1       5.351  26.497  54.113  1.00  0.00    -0.377 N 
HETATM   40  C   UNL     1       6.110  26.760  52.865  1.00  0.00     0.149 C 
HETATM   41  C   UNL     1       7.542  26.208  52.989  1.00  0.00     0.187 C 
HETATM   42  O   UNL     1       7.543  24.804  53.301  1.00  0.00    -0.388 OA
HETATM   43  C   UNL     1       6.841  24.556  54.531  1.00  0.00     0.187 C 
HETATM   44  C   UNL     1       5.389  25.061  54.463  1.00  0.00     0.149 C 
ENDBRANCH  36  39
ENDBRANCH  30  33
ENDBRANCH   6  29
TORSDOF 8
ENDMDL
MODEL 5
REMARK VINA RESULT:      -8.6      3.515      8.806
REMARK  8 active torsions:
REMARK  status: ('A' for Active; 'I' for Inactive)
REMARK    1  A    between atoms: C_6  and  N_7 
REMARK    2  A    between atoms: C_6  and  C_26 
REMARK       I    between atoms: N_7  and  C_8 
REMARK    3  A    between atoms: N_7  and  C_23 
REMARK    4  A    between atoms: C_8  and  C_9 
REMARK    5  A    between atoms: C_9  and  N_10 
REMARK    6  A    between atoms: C_14  and  C_15 
REMARK       I    between atoms: C_26  and  N_27 
REMARK    7  A    between atoms: N_27  and  C_28 
REMARK    8  A    between atoms: C_31  and  N_32 
ROOT
HETATM    1  C   UNL     1       1.881  26.762  46.898  1.00  0.00     0.269 C 
HETATM    2  N   UNL     1       2.209  28.002  47.694  1.00  0.00    -0.075 N 
HETATM    3  H   UNL     1       1.659  28.766  47.277  1.00  0.00     0.279 HD
HETATM    4  C   UNL     1       1.776  27.845  49.124  1.00  0.00     0.237 C 
HETATM    5  C   UNL     1       2.121  29.090  49.933  1.00  0.00     0.069 C 
HETATM    6  C   UNL     1       3.603  29.563  49.846  1.00  0.00     0.120 C 
HETATM    7  C   UNL     1       3.967  29.627  48.334  1.00  0.00     0.069 C 
HETATM    8  C   UNL     1       3.665  28.344  47.571  1.00  0.00     0.237 C 
ENDROOT
BRANCH   6   9
HETATM    9  N   UNL     1       3.776  30.899  50.543  1.00  0.00    -0.328 N 
HETATM   10  C   UNL     1       3.111  31.090  51.770  1.00  0.00     0.239 C 
HETATM   11  O   UNL     1       2.734  30.122  52.435  1.00  0.00    -0.271 OA
BRANCH  10  12
HETATM   12  C   UNL     1       2.846  32.529  52.257  1.00  0.00     0.228 C 
BRANCH  12  13
HETATM   13  N   UNL     1       3.259  32.779  53.635  1.00  0.00    -0.347 N 
HETATM   14  C   UNL     1       2.402  32.902  54.735  1.00  0.00     0.171 C 
HETATM   15  S   UNL     1       0.758  33.073  54.774  1.00  0.00    -0.041 SA
HETATM   16  N   UNL     1       3.168  32.852  55.885  1.00  0.00    -0.357 N 
HETATM   17  C   UNL     1       4.577  32.793  55.587  1.00  0.00     0.135 C 
HETATM   18  H   UNL     1       2.780  33.010  56.808  1.00  0.00     0.162 HD
HETATM   19  C   UNL     1       4.587  32.388  54.107  1.00  0.00     0.155 C 
BRANCH  17  20
HETATM   20  C   UNL     1       5.345  31.875  56.501  1.00  0.00    -0.034 A 
HETATM   21  C   UNL     1       5.697  30.573  56.117  1.00  0.00     0.009 A 
HETATM   22  C   UNL     1       6.401  29.739  56.987  1.00  0.00     0.001 A 
HETATM   23  C   UNL     1       6.773  30.200  58.248  1.00  0.00     0.000 A 
HETATM   24  C   UNL     1       6.444  31.496  58.638  1.00  0.00     0.001 A 
HETATM   25  C   UNL     1       5.737  32.330  57.769  1.00  0.00     0.009 A 
ENDBRANCH  17  20
ENDBRANCH  12  13
ENDBRANCH  10  12
BRANCH   9  26
HETATM   26  C   UNL     1       4.479  31.986  49.886  1.00  0.00     0.088 A 
HETATM   27  C   UNL     1       5.900  32.328  50.287  1.00  0.00     0.027 A 
HETATM   28  C   UNL     1       5.631  31.798  48.922  1.00  0.00     0.027 A 
ENDBRANCH   9  26
ENDBRANCH   6   9
BRANCH   6  29
HETATM   29  C   UNL     1       4.571  28.503  50.465  1.00  0.00     0.251 C 
HETATM   30  N   UNL     1       3.967  27.677  51.392  1.00  0.00    -0.325 N 
HETATM   31  H   UNL     1       2.972  27.521  51.262  1.00  0.00     0.169 HD
HETATM   32  O   UNL     1       5.786  28.622  50.312  1.00  0.00    -0.270 OA
BRANCH  30  33
HETATM   33  C   UNL     1       4.571  27.026  52.486  1.00  0.00     0.034 A 
HETATM   34  C   UNL     1       4.786  27.622  53.722  1.00  0.00     0.032 A 
HETATM   35  C   UNL     1       5.299  26.875  54.794  1.00  0.00     0.031 A 
HETATM   36  C   UNL     1       5.606  25.511  54.683  1.00  0.00     0.030 A 
HETATM   37  C   UNL     1       5.422  24.942  53.416  1.00  0.00     0.031 A 
HETATM   38  C   UNL     1       4.910  25.681  52.335  1.00  0.00     0.032 A 
BRANCH  36  39
HETATM   39  N   UNL     1       6.114  24.816  55.776  1.00  0.00    -0.377 N 
HETATM   40  C   UNL     1       6.988  23.644  55.516  1.00  0.00     0.149 C 
HETATM   41  C   UNL     1       8.466  24.074  55.520  1.00  0.00     0.187 C 
HETATM   42  O   UNL     1       8.827  24.715  56.754  1.00  0.00    -0.388 OA
HETATM   43  C   UNL     1       8.007  25.874  56.985  1.00  0.00     0.187 C 
HETATM   44  C   UNL     1       6.513  25.508  57.020  1.00  0.00     0.149 C 
ENDBRANCH  36  39
ENDBRANCH  30  33
ENDBRANCH   6  29
TORSDOF 8
ENDMDL
MODEL 6
REMARK VINA RESULT:      -8.5      1.669      2.166
REMARK  8 active torsions:
REMARK  status: ('A' for Active; 'I' for Inactive)
REMARK    1  A    between atoms: C_6  and  N_7 
REMARK    2  A    between atoms: C_6  and  C_26 
REMARK       I    between atoms: N_7  and  C_8 
REMARK    3  A    between atoms: N_7  and  C_23 
REMARK    4  A    between atoms: C_8  and  C_9 
REMARK    5  A    between atoms: C_9  and  N_10 
REMARK    6  A    between atoms: C_14  and  C_15 
REMARK       I    between atoms: C_26  and  N_27 
REMARK    7  A    between atoms: N_27  and  C_28 
REMARK    8  A    between atoms: C_31  and  N_32 
ROOT
HETATM    1  C   UNL     1      -0.130  31.774  48.673  1.00  0.00     0.269 C 
HETATM    2  N   UNL     1       0.654  31.083  49.762  1.00  0.00    -0.075 N 
HETATM    3  H   UNL     1      -0.033  30.797  50.474  1.00  0.00     0.279 HD
HETATM    4  C   UNL     1       1.318  29.844  49.233  1.00  0.00     0.237 C 
HETATM    5  C   UNL     1       2.123  29.153  50.327  1.00  0.00     0.069 C 
HETATM    6  C   UNL     1       3.143  30.053  51.086  1.00  0.00     0.120 C 
HETATM    7  C   UNL     1       2.372  31.331  51.530  1.00  0.00     0.069 C 
HETATM    8  C   UNL     1       1.630  32.028  50.398  1.00  0.00     0.237 C 
ENDROOT
BRANCH   6   9
HETATM    9  N   UNL     1       3.746  29.301  52.258  1.00  0.00    -0.328 N 
HETATM   10  C   UNL     1       4.388  28.076  51.992  1.00  0.00     0.239 C 
HETATM   11  O   UNL     1       4.783  27.811  50.854  1.00  0.00    -0.271 OA
BRANCH  10  12
HETATM   12  C   UNL     1       4.568  27.064  53.142  1.00  0.00     0.228 C 
BRANCH  12  13
HETATM   13  N   UNL     1       5.768  26.240  53.030  1.00  0.00    -0.347 N 
HETATM   14  C   UNL     1       7.050  26.602  53.461  1.00  0.00     0.171 C 
HETATM   15  S   UNL     1       7.621  28.078  53.940  1.00  0.00    -0.041 SA
HETATM   16  N   UNL     1       7.846  25.472  53.441  1.00  0.00    -0.357 N 
HETATM   17  C   UNL     1       7.145  24.334  52.899  1.00  0.00     0.135 C 
HETATM   18  H   UNL     1       8.841  25.500  53.628  1.00  0.00     0.162 HD
HETATM   19  C   UNL     1       5.679  24.782  52.970  1.00  0.00     0.155 C 
BRANCH  17  20
HETATM   20  C   UNL     1       7.450  23.046  53.616  1.00  0.00    -0.034 A 
HETATM   21  C   UNL     1       7.341  22.930  55.010  1.00  0.00     0.009 A 
HETATM   22  C   UNL     1       7.640  21.726  55.650  1.00  0.00     0.001 A 
HETATM   23  C   UNL     1       8.039  20.619  54.905  1.00  0.00     0.000 A 
HETATM   24  C   UNL     1       8.137  20.713  53.518  1.00  0.00     0.001 A 
HETATM   25  C   UNL     1       7.841  21.918  52.877  1.00  0.00     0.009 A 
ENDBRANCH  17  20
ENDBRANCH  12  13
ENDBRANCH  10  12
BRANCH   9  26
HETATM   26  C   UNL     1       3.530  29.763  53.618  1.00  0.00     0.088 A 
HETATM   27  C   UNL     1       4.662  30.403  54.395  1.00  0.00     0.027 A 
HETATM   28  C   UNL     1       3.474  31.219  54.026  1.00  0.00     0.027 A 
ENDBRANCH   9  26
ENDBRANCH   6   9
BRANCH   6  29
HETATM   29  C   UNL     1       4.272  30.556  50.131  1.00  0.00     0.251 C 
HETATM   30  N   UNL     1       4.961  31.650  50.615  1.00  0.00    -0.325 N 
HETATM   31  H   UNL     1       5.003  31.734  51.625  1.00  0.00     0.169 HD
HETATM   32  O   UNL     1       4.311  30.156  48.967  1.00  0.00    -0.270 OA
BRANCH  30  33
HETATM   33  C   UNL     1       5.613  32.654  49.870  1.00  0.00     0.034 A 
HETATM   34  C   UNL     1       6.714  32.424  49.055  1.00  0.00     0.032 A 
HETATM   35  C   UNL     1       7.243  33.457  48.265  1.00  0.00     0.031 A 
HETATM   36  C   UNL     1       6.694  34.747  48.245  1.00  0.00     0.030 A 
HETATM   37  C   UNL     1       5.612  34.966  49.107  1.00  0.00     0.031 A 
HETATM   38  C   UNL     1       5.074  33.941  49.903  1.00  0.00     0.032 A 
BRANCH  36  39
HETATM   39  N   UNL     1       7.258  35.736  47.444  1.00  0.00    -0.377 N 
HETATM   40  C   UNL     1       8.228  35.322  46.400  1.00  0.00     0.149 C 
HETATM   41  C   UNL     1       7.505  35.109  45.058  1.00  0.00     0.187 C 
HETATM   42  O   UNL     1       6.788  36.287  44.650  1.00  0.00    -0.388 OA
HETATM   43  C   UNL     1       5.821  36.663  45.645  1.00  0.00     0.187 C 
HETATM   44  C   UNL     1       6.484  36.919  47.009  1.00  0.00     0.149 C 
ENDBRANCH  36  39
ENDBRANCH  30  33
ENDBRANCH   6  29
TORSDOF 8
ENDMDL
MODEL 7
REMARK VINA RESULT:      -8.4      3.932      9.054
REMARK  8 active torsions:
REMARK  status: ('A' for Active; 'I' for Inactive)
REMARK    1  A    between atoms: C_6  and  N_7 
REMARK    2  A    between atoms: C_6  and  C_26 
REMARK       I    between atoms: N_7  and  C_8 
REMARK    3  A    between atoms: N_7  and  C_23 
REMARK    4  A    between atoms: C_8  and  C_9 
REMARK    5  A    between atoms: C_9  and  N_10 
REMARK    6  A    between atoms: C_14  and  C_15 
REMARK       I    between atoms: C_26  and  N_27 
REMARK    7  A    between atoms: N_27  and  C_28 
REMARK    8  A    between atoms: C_31  and  N_32 
ROOT
HETATM    1  C   UNL     1       7.179  23.118  55.442  1.00  0.00     0.269 C 
HETATM    2  N   UNL     1       6.962  24.420  56.174  1.00  0.00    -0.075 N 
HETATM    3  H   UNL     1       6.790  24.173  57.158  1.00  0.00     0.279 HD
HETATM    4  C   UNL     1       8.200  25.271  56.120  1.00  0.00     0.237 C 
HETATM    5  C   UNL     1       7.978  26.593  56.845  1.00  0.00     0.069 C 
HETATM    6  C   UNL     1       6.723  27.403  56.404  1.00  0.00     0.120 C 
HETATM    7  C   UNL     1       5.519  26.417  56.431  1.00  0.00     0.069 C 
HETATM    8  C   UNL     1       5.754  25.134  55.645  1.00  0.00     0.237 C 
ENDROOT
BRANCH   6   9
HETATM    9  N   UNL     1       6.516  28.600  57.314  1.00  0.00    -0.328 N 
HETATM   10  C   UNL     1       5.281  29.273  57.244  1.00  0.00     0.239 C 
HETATM   11  O   UNL     1       4.289  28.714  56.770  1.00  0.00    -0.271 OA
BRANCH  10  12
HETATM   12  C   UNL     1       5.197  30.728  57.748  1.00  0.00     0.228 C 
BRANCH  12  13
HETATM   13  N   UNL     1       4.631  31.664  56.780  1.00  0.00    -0.347 N 
HETATM   14  C   UNL     1       4.420  33.031  56.993  1.00  0.00     0.171 C 
HETATM   15  S   UNL     1       4.478  33.898  58.400  1.00  0.00    -0.041 SA
HETATM   16  N   UNL     1       4.140  33.618  55.773  1.00  0.00    -0.357 N 
HETATM   17  C   UNL     1       4.057  32.641  54.716  1.00  0.00     0.135 C 
HETATM   18  H   UNL     1       3.864  34.589  55.684  1.00  0.00     0.162 HD
HETATM   19  C   UNL     1       4.733  31.415  55.342  1.00  0.00     0.155 C 
BRANCH  17  20
HETATM   20  C   UNL     1       4.664  33.108  53.420  1.00  0.00    -0.034 A 
HETATM   21  C   UNL     1       4.356  32.496  52.195  1.00  0.00     0.009 A 
HETATM   22  C   UNL     1       4.940  32.942  51.009  1.00  0.00     0.001 A 
HETATM   23  C   UNL     1       5.831  34.013  51.029  1.00  0.00     0.000 A 
HETATM   24  C   UNL     1       6.135  34.641  52.234  1.00  0.00     0.001 A 
HETATM   25  C   UNL     1       5.553  34.194  53.422  1.00  0.00     0.009 A 
ENDBRANCH  17  20
ENDBRANCH  12  13
ENDBRANCH  10  12
BRANCH   9  26
HETATM   26  C   UNL     1       7.614  29.113  58.115  1.00  0.00     0.088 A 
HETATM   27  C   UNL     1       8.807  29.762  57.445  1.00  0.00     0.027 A 
HETATM   28  C   UNL     1       7.915  30.583  58.308  1.00  0.00     0.027 A 
ENDBRANCH   9  26
ENDBRANCH   6   9
BRANCH   6  29
HETATM   29  C   UNL     1       6.847  27.872  54.918  1.00  0.00     0.251 C 
HETATM   30  N   UNL     1       5.635  27.970  54.265  1.00  0.00    -0.325 N 
HETATM   31  H   UNL     1       4.832  28.173  54.852  1.00  0.00     0.169 HD
HETATM   32  O   UNL     1       7.947  27.869  54.367  1.00  0.00    -0.270 OA
BRANCH  30  33
HETATM   33  C   UNL     1       5.387  27.827  52.885  1.00  0.00     0.034 A 
HETATM   34  C   UNL     1       5.447  28.874  51.973  1.00  0.00     0.032 A 
HETATM   35  C   UNL     1       5.289  28.631  50.600  1.00  0.00     0.031 A 
HETATM   36  C   UNL     1       5.081  27.345  50.081  1.00  0.00     0.030 A 
HETATM   37  C   UNL     1       4.981  26.313  51.021  1.00  0.00     0.031 A 
HETATM   38  C   UNL     1       5.136  26.543  52.400  1.00  0.00     0.032 A 
BRANCH  36  39
HETATM   39  N   UNL     1       4.930  27.159  48.710  1.00  0.00    -0.377 N 
HETATM   40  C   UNL     1       3.951  26.144  48.245  1.00  0.00     0.149 C 
HETATM   41  C   UNL     1       2.589  26.808  47.971  1.00  0.00     0.187 C 
HETATM   42  O   UNL     1       2.703  27.879  47.020  1.00  0.00    -0.388 OA
HETATM   43  C   UNL     1       3.622  28.881  47.491  1.00  0.00     0.187 C 
HETATM   44  C   UNL     1       5.015  28.287  47.757  1.00  0.00     0.149 C 
ENDBRANCH  36  39
ENDBRANCH  30  33
ENDBRANCH   6  29
TORSDOF 8
ENDMDL
MODEL 8
REMARK VINA RESULT:      -8.4      3.726      6.503
REMARK  8 active torsions:
REMARK  status: ('A' for Active; 'I' for Inactive)
REMARK    1  A    between atoms: C_6  and  N_7 
REMARK    2  A    between atoms: C_6  and  C_26 
REMARK       I    between atoms: N_7  and  C_8 
REMARK    3  A    between atoms: N_7  and  C_23 
REMARK    4  A    between atoms: C_8  and  C_9 
REMARK    5  A    between atoms: C_9  and  N_10 
REMARK    6  A    between atoms: C_14  and  C_15 
REMARK       I    between atoms: C_26  and  N_27 
REMARK    7  A    between atoms: N_27  and  C_28 
REMARK    8  A    between atoms: C_31  and  N_32 
ROOT
HETATM    1  C   UNL     1       6.068  34.049  47.016  1.00  0.00     0.269 C 
HETATM    2  N   UNL     1       5.698  32.705  47.596  1.00  0.00    -0.075 N 
HETATM    3  H   UNL     1       6.036  32.000  46.927  1.00  0.00     0.279 HD
HETATM    4  C   UNL     1       6.402  32.480  48.904  1.00  0.00     0.237 C 
HETATM    5  C   UNL     1       6.018  31.131  49.499  1.00  0.00     0.069 C 
HETATM    6  C   UNL     1       4.490  30.862  49.633  1.00  0.00     0.120 C 
HETATM    7  C   UNL     1       3.852  31.188  48.251  1.00  0.00     0.069 C 
HETATM    8  C   UNL     1       4.209  32.568  47.717  1.00  0.00     0.237 C 
ENDROOT
BRANCH   6   9
HETATM    9  N   UNL     1       4.239  29.429  50.067  1.00  0.00    -0.328 N 
HETATM   10  C   UNL     1       5.221  28.800  50.856  1.00  0.00     0.239 C 
HETATM   11  O   UNL     1       6.044  29.471  51.484  1.00  0.00    -0.271 OA
BRANCH  10  12
HETATM   12  C   UNL     1       5.264  27.259  50.904  1.00  0.00     0.228 C 
BRANCH  12  13
HETATM   13  N   UNL     1       5.907  26.717  52.097  1.00  0.00    -0.347 N 
HETATM   14  C   UNL     1       5.399  26.781  53.399  1.00  0.00     0.171 C 
HETATM   15  S   UNL     1       4.141  27.673  53.995  1.00  0.00    -0.041 SA
HETATM   16  N   UNL     1       6.142  25.926  54.194  1.00  0.00    -0.357 N 
HETATM   17  C   UNL     1       7.237  25.336  53.465  1.00  0.00     0.135 C 
HETATM   18  H   UNL     1       6.019  25.868  55.198  1.00  0.00     0.162 HD
HETATM   19  C   UNL     1       6.845  25.598  52.004  1.00  0.00     0.155 C 
BRANCH  17  20
HETATM   20  C   UNL     1       7.474  23.890  53.808  1.00  0.00    -0.034 A 
HETATM   21  C   UNL     1       7.465  23.432  55.135  1.00  0.00     0.009 A 
HETATM   22  C   UNL     1       7.697  22.087  55.427  1.00  0.00     0.001 A 
HETATM   23  C   UNL     1       7.930  21.179  54.397  1.00  0.00     0.000 A 
HETATM   24  C   UNL     1       7.927  21.615  53.073  1.00  0.00     0.001 A 
HETATM   25  C   UNL     1       7.698  22.960  52.780  1.00  0.00     0.009 A 
ENDBRANCH  17  20
ENDBRANCH  12  13
ENDBRANCH  10  12
BRANCH   9  26
HETATM   26  C   UNL     1       3.095  28.696  49.555  1.00  0.00     0.088 A 
HETATM   27  C   UNL     1       1.792  28.677  50.328  1.00  0.00     0.027 A 
HETATM   28  C   UNL     1       1.845  29.343  48.998  1.00  0.00     0.027 A 
ENDBRANCH   9  26
ENDBRANCH   6   9
BRANCH   6  29
HETATM   29  C   UNL     1       3.829  31.854  50.644  1.00  0.00     0.251 C 
HETATM   30  N   UNL     1       4.576  32.059  51.787  1.00  0.00    -0.325 N 
HETATM   31  H   UNL     1       5.579  31.948  51.685  1.00  0.00     0.169 HD
HETATM   32  O   UNL     1       2.647  32.168  50.508  1.00  0.00    -0.270 OA
BRANCH  30  33
HETATM   33  C   UNL     1       4.106  32.408  53.069  1.00  0.00     0.034 A 
HETATM   34  C   UNL     1       3.921  31.498  54.103  1.00  0.00     0.032 A 
HETATM   35  C   UNL     1       3.549  31.940  55.382  1.00  0.00     0.031 A 
HETATM   36  C   UNL     1       3.360  33.295  55.686  1.00  0.00     0.030 A 
HETATM   37  C   UNL     1       3.510  34.189  54.619  1.00  0.00     0.031 A 
HETATM   38  C   UNL     1       3.881  33.760  53.333  1.00  0.00     0.032 A 
BRANCH  36  39
HETATM   39  N   UNL     1       2.991  33.680  56.971  1.00  0.00    -0.377 N 
HETATM   40  C   UNL     1       3.532  32.906  58.117  1.00  0.00     0.149 C 
HETATM   41  C   UNL     1       4.818  33.568  58.644  1.00  0.00     0.187 C 
HETATM   42  O   UNL     1       4.594  34.939  59.015  1.00  0.00    -0.388 OA
HETATM   43  C   UNL     1       4.108  35.696  57.893  1.00  0.00     0.187 C 
HETATM   44  C   UNL     1       2.804  35.101  57.335  1.00  0.00     0.149 C 
ENDBRANCH  36  39
ENDBRANCH  30  33
ENDBRANCH   6  29
TORSDOF 8
ENDMDL
MODEL 9
REMARK VINA RESULT:      -8.3      2.755      5.375
REMARK  8 active torsions:
REMARK  status: ('A' for Active; 'I' for Inactive)
REMARK    1  A    between atoms: C_6  and  N_7 
REMARK    2  A    between atoms: C_6  and  C_26 
REMARK       I    between atoms: N_7  and  C_8 
REMARK    3  A    between atoms: N_7  and  C_23 
REMARK    4  A    between atoms: C_8  and  C_9 
REMARK    5  A    between atoms: C_9  and  N_10 
REMARK    6  A    between atoms: C_14  and  C_15 
REMARK       I    between atoms: C_26  and  N_27 
REMARK    7  A    between atoms: N_27  and  C_28 
REMARK    8  A    between atoms: C_31  and  N_32 
ROOT
HETATM    1  C   UNL     1       4.570  32.786  47.999  1.00  0.00     0.269 C 
HETATM    2  N   UNL     1       4.852  31.852  49.150  1.00  0.00    -0.075 N 
HETATM    3  H   UNL     1       5.760  32.140  49.540  1.00  0.00     0.279 HD
HETATM    4  C   UNL     1       3.815  32.009  50.226  1.00  0.00     0.237 C 
HETATM    5  C   UNL     1       4.089  31.055  51.383  1.00  0.00     0.069 C 
HETATM    6  C   UNL     1       4.270  29.557  50.995  1.00  0.00     0.120 C 
HETATM    7  C   UNL     1       5.308  29.515  49.835  1.00  0.00     0.069 C 
HETATM    8  C   UNL     1       4.969  30.435  48.670  1.00  0.00     0.237 C 
ENDROOT
BRANCH   6   9
HETATM    9  N   UNL     1       4.710  28.746  52.200  1.00  0.00    -0.328 N 
HETATM   10  C   UNL     1       4.959  27.372  52.012  1.00  0.00     0.239 C 
HETATM   11  O   UNL     1       5.186  26.926  50.885  1.00  0.00    -0.271 OA
BRANCH  10  12
HETATM   12  C   UNL     1       4.919  26.434  53.235  1.00  0.00     0.228 C 
BRANCH  12  13
HETATM   13  N   UNL     1       6.200  25.805  53.547  1.00  0.00    -0.347 N 
HETATM   14  C   UNL     1       6.950  26.014  54.710  1.00  0.00     0.171 C 
HETATM   15  S   UNL     1       6.775  27.166  55.882  1.00  0.00    -0.041 SA
HETATM   16  N   UNL     1       7.937  25.047  54.764  1.00  0.00    -0.357 N 
HETATM   17  C   UNL     1       7.939  24.218  53.584  1.00  0.00     0.135 C 
HETATM   18  H   UNL     1       8.663  25.045  55.471  1.00  0.00     0.162 HD
HETATM   19  C   UNL     1       6.565  24.513  52.968  1.00  0.00     0.155 C 
BRANCH  17  20
HETATM   20  C   UNL     1       8.208  22.766  53.872  1.00  0.00    -0.034 A 
HETATM   21  C   UNL     1       8.726  22.338  55.103  1.00  0.00     0.009 A 
HETATM   22  C   UNL     1       8.975  20.986  55.341  1.00  0.00     0.001 A 
HETATM   23  C   UNL     1       8.698  20.041  54.357  1.00  0.00     0.000 A 
HETATM   24  C   UNL     1       8.168  20.447  53.134  1.00  0.00     0.001 A 
HETATM   25  C   UNL     1       7.921  21.800  52.894  1.00  0.00     0.009 A 
ENDBRANCH  17  20
ENDBRANCH  12  13
ENDBRANCH  10  12
BRANCH   9  26
HETATM   26  C   UNL     1       4.725  29.344  53.523  1.00  0.00     0.088 A 
HETATM   27  C   UNL     1       3.499  30.061  54.049  1.00  0.00     0.027 A 
HETATM   28  C   UNL     1       3.954  28.808  54.710  1.00  0.00     0.027 A 
ENDBRANCH   9  26
ENDBRANCH   6   9
BRANCH   6  29
HETATM   29  C   UNL     1       2.952  28.965  50.400  1.00  0.00     0.251 C 
HETATM   30  N   UNL     1       3.028  28.695  49.048  1.00  0.00    -0.325 N 
HETATM   31  H   UNL     1       3.952  28.474  48.692  1.00  0.00     0.169 HD
HETATM   32  O   UNL     1       1.910  29.018  51.052  1.00  0.00    -0.270 OA
BRANCH  30  33
HETATM   33  C   UNL     1       1.973  28.685  48.113  1.00  0.00     0.034 A 
HETATM   34  C   UNL     1       1.467  27.532  47.526  1.00  0.00     0.032 A 
HETATM   35  C   UNL     1       0.347  27.596  46.682  1.00  0.00     0.031 A 
HETATM   36  C   UNL     1      -0.318  28.798  46.401  1.00  0.00     0.030 A 
HETATM   37  C   UNL     1       0.236  29.951  46.969  1.00  0.00     0.031 A 
HETATM   38  C   UNL     1       1.358  29.901  47.815  1.00  0.00     0.032 A 
BRANCH  36  39
HETATM   39  N   UNL     1      -1.424  28.806  45.557  1.00  0.00    -0.377 N 
HETATM   40  C   UNL     1      -2.530  29.747  45.862  1.00  0.00     0.149 C 
HETATM   41  C   UNL     1      -2.339  31.061  45.082  1.00  0.00     0.187 C 
HETATM   42  O   UNL     1      -2.244  30.828  43.667  1.00  0.00    -0.388 OA
HETATM   43  C   UNL     1      -1.146  29.947  43.370  1.00  0.00     0.187 C 
HETATM   44  C   UNL     1      -1.291  28.600  44.099  1.00  0.00     0.149 C 
ENDBRANCH  36  39
ENDBRANCH  30  33
ENDBRANCH   6  29
TORSDOF 8
ENDMDL
MODEL 10
REMARK VINA RESULT:      -8.3      7.816     11.177
REMARK  8 active torsions:
REMARK  status: ('A' for Active; 'I' for Inactive)
REMARK    1  A    between atoms: C_6  and  N_7 
REMARK    2  A    between atoms: C_6  and  C_26 
REMARK       I    between atoms: N_7  and  C_8 
REMARK    3  A    between atoms: N_7  and  C_23 
REMARK    4  A    between atoms: C_8  and  C_9 
REMARK    5  A    between atoms: C_9  and  N_10 
REMARK    6  A    between atoms: C_14  and  C_15 
REMARK       I    between atoms: C_26  and  N_27 
REMARK    7  A    between atoms: N_27  and  C_28 
REMARK    8  A    between atoms: C_31  and  N_32 
ROOT
HETATM    1  C   UNL     1       3.522  36.888  55.379  1.00  0.00     0.269 C 
HETATM    2  N   UNL     1       3.513  35.402  55.113  1.00  0.00    -0.075 N 
HETATM    3  H   UNL     1       3.127  35.282  54.166  1.00  0.00     0.279 HD
HETATM    4  C   UNL     1       4.912  34.854  55.118  1.00  0.00     0.237 C 
HETATM    5  C   UNL     1       4.904  33.352  54.865  1.00  0.00     0.069 C 
HETATM    6  C   UNL     1       3.972  32.515  55.792  1.00  0.00     0.120 C 
HETATM    7  C   UNL     1       2.576  33.204  55.766  1.00  0.00     0.069 C 
HETATM    8  C   UNL     1       2.616  34.692  56.084  1.00  0.00     0.237 C 
ENDROOT
BRANCH   6   9
HETATM    9  N   UNL     1       3.918  31.071  55.327  1.00  0.00    -0.328 N 
HETATM   10  C   UNL     1       3.528  30.094  56.263  1.00  0.00     0.239 C 
HETATM   11  O   UNL     1       2.899  30.412  57.275  1.00  0.00    -0.271 OA
BRANCH  10  12
HETATM   12  C   UNL     1       3.921  28.624  56.013  1.00  0.00     0.228 C 
BRANCH  12  13
HETATM   13  N   UNL     1       5.237  28.261  56.531  1.00  0.00    -0.347 N 
HETATM   14  C   UNL     1       6.105  27.319  55.967  1.00  0.00     0.171 C 
HETATM   15  S   UNL     1       5.819  26.200  54.785  1.00  0.00    -0.041 SA
HETATM   16  N   UNL     1       7.342  27.459  56.570  1.00  0.00    -0.357 N 
HETATM   17  C   UNL     1       7.312  28.437  57.630  1.00  0.00     0.135 C 
HETATM   18  H   UNL     1       8.113  26.827  56.391  1.00  0.00     0.162 HD
HETATM   19  C   UNL     1       6.012  29.198  57.344  1.00  0.00     0.155 C 
BRANCH  17  20
HETATM   20  C   UNL     1       8.549  29.293  57.690  1.00  0.00    -0.034 A 
HETATM   21  C   UNL     1       9.696  28.990  56.940  1.00  0.00     0.009 A 
HETATM   22  C   UNL     1      10.834  29.796  57.022  1.00  0.00     0.001 A 
HETATM   23  C   UNL     1      10.835  30.920  57.843  1.00  0.00     0.000 A 
HETATM   24  C   UNL     1       9.699  31.243  58.582  1.00  0.00     0.001 A 
HETATM   25  C   UNL     1       8.562  30.437  58.503  1.00  0.00     0.009 A 
ENDBRANCH  17  20
ENDBRANCH  12  13
ENDBRANCH  10  12
BRANCH   9  26
HETATM   26  C   UNL     1       4.397  30.706  54.006  1.00  0.00     0.088 A 
HETATM   27  C   UNL     1       3.494  29.960  53.046  1.00  0.00     0.027 A 
HETATM   28  C   UNL     1       3.924  31.346  52.719  1.00  0.00     0.027 A 
ENDBRANCH   9  26
ENDBRANCH   6   9
BRANCH   6  29
HETATM   29  C   UNL     1       4.446  32.584  57.279  1.00  0.00     0.251 C 
HETATM   30  N   UNL     1       3.424  32.829  58.175  1.00  0.00    -0.325 N 
HETATM   31  H   UNL     1       2.504  32.506  57.894  1.00  0.00     0.169 HD
HETATM   32  O   UNL     1       5.646  32.681  57.534  1.00  0.00    -0.270 OA
BRANCH  30  33
HETATM   33  C   UNL     1       3.515  33.466  59.429  1.00  0.00     0.034 A 
HETATM   34  C   UNL     1       3.764  34.823  59.594  1.00  0.00     0.032 A 
HETATM   35  C   UNL     1       3.736  35.401  60.873  1.00  0.00     0.031 A 
HETATM   36  C   UNL     1       3.449  34.661  62.029  1.00  0.00     0.030 A 
HETATM   37  C   UNL     1       3.243  33.288  61.843  1.00  0.00     0.031 A 
HETATM   38  C   UNL     1       3.269  32.697  60.568  1.00  0.00     0.032 A 
BRANCH  36  39
HETATM   39  N   UNL     1       3.435  35.283  63.274  1.00  0.00    -0.377 N 
HETATM   40  C   UNL     1       3.243  34.435  64.478  1.00  0.00     0.149 C 
HETATM   41  C   UNL     1       4.608  34.029  65.063  1.00  0.00     0.187 C 
HETATM   42  O   UNL     1       5.414  35.178  65.371  1.00  0.00    -0.388 OA
HETATM   43  C   UNL     1       5.633  35.977  64.196  1.00  0.00     0.187 C 
HETATM   44  C   UNL     1       4.304  36.440  63.575  1.00  0.00     0.149 C 
ENDBRANCH  36  39
ENDBRANCH  30  33
ENDBRANCH   6  29
TORSDOF 8
ENDMDL
