MODEL 1
REMARK VINA RESULT:      -9.8      0.000      0.000
REMARK  8 active torsions:
REMARK  status: ('A' for Active; 'I' for Inactive)
REMARK    1  A    between atoms: C_2  and  C_3 
REMARK    2  A    between atoms: C_6  and  N_7 
REMARK    3  A    between atoms: N_7  and  S_8 
REMARK    4  A    between atoms: S_8  and  C_9 
REMARK    5  A    between atoms: C_15  and  C_16 
REMARK       I    between atoms: C_16  and  N_17 
REMARK    6  A    between atoms: N_17  and  C_18 
REMARK    7  A    between atoms: C_18  and  C_19 
REMARK    8  A    between atoms: C_19  and  O_20 
ROOT
HETATM    1  C   UNL     1       6.392  28.294  54.478  1.00  0.00     0.081 A 
HETATM    2  C   UNL     1       6.235  28.973  55.689  1.00  0.00     0.043 A 
HETATM    3  C   UNL     1       7.372  29.423  56.366  1.00  0.00     0.043 A 
HETATM    4  C   UNL     1       8.657  29.230  55.830  1.00  0.00     0.046 A 
HETATM    5  N   UNL     1       9.779  29.670  56.542  1.00  0.00    -0.364 N 
HETATM    6  C   UNL     1       9.635  30.383  57.706  1.00  0.00     0.109 A 
HETATM    7  C   UNL     1       8.469  30.644  58.323  1.00  0.00     0.098 A 
HETATM    8  C   UNL     1       7.233  30.123  57.672  1.00  0.00     0.201 A 
HETATM    9  O   UNL     1       6.125  30.254  58.183  1.00  0.00    -0.286 OA
HETATM   10  C   UNL     1       8.793  28.537  54.622  1.00  0.00     0.032 A 
HETATM   11  C   UNL     1       7.662  28.077  53.939  1.00  0.00     0.027 A 
HETATM   12  H   UNL     1      10.685  29.674  56.085  1.00  0.00     0.165 HD
ENDROOT
BRANCH   1  13
HETATM   13  S   UNL     1       4.940  27.766  53.593  1.00  0.00     0.263 S 
HETATM   14  O   UNL     1       5.282  27.665  52.191  1.00  0.00    -0.200 OA
HETATM   15  O   UNL     1       3.847  28.605  54.040  1.00  0.00    -0.200 OA
BRANCH  13  16
HETATM   16  N   UNL     1       4.655  26.231  54.228  1.00  0.00    -0.281 N 
HETATM   17  H   UNL     1       4.110  26.257  55.088  1.00  0.00     0.179 HD
BRANCH  16  18
HETATM   18  C   UNL     1       5.656  25.230  54.105  1.00  0.00     0.042 A 
HETATM   19  C   UNL     1       6.308  24.757  55.241  1.00  0.00     0.030 A 
HETATM   20  C   UNL     1       7.293  23.773  55.119  1.00  0.00     0.010 A 
HETATM   21  C   UNL     1       7.627  23.242  53.863  1.00  0.00    -0.055 A 
HETATM   22  C   UNL     1       6.974  23.745  52.729  1.00  0.00     0.010 A 
HETATM   23  C   UNL     1       5.998  24.737  52.849  1.00  0.00     0.030 A 
BRANCH  21  24
HETATM   24  C   UNL     1       8.676  22.155  53.701  1.00  0.00     0.010 C 
HETATM   25  C   UNL     1       8.108  20.883  53.066  1.00  0.00     0.015 C 
HETATM   26  C   UNL     1       9.352  21.844  55.038  1.00  0.00     0.015 C 
ENDBRANCH  21  24
ENDBRANCH  16  18
ENDBRANCH  13  16
ENDBRANCH   1  13
BRANCH   7  27
HETATM   27  C   UNL     1       8.499  31.410  59.602  1.00  0.00     0.257 C 
HETATM   28  N   UNL     1       7.968  30.767  60.689  1.00  0.00    -0.355 N 
HETATM   29  H   UNL     1       7.484  29.880  60.547  1.00  0.00     0.162 HD
HETATM   30  O   UNL     1       8.972  32.542  59.664  1.00  0.00    -0.267 OA
BRANCH  28  31
HETATM   31  C   UNL     1       7.870  31.392  61.995  1.00  0.00     0.149 C 
BRANCH  31  32
HETATM   32  C   UNL     1       6.498  32.024  62.238  1.00  0.00     0.186 C 
BRANCH  32  33
HETATM   33  O   UNL     1       6.422  32.468  63.598  1.00  0.00    -0.394 OA
HETATM   34  C   UNL     1       7.671  32.971  64.053  1.00  0.00     0.201 C 
ENDBRANCH  32  33
ENDBRANCH  31  32
ENDBRANCH  28  31
ENDBRANCH   7  27
TORSDOF 8
ENDMDL
MODEL 2
REMARK VINA RESULT:      -9.7      1.680      2.267
REMARK  8 active torsions:
REMARK  status: ('A' for Active; 'I' for Inactive)
REMARK    1  A    between atoms: C_2  and  C_3 
REMARK    2  A    between atoms: C_6  and  N_7 
REMARK    3  A    between atoms: N_7  and  S_8 
REMARK    4  A    between atoms: S_8  and  C_9 
REMARK    5  A    between atoms: C_15  and  C_16 
REMARK       I    between atoms: C_16  and  N_17 
REMARK    6  A    between atoms: N_17  and  C_18 
REMARK    7  A    between atoms: C_18  and  C_19 
REMARK    8  A    between atoms: C_19  and  O_20 
ROOT
HETATM    1  C   UNL     1       5.522  28.451  54.239  1.00  0.00     0.081 A 
HETATM    2  C   UNL     1       6.518  28.681  55.191  1.00  0.00     0.043 A 
HETATM    3  C   UNL     1       6.324  29.683  56.146  1.00  0.00     0.043 A 
HETATM    4  C   UNL     1       5.135  30.432  56.177  1.00  0.00     0.046 A 
HETATM    5  N   UNL     1       4.977  31.445  57.130  1.00  0.00    -0.364 N 
HETATM    6  C   UNL     1       5.926  31.647  58.102  1.00  0.00     0.109 A 
HETATM    7  C   UNL     1       7.102  31.000  58.192  1.00  0.00     0.098 A 
HETATM    8  C   UNL     1       7.382  29.969  57.152  1.00  0.00     0.201 A 
HETATM    9  O   UNL     1       8.449  29.363  57.108  1.00  0.00    -0.286 OA
HETATM   10  C   UNL     1       4.154  30.193  55.208  1.00  0.00     0.032 A 
HETATM   11  C   UNL     1       4.341  29.197  54.243  1.00  0.00     0.027 A 
HETATM   12  H   UNL     1       4.065  31.872  57.254  1.00  0.00     0.165 HD
ENDROOT
BRANCH   1  13
HETATM   13  S   UNL     1       5.750  27.140  53.055  1.00  0.00     0.263 S 
HETATM   14  O   UNL     1       5.819  27.733  51.738  1.00  0.00    -0.200 OA
HETATM   15  O   UNL     1       4.775  26.117  53.367  1.00  0.00    -0.200 OA
BRANCH  13  16
HETATM   16  N   UNL     1       7.255  26.512  53.482  1.00  0.00    -0.281 N 
HETATM   17  H   UNL     1       8.028  27.021  53.057  1.00  0.00     0.179 HD
BRANCH  16  18
HETATM   18  C   UNL     1       7.399  25.109  53.657  1.00  0.00     0.042 A 
HETATM   19  C   UNL     1       7.242  24.549  54.922  1.00  0.00     0.030 A 
HETATM   20  C   UNL     1       7.385  23.169  55.096  1.00  0.00     0.010 A 
HETATM   21  C   UNL     1       7.673  22.334  54.005  1.00  0.00    -0.055 A 
HETATM   22  C   UNL     1       7.848  22.919  52.742  1.00  0.00     0.010 A 
HETATM   23  C   UNL     1       7.717  24.299  52.571  1.00  0.00     0.030 A 
BRANCH  21  24
HETATM   24  C   UNL     1       7.811  20.829  54.157  1.00  0.00     0.010 C 
HETATM   25  C   UNL     1       8.411  20.429  55.507  1.00  0.00     0.015 C 
HETATM   26  C   UNL     1       8.620  20.235  53.002  1.00  0.00     0.015 C 
ENDBRANCH  21  24
ENDBRANCH  16  18
ENDBRANCH  13  16
ENDBRANCH   1  13
BRANCH   7  27
HETATM   27  C   UNL     1       8.031  31.366  59.299  1.00  0.00     0.257 C 
HETATM   28  N   UNL     1       8.144  30.444  60.305  1.00  0.00    -0.355 N 
HETATM   29  H   UNL     1       7.513  29.640  60.308  1.00  0.00     0.162 HD
HETATM   30  O   UNL     1       8.650  32.428  59.297  1.00  0.00    -0.267 OA
BRANCH  28  31
HETATM   31  C   UNL     1       8.962  30.668  61.482  1.00  0.00     0.149 C 
BRANCH  31  32
HETATM   32  C   UNL     1       8.138  31.123  62.689  1.00  0.00     0.186 C 
BRANCH  32  33
HETATM   33  O   UNL     1       8.446  32.492  62.977  1.00  0.00    -0.394 OA
HETATM   34  C   UNL     1       7.688  32.975  64.078  1.00  0.00     0.201 C 
ENDBRANCH  32  33
ENDBRANCH  31  32
ENDBRANCH  28  31
ENDBRANCH   7  27
TORSDOF 8
ENDMDL
MODEL 3
REMARK VINA RESULT:      -8.9      1.757      2.388
REMARK  8 active torsions:
REMARK  status: ('A' for Active; 'I' for Inactive)
REMARK    1  A    between atoms: C_2  and  C_3 
REMARK    2  A    between atoms: C_6  and  N_7 
REMARK    3  A    between atoms: N_7  and  S_8 
REMARK    4  A    between atoms: S_8  and  C_9 
REMARK    5  A    between atoms: C_15  and  C_16 
REMARK       I    between atoms: C_16  and  N_17 
REMARK    6  A    between atoms: N_17  and  C_18 
REMARK    7  A    between atoms: C_18  and  C_19 
REMARK    8  A    between atoms: C_19  and  O_20 
ROOT
HETATM    1  C   UNL     1       7.004  28.440  55.540  1.00  0.00     0.081 A 
HETATM    2  C   UNL     1       6.133  29.265  56.255  1.00  0.00     0.043 A 
HETATM    3  C   UNL     1       6.613  29.947  57.377  1.00  0.00     0.043 A 
HETATM    4  C   UNL     1       7.958  29.835  57.772  1.00  0.00     0.046 A 
HETATM    5  N   UNL     1       8.405  30.510  58.913  1.00  0.00    -0.364 N 
HETATM    6  C   UNL     1       7.572  31.364  59.594  1.00  0.00     0.109 A 
HETATM    7  C   UNL     1       6.271  31.568  59.321  1.00  0.00     0.098 A 
HETATM    8  C   UNL     1       5.698  30.809  58.173  1.00  0.00     0.201 A 
HETATM    9  O   UNL     1       4.508  30.878  57.878  1.00  0.00    -0.286 OA
HETATM   10  C   UNL     1       8.811  28.994  57.049  1.00  0.00     0.032 A 
HETATM   11  C   UNL     1       8.340  28.302  55.927  1.00  0.00     0.027 A 
HETATM   12  H   UNL     1       9.400  30.557  59.103  1.00  0.00     0.165 HD
ENDROOT
BRANCH   1  13
HETATM   13  S   UNL     1       6.403  27.613  54.082  1.00  0.00     0.263 S 
HETATM   14  O   UNL     1       6.076  28.621  53.098  1.00  0.00    -0.200 OA
HETATM   15  O   UNL     1       5.419  26.647  54.522  1.00  0.00    -0.200 OA
BRANCH  13  16
HETATM   16  N   UNL     1       7.747  26.731  53.575  1.00  0.00    -0.281 N 
HETATM   17  H   UNL     1       8.197  27.136  52.756  1.00  0.00     0.179 HD
BRANCH  16  18
HETATM   18  C   UNL     1       7.736  25.315  53.696  1.00  0.00     0.042 A 
HETATM   19  C   UNL     1       7.688  24.522  52.552  1.00  0.00     0.030 A 
HETATM   20  C   UNL     1       7.676  23.129  52.671  1.00  0.00     0.010 A 
HETATM   21  C   UNL     1       7.726  22.515  53.932  1.00  0.00    -0.055 A 
HETATM   22  C   UNL     1       7.754  23.330  55.072  1.00  0.00     0.010 A 
HETATM   23  C   UNL     1       7.754  24.722  54.955  1.00  0.00     0.030 A 
BRANCH  21  24
HETATM   24  C   UNL     1       7.739  21.004  54.093  1.00  0.00     0.010 C 
HETATM   25  C   UNL     1       8.281  20.564  55.455  1.00  0.00     0.015 C 
HETATM   26  C   UNL     1       8.517  20.340  52.955  1.00  0.00     0.015 C 
ENDBRANCH  21  24
ENDBRANCH  16  18
ENDBRANCH  13  16
ENDBRANCH   1  13
BRANCH   7  27
HETATM   27  C   UNL     1       5.505  32.513  60.184  1.00  0.00     0.257 C 
HETATM   28  N   UNL     1       5.264  32.083  61.462  1.00  0.00    -0.355 N 
HETATM   29  H   UNL     1       5.501  31.121  61.710  1.00  0.00     0.162 HD
HETATM   30  O   UNL     1       5.124  33.603  59.765  1.00  0.00    -0.267 OA
BRANCH  28  31
HETATM   31  C   UNL     1       4.487  32.856  62.413  1.00  0.00     0.149 C 
BRANCH  31  32
HETATM   32  C   UNL     1       5.229  33.079  63.731  1.00  0.00     0.186 C 
BRANCH  32  33
HETATM   33  O   UNL     1       6.603  33.373  63.453  1.00  0.00    -0.394 OA
HETATM   34  C   UNL     1       7.383  33.391  64.640  1.00  0.00     0.201 C 
ENDBRANCH  32  33
ENDBRANCH  31  32
ENDBRANCH  28  31
ENDBRANCH   7  27
TORSDOF 8
ENDMDL
MODEL 4
REMARK VINA RESULT:      -8.8      4.115      8.275
REMARK  8 active torsions:
REMARK  status: ('A' for Active; 'I' for Inactive)
REMARK    1  A    between atoms: C_2  and  C_3 
REMARK    2  A    between atoms: C_6  and  N_7 
REMARK    3  A    between atoms: N_7  and  S_8 
REMARK    4  A    between atoms: S_8  and  C_9 
REMARK    5  A    between atoms: C_15  and  C_16 
REMARK       I    between atoms: C_16  and  N_17 
REMARK    6  A    between atoms: N_17  and  C_18 
REMARK    7  A    between atoms: C_18  and  C_19 
REMARK    8  A    between atoms: C_19  and  O_20 
ROOT
HETATM    1  C   UNL     1       5.407  27.718  55.827  1.00  0.00     0.081 A 
HETATM    2  C   UNL     1       5.323  27.399  54.470  1.00  0.00     0.043 A 
HETATM    3  C   UNL     1       4.558  28.213  53.628  1.00  0.00     0.043 A 
HETATM    4  C   UNL     1       3.904  29.354  54.124  1.00  0.00     0.046 A 
HETATM    5  N   UNL     1       3.126  30.137  53.264  1.00  0.00    -0.364 N 
HETATM    6  C   UNL     1       3.077  29.864  51.919  1.00  0.00     0.109 A 
HETATM    7  C   UNL     1       3.657  28.811  51.314  1.00  0.00     0.098 A 
HETATM    8  C   UNL     1       4.428  27.878  52.185  1.00  0.00     0.201 A 
HETATM    9  O   UNL     1       4.946  26.856  51.743  1.00  0.00    -0.286 OA
HETATM   10  C   UNL     1       3.992  29.649  55.489  1.00  0.00     0.032 A 
HETATM   11  C   UNL     1       4.750  28.839  56.341  1.00  0.00     0.027 A 
HETATM   12  H   UNL     1       2.790  31.039  53.582  1.00  0.00     0.165 HD
ENDROOT
BRANCH   1  13
HETATM   13  S   UNL     1       6.423  26.710  56.886  1.00  0.00     0.263 S 
HETATM   14  O   UNL     1       5.637  25.571  57.309  1.00  0.00    -0.200 OA
HETATM   15  O   UNL     1       7.035  27.598  57.851  1.00  0.00    -0.200 OA
BRANCH  13  16
HETATM   16  N   UNL     1       7.654  26.207  55.851  1.00  0.00    -0.281 N 
HETATM   17  H   UNL     1       7.888  26.906  55.149  1.00  0.00     0.179 HD
BRANCH  16  18
HETATM   18  C   UNL     1       7.735  24.838  55.479  1.00  0.00     0.042 A 
HETATM   19  C   UNL     1       8.369  23.927  56.320  1.00  0.00     0.030 A 
HETATM   20  C   UNL     1       8.449  22.580  55.954  1.00  0.00     0.010 A 
HETATM   21  C   UNL     1       7.886  22.128  54.751  1.00  0.00    -0.055 A 
HETATM   22  C   UNL     1       7.270  23.063  53.907  1.00  0.00     0.010 A 
HETATM   23  C   UNL     1       7.199  24.411  54.267  1.00  0.00     0.030 A 
BRANCH  21  24
HETATM   24  C   UNL     1       7.936  20.667  54.336  1.00  0.00     0.010 C 
HETATM   25  C   UNL     1       8.915  19.851  55.185  1.00  0.00     0.015 C 
HETATM   26  C   UNL     1       8.261  20.533  52.847  1.00  0.00     0.015 C 
ENDBRANCH  21  24
ENDBRANCH  16  18
ENDBRANCH  13  16
ENDBRANCH   1  13
BRANCH   7  27
HETATM   27  C   UNL     1       3.478  28.651  49.843  1.00  0.00     0.257 C 
HETATM   28  N   UNL     1       4.599  28.280  49.148  1.00  0.00    -0.355 N 
HETATM   29  H   UNL     1       5.495  28.258  49.636  1.00  0.00     0.162 HD
HETATM   30  O   UNL     1       2.391  28.839  49.302  1.00  0.00    -0.267 OA
BRANCH  28  31
HETATM   31  C   UNL     1       4.609  28.134  47.704  1.00  0.00     0.149 C 
BRANCH  31  32
HETATM   32  C   UNL     1       4.717  26.673  47.265  1.00  0.00     0.186 C 
BRANCH  32  33
HETATM   33  O   UNL     1       3.420  26.202  46.880  1.00  0.00    -0.394 OA
HETATM   34  C   UNL     1       3.011  25.096  47.673  1.00  0.00     0.201 C 
ENDBRANCH  32  33
ENDBRANCH  31  32
ENDBRANCH  28  31
ENDBRANCH   7  27
TORSDOF 8
ENDMDL
MODEL 5
REMARK VINA RESULT:      -8.8      2.348      2.840
REMARK  8 active torsions:
REMARK  status: ('A' for Active; 'I' for Inactive)
REMARK    1  A    between atoms: C_2  and  C_3 
REMARK    2  A    between atoms: C_6  and  N_7 
REMARK    3  A    between atoms: N_7  and  S_8 
REMARK    4  A    between atoms: S_8  and  C_9 
REMARK    5  A    between atoms: C_15  and  C_16 
REMARK       I    between atoms: C_16  and  N_17 
REMARK    6  A    between atoms: N_17  and  C_18 
REMARK    7  A    between atoms: C_18  and  C_19 
REMARK    8  A    between atoms: C_19  and  O_20 
ROOT
HETATM    1  C   UNL     1       6.922  28.345  55.861  1.00  0.00     0.081 A 
HETATM    2  C   UNL     1       6.112  29.306  56.468  1.00  0.00     0.043 A 
HETATM    3  C   UNL     1       6.608  30.016  57.565  1.00  0.00     0.043 A 
HETATM    4  C   UNL     1       7.913  29.796  58.039  1.00  0.00     0.046 A 
HETATM    5  N   UNL     1       8.376  30.505  59.154  1.00  0.00    -0.364 N 
HETATM    6  C   UNL     1       7.609  31.488  59.727  1.00  0.00     0.109 A 
HETATM    7  C   UNL     1       6.351  31.805  59.371  1.00  0.00     0.098 A 
HETATM    8  C   UNL     1       5.755  31.025  58.248  1.00  0.00     0.201 A 
HETATM    9  O   UNL     1       4.594  31.194  57.885  1.00  0.00    -0.286 OA
HETATM   10  C   UNL     1       8.705  28.820  57.423  1.00  0.00     0.032 A 
HETATM   11  C   UNL     1       8.216  28.099  56.328  1.00  0.00     0.027 A 
HETATM   12  H   UNL     1       9.361  30.463  59.393  1.00  0.00     0.165 HD
ENDROOT
BRANCH   1  13
HETATM   13  S   UNL     1       6.305  27.478  54.433  1.00  0.00     0.263 S 
HETATM   14  O   UNL     1       5.891  28.461  53.456  1.00  0.00    -0.200 OA
HETATM   15  O   UNL     1       5.387  26.469  54.917  1.00  0.00    -0.200 OA
BRANCH  13  16
HETATM   16  N   UNL     1       7.669  26.657  53.879  1.00  0.00    -0.281 N 
HETATM   17  H   UNL     1       8.100  27.108  53.074  1.00  0.00     0.179 HD
BRANCH  16  18
HETATM   18  C   UNL     1       7.700  25.238  53.940  1.00  0.00     0.042 A 
HETATM   19  C   UNL     1       7.866  24.600  55.168  1.00  0.00     0.030 A 
HETATM   20  C   UNL     1       7.897  23.204  55.228  1.00  0.00     0.010 A 
HETATM   21  C   UNL     1       7.749  22.431  54.066  1.00  0.00    -0.055 A 
HETATM   22  C   UNL     1       7.604  23.090  52.838  1.00  0.00     0.010 A 
HETATM   23  C   UNL     1       7.584  24.486  52.775  1.00  0.00     0.030 A 
BRANCH  21  24
HETATM   24  C   UNL     1       7.756  20.912  54.103  1.00  0.00     0.010 C 
HETATM   25  C   UNL     1       8.367  20.359  55.393  1.00  0.00     0.015 C 
HETATM   26  C   UNL     1       8.464  20.339  52.874  1.00  0.00     0.015 C 
ENDBRANCH  21  24
ENDBRANCH  16  18
ENDBRANCH  13  16
ENDBRANCH   1  13
BRANCH   7  27
HETATM   27  C   UNL     1       5.651  32.885  60.123  1.00  0.00     0.257 C 
HETATM   28  N   UNL     1       4.705  33.580  59.416  1.00  0.00    -0.355 N 
HETATM   29  H   UNL     1       4.621  33.413  58.413  1.00  0.00     0.162 HD
HETATM   30  O   UNL     1       5.912  33.125  61.300  1.00  0.00    -0.267 OA
BRANCH  28  31
HETATM   31  C   UNL     1       3.972  34.697  59.982  1.00  0.00     0.149 C 
BRANCH  31  32
HETATM   32  C   UNL     1       2.581  34.295  60.474  1.00  0.00     0.186 C 
BRANCH  32  33
HETATM   33  O   UNL     1       2.675  33.842  61.830  1.00  0.00    -0.394 OA
HETATM   34  C   UNL     1       3.065  34.893  62.704  1.00  0.00     0.201 C 
ENDBRANCH  32  33
ENDBRANCH  31  32
ENDBRANCH  28  31
ENDBRANCH   7  27
TORSDOF 8
ENDMDL
MODEL 6
REMARK VINA RESULT:      -8.6      4.654     11.644
REMARK  8 active torsions:
REMARK  status: ('A' for Active; 'I' for Inactive)
REMARK    1  A    between atoms: C_2  and  C_3 
REMARK    2  A    between atoms: C_6  and  N_7 
REMARK    3  A    between atoms: N_7  and  S_8 
REMARK    4  A    between atoms: S_8  and  C_9 
REMARK    5  A    between atoms: C_15  and  C_16 
REMARK       I    between atoms: C_16  and  N_17 
REMARK    6  A    between atoms: N_17  and  C_18 
REMARK    7  A    between atoms: C_18  and  C_19 
REMARK    8  A    between atoms: C_19  and  O_20 
ROOT
HETATM    1  C   UNL     1       4.647  33.761  62.868  1.00  0.00     0.081 A 
HETATM    2  C   UNL     1       5.214  33.415  61.640  1.00  0.00     0.043 A 
HETATM    3  C   UNL     1       6.520  32.916  61.612  1.00  0.00     0.043 A 
HETATM    4  C   UNL     1       7.248  32.731  62.800  1.00  0.00     0.046 A 
HETATM    5  N   UNL     1       8.562  32.251  62.741  1.00  0.00    -0.364 N 
HETATM    6  C   UNL     1       9.113  31.860  61.546  1.00  0.00     0.109 A 
HETATM    7  C   UNL     1       8.527  31.977  60.341  1.00  0.00     0.098 A 
HETATM    8  C   UNL     1       7.158  32.569  60.314  1.00  0.00     0.201 A 
HETATM    9  O   UNL     1       6.559  32.774  59.262  1.00  0.00    -0.286 OA
HETATM   10  C   UNL     1       6.666  33.093  64.020  1.00  0.00     0.032 A 
HETATM   11  C   UNL     1       5.361  33.600  64.058  1.00  0.00     0.027 A 
HETATM   12  H   UNL     1       9.025  31.968  63.598  1.00  0.00     0.165 HD
ENDROOT
BRANCH   1  13
HETATM   13  S   UNL     1       2.966  34.348  62.904  1.00  0.00     0.263 S 
HETATM   14  O   UNL     1       2.203  33.470  63.764  1.00  0.00    -0.200 OA
HETATM   15  O   UNL     1       2.572  34.582  61.531  1.00  0.00    -0.200 OA
BRANCH  13  16
HETATM   16  N   UNL     1       3.119  35.866  63.622  1.00  0.00    -0.281 N 
HETATM   17  H   UNL     1       2.224  36.255  63.913  1.00  0.00     0.179 HD
BRANCH  16  18
HETATM   18  C   UNL     1       4.111  36.764  63.147  1.00  0.00     0.042 A 
HETATM   19  C   UNL     1       5.175  37.122  63.971  1.00  0.00     0.030 A 
HETATM   20  C   UNL     1       6.152  38.007  63.504  1.00  0.00     0.010 A 
HETATM   21  C   UNL     1       6.082  38.532  62.204  1.00  0.00    -0.055 A 
HETATM   22  C   UNL     1       4.992  38.177  61.396  1.00  0.00     0.010 A 
HETATM   23  C   UNL     1       4.010  37.302  61.866  1.00  0.00     0.030 A 
BRANCH  21  24
HETATM   24  C   UNL     1       7.139  39.477  61.659  1.00  0.00     0.010 C 
HETATM   25  C   UNL     1       7.704  40.408  62.736  1.00  0.00     0.015 C 
HETATM   26  C   UNL     1       6.597  40.278  60.473  1.00  0.00     0.015 C 
ENDBRANCH  21  24
ENDBRANCH  16  18
ENDBRANCH  13  16
ENDBRANCH   1  13
BRANCH   7  27
HETATM   27  C   UNL     1       9.283  31.527  59.137  1.00  0.00     0.257 C 
HETATM   28  N   UNL     1       8.905  30.316  58.621  1.00  0.00    -0.355 N 
HETATM   29  H   UNL     1       8.236  29.746  59.142  1.00  0.00     0.162 HD
HETATM   30  O   UNL     1      10.182  32.207  58.649  1.00  0.00    -0.267 OA
BRANCH  28  31
HETATM   31  C   UNL     1       9.574  29.707  57.487  1.00  0.00     0.149 C 
BRANCH  31  32
HETATM   32  C   UNL     1       8.682  28.709  56.747  1.00  0.00     0.186 C 
BRANCH  32  33
HETATM   33  O   UNL     1       8.714  27.452  57.435  1.00  0.00    -0.394 OA
HETATM   34  C   UNL     1       7.504  26.729  57.255  1.00  0.00     0.201 C 
ENDBRANCH  32  33
ENDBRANCH  31  32
ENDBRANCH  28  31
ENDBRANCH   7  27
TORSDOF 8
ENDMDL
MODEL 7
REMARK VINA RESULT:      -8.3      2.545      3.803
REMARK  8 active torsions:
REMARK  status: ('A' for Active; 'I' for Inactive)
REMARK    1  A    between atoms: C_2  and  C_3 
REMARK    2  A    between atoms: C_6  and  N_7 
REMARK    3  A    between atoms: N_7  and  S_8 
REMARK    4  A    between atoms: S_8  and  C_9 
REMARK    5  A    between atoms: C_15  and  C_16 
REMARK       I    between atoms: C_16  and  N_17 
REMARK    6  A    between atoms: N_17  and  C_18 
REMARK    7  A    between atoms: C_18  and  C_19 
REMARK    8  A    between atoms: C_19  and  O_20 
ROOT
HETATM    1  C   UNL     1       7.052  29.689  57.096  1.00  0.00     0.081 A 
HETATM    2  C   UNL     1       7.354  30.197  58.361  1.00  0.00     0.043 A 
HETATM    3  C   UNL     1       6.615  31.277  58.852  1.00  0.00     0.043 A 
HETATM    4  C   UNL     1       5.561  31.831  58.106  1.00  0.00     0.046 A 
HETATM    5  N   UNL     1       4.853  32.928  58.612  1.00  0.00    -0.364 N 
HETATM    6  C   UNL     1       5.107  33.403  59.875  1.00  0.00     0.109 A 
HETATM    7  C   UNL     1       6.078  32.963  60.694  1.00  0.00     0.098 A 
HETATM    8  C   UNL     1       6.937  31.856  60.184  1.00  0.00     0.201 A 
HETATM    9  O   UNL     1       7.888  31.422  60.828  1.00  0.00    -0.286 OA
HETATM   10  C   UNL     1       5.282  31.315  56.835  1.00  0.00     0.032 A 
HETATM   11  C   UNL     1       6.019  30.238  56.331  1.00  0.00     0.027 A 
HETATM   12  H   UNL     1       3.998  33.221  58.151  1.00  0.00     0.165 HD
ENDROOT
BRANCH   1  13
HETATM   13  S   UNL     1       7.962  28.281  56.494  1.00  0.00     0.263 S 
HETATM   14  O   UNL     1       9.087  28.064  57.377  1.00  0.00    -0.200 OA
HETATM   15  O   UNL     1       8.151  28.479  55.073  1.00  0.00    -0.200 OA
BRANCH  13  16
HETATM   16  N   UNL     1       6.851  27.024  56.658  1.00  0.00    -0.281 N 
HETATM   17  H   UNL     1       6.298  27.097  57.509  1.00  0.00     0.179 HD
BRANCH  16  18
HETATM   18  C   UNL     1       7.199  25.724  56.201  1.00  0.00     0.042 A 
HETATM   19  C   UNL     1       6.794  25.302  54.937  1.00  0.00     0.030 A 
HETATM   20  C   UNL     1       7.136  24.023  54.487  1.00  0.00     0.010 A 
HETATM   21  C   UNL     1       7.896  23.159  55.290  1.00  0.00    -0.055 A 
HETATM   22  C   UNL     1       8.277  23.593  56.567  1.00  0.00     0.010 A 
HETATM   23  C   UNL     1       7.926  24.867  57.022  1.00  0.00     0.030 A 
BRANCH  21  24
HETATM   24  C   UNL     1       8.302  21.772  54.820  1.00  0.00     0.010 C 
HETATM   25  C   UNL     1       7.917  21.511  53.362  1.00  0.00     0.015 C 
HETATM   26  C   UNL     1       7.725  20.693  55.739  1.00  0.00     0.015 C 
ENDBRANCH  21  24
ENDBRANCH  16  18
ENDBRANCH  13  16
ENDBRANCH   1  13
BRANCH   7  27
HETATM   27  C   UNL     1       6.232  33.615  62.026  1.00  0.00     0.257 C 
HETATM   28  N   UNL     1       6.402  32.763  63.085  1.00  0.00    -0.355 N 
HETATM   29  H   UNL     1       6.291  31.759  62.931  1.00  0.00     0.162 HD
HETATM   30  O   UNL     1       6.209  34.837  62.153  1.00  0.00    -0.267 OA
BRANCH  28  31
HETATM   31  C   UNL     1       6.511  33.230  64.454  1.00  0.00     0.149 C 
BRANCH  31  32
HETATM   32  C   UNL     1       5.146  33.486  65.096  1.00  0.00     0.186 C 
BRANCH  32  33
HETATM   33  O   UNL     1       5.293  34.457  66.139  1.00  0.00    -0.394 OA
HETATM   34  C   UNL     1       4.537  34.104  67.289  1.00  0.00     0.201 C 
ENDBRANCH  32  33
ENDBRANCH  31  32
ENDBRANCH  28  31
ENDBRANCH   7  27
TORSDOF 8
ENDMDL
MODEL 8
REMARK VINA RESULT:      -8.3      5.679      8.966
REMARK  8 active torsions:
REMARK  status: ('A' for Active; 'I' for Inactive)
REMARK    1  A    between atoms: C_2  and  C_3 
REMARK    2  A    between atoms: C_6  and  N_7 
REMARK    3  A    between atoms: N_7  and  S_8 
REMARK    4  A    between atoms: S_8  and  C_9 
REMARK    5  A    between atoms: C_15  and  C_16 
REMARK       I    between atoms: C_16  and  N_17 
REMARK    6  A    between atoms: N_17  and  C_18 
REMARK    7  A    between atoms: C_18  and  C_19 
REMARK    8  A    between atoms: C_19  and  O_20 
ROOT
HETATM    1  C   UNL     1       5.607  27.363  51.681  1.00  0.00     0.081 A 
HETATM    2  C   UNL     1       5.558  28.665  51.179  1.00  0.00     0.043 A 
HETATM    3  C   UNL     1       5.165  28.866  49.852  1.00  0.00     0.043 A 
HETATM    4  C   UNL     1       4.793  27.783  49.036  1.00  0.00     0.046 A 
HETATM    5  N   UNL     1       4.427  28.012  47.705  1.00  0.00    -0.364 N 
HETATM    6  C   UNL     1       4.324  29.290  47.215  1.00  0.00     0.109 A 
HETATM    7  C   UNL     1       4.643  30.412  47.887  1.00  0.00     0.098 A 
HETATM    8  C   UNL     1       5.132  30.241  49.285  1.00  0.00     0.201 A 
HETATM    9  O   UNL     1       5.505  31.193  49.964  1.00  0.00    -0.286 OA
HETATM   10  C   UNL     1       4.860  26.486  49.555  1.00  0.00     0.032 A 
HETATM   11  C   UNL     1       5.258  26.272  50.880  1.00  0.00     0.027 A 
HETATM   12  H   UNL     1       4.008  27.258  47.170  1.00  0.00     0.165 HD
ENDROOT
BRANCH   1  13
HETATM   13  S   UNL     1       6.059  27.114  53.385  1.00  0.00     0.263 S 
HETATM   14  O   UNL     1       5.091  26.218  53.980  1.00  0.00    -0.200 OA
HETATM   15  O   UNL     1       6.314  28.423  53.948  1.00  0.00    -0.200 OA
BRANCH  13  16
HETATM   16  N   UNL     1       7.555  26.346  53.265  1.00  0.00    -0.281 N 
HETATM   17  H   UNL     1       8.122  26.708  52.501  1.00  0.00     0.179 HD
BRANCH  16  18
HETATM   18  C   UNL     1       7.652  24.961  53.567  1.00  0.00     0.042 A 
HETATM   19  C   UNL     1       7.706  24.543  54.895  1.00  0.00     0.030 A 
HETATM   20  C   UNL     1       7.802  23.181  55.192  1.00  0.00     0.010 A 
HETATM   21  C   UNL     1       7.833  22.222  54.168  1.00  0.00    -0.055 A 
HETATM   22  C   UNL     1       7.799  22.663  52.837  1.00  0.00     0.010 A 
HETATM   23  C   UNL     1       7.714  24.025  52.539  1.00  0.00     0.030 A 
BRANCH  21  24
HETATM   24  C   UNL     1       7.914  20.733  54.460  1.00  0.00     0.010 C 
HETATM   25  C   UNL     1       8.396  20.440  55.883  1.00  0.00     0.015 C 
HETATM   26  C   UNL     1       8.793  20.021  53.429  1.00  0.00     0.015 C 
ENDBRANCH  21  24
ENDBRANCH  16  18
ENDBRANCH  13  16
ENDBRANCH   1  13
BRANCH   7  27
HETATM   27  C   UNL     1       4.498  31.722  47.190  1.00  0.00     0.257 C 
HETATM   28  N   UNL     1       5.418  32.678  47.532  1.00  0.00    -0.355 N 
HETATM   29  H   UNL     1       6.053  32.492  48.310  1.00  0.00     0.162 HD
HETATM   30  O   UNL     1       3.610  31.918  46.364  1.00  0.00    -0.267 OA
BRANCH  28  31
HETATM   31  C   UNL     1       5.386  34.022  46.988  1.00  0.00     0.149 C 
BRANCH  31  32
HETATM   32  C   UNL     1       6.342  34.199  45.807  1.00  0.00     0.186 C 
BRANCH  32  33
HETATM   33  O   UNL     1       7.680  34.333  46.303  1.00  0.00    -0.394 OA
HETATM   34  C   UNL     1       8.319  35.486  45.773  1.00  0.00     0.201 C 
ENDBRANCH  32  33
ENDBRANCH  31  32
ENDBRANCH  28  31
ENDBRANCH   7  27
TORSDOF 8
ENDMDL
MODEL 9
REMARK VINA RESULT:      -8.2      3.078      3.684
REMARK  8 active torsions:
REMARK  status: ('A' for Active; 'I' for Inactive)
REMARK    1  A    between atoms: C_2  and  C_3 
REMARK    2  A    between atoms: C_6  and  N_7 
REMARK    3  A    between atoms: N_7  and  S_8 
REMARK    4  A    between atoms: S_8  and  C_9 
REMARK    5  A    between atoms: C_15  and  C_16 
REMARK       I    between atoms: C_16  and  N_17 
REMARK    6  A    between atoms: N_17  and  C_18 
REMARK    7  A    between atoms: C_18  and  C_19 
REMARK    8  A    between atoms: C_19  and  O_20 
ROOT
HETATM    1  C   UNL     1       5.995  28.188  56.031  1.00  0.00     0.081 A 
HETATM    2  C   UNL     1       5.013  29.105  56.411  1.00  0.00     0.043 A 
HETATM    3  C   UNL     1       5.306  30.037  57.411  1.00  0.00     0.043 A 
HETATM    4  C   UNL     1       6.577  30.081  58.009  1.00  0.00     0.046 A 
HETATM    5  N   UNL     1       6.835  31.009  59.024  1.00  0.00    -0.364 N 
HETATM    6  C   UNL     1       5.896  31.948  59.371  1.00  0.00     0.109 A 
HETATM    7  C   UNL     1       4.647  32.023  58.876  1.00  0.00     0.098 A 
HETATM    8  C   UNL     1       4.267  31.005  57.855  1.00  0.00     0.201 A 
HETATM    9  O   UNL     1       3.135  30.949  57.385  1.00  0.00    -0.286 OA
HETATM   10  C   UNL     1       7.544  29.146  57.622  1.00  0.00     0.032 A 
HETATM   11  C   UNL     1       7.259  28.205  56.626  1.00  0.00     0.027 A 
HETATM   12  H   UNL     1       7.790  31.147  59.339  1.00  0.00     0.165 HD
ENDROOT
BRANCH   1  13
HETATM   13  S   UNL     1       5.636  27.036  54.722  1.00  0.00     0.263 S 
HETATM   14  O   UNL     1       4.914  27.743  53.687  1.00  0.00    -0.200 OA
HETATM   15  O   UNL     1       5.084  25.851  55.345  1.00  0.00    -0.200 OA
BRANCH  13  16
HETATM   16  N   UNL     1       7.170  26.613  54.167  1.00  0.00    -0.281 N 
HETATM   17  H   UNL     1       7.490  27.209  53.405  1.00  0.00     0.179 HD
BRANCH  16  18
HETATM   18  C   UNL     1       7.551  25.245  54.146  1.00  0.00     0.042 A 
HETATM   19  C   UNL     1       7.443  24.513  52.966  1.00  0.00     0.030 A 
HETATM   20  C   UNL     1       7.816  23.166  52.945  1.00  0.00     0.010 A 
HETATM   21  C   UNL     1       8.314  22.540  54.099  1.00  0.00    -0.055 A 
HETATM   22  C   UNL     1       8.396  23.288  55.283  1.00  0.00     0.010 A 
HETATM   23  C   UNL     1       8.012  24.631  55.307  1.00  0.00     0.030 A 
BRANCH  21  24
HETATM   24  C   UNL     1       8.750  21.085  54.103  1.00  0.00     0.010 C 
HETATM   25  C   UNL     1       8.398  20.365  52.798  1.00  0.00     0.015 C 
HETATM   26  C   UNL     1       8.169  20.344  55.309  1.00  0.00     0.015 C 
ENDBRANCH  21  24
ENDBRANCH  16  18
ENDBRANCH  13  16
ENDBRANCH   1  13
BRANCH   7  27
HETATM   27  C   UNL     1       3.744  33.094  59.388  1.00  0.00     0.257 C 
HETATM   28  N   UNL     1       4.149  34.378  59.138  1.00  0.00    -0.355 N 
HETATM   29  H   UNL     1       5.077  34.532  58.740  1.00  0.00     0.162 HD
HETATM   30  O   UNL     1       2.707  32.828  59.991  1.00  0.00    -0.267 OA
BRANCH  28  31
HETATM   31  C   UNL     1       3.415  35.535  59.614  1.00  0.00     0.149 C 
BRANCH  31  32
HETATM   32  C   UNL     1       4.040  36.149  60.868  1.00  0.00     0.186 C 
BRANCH  32  33
HETATM   33  O   UNL     1       4.202  37.558  60.670  1.00  0.00    -0.394 OA
HETATM   34  C   UNL     1       4.129  38.269  61.898  1.00  0.00     0.201 C 
ENDBRANCH  32  33
ENDBRANCH  31  32
ENDBRANCH  28  31
ENDBRANCH   7  27
TORSDOF 8
ENDMDL
MODEL 10
REMARK VINA RESULT:      -8.1      3.577     11.680
REMARK  8 active torsions:
REMARK  status: ('A' for Active; 'I' for Inactive)
REMARK    1  A    between atoms: C_2  and  C_3 
REMARK    2  A    between atoms: C_6  and  N_7 
REMARK    3  A    between atoms: N_7  and  S_8 
REMARK    4  A    between atoms: S_8  and  C_9 
REMARK    5  A    between atoms: C_15  and  C_16 
REMARK       I    between atoms: C_16  and  N_17 
REMARK    6  A    between atoms: N_17  and  C_18 
REMARK    7  A    between atoms: C_18  and  C_19 
REMARK    8  A    between atoms: C_19  and  O_20 
ROOT
HETATM    1  C   UNL     1       6.468  32.523  61.942  1.00  0.00     0.081 A 
HETATM    2  C   UNL     1       6.240  31.936  60.696  1.00  0.00     0.043 A 
HETATM    3  C   UNL     1       7.325  31.417  59.982  1.00  0.00     0.043 A 
HETATM    4  C   UNL     1       8.625  31.453  60.516  1.00  0.00     0.046 A 
HETATM    5  N   UNL     1       9.695  30.947  59.769  1.00  0.00    -0.364 N 
HETATM    6  C   UNL     1       9.478  30.322  58.566  1.00  0.00     0.109 A 
HETATM    7  C   UNL     1       8.289  30.213  57.946  1.00  0.00     0.098 A 
HETATM    8  C   UNL     1       7.113  30.813  58.639  1.00  0.00     0.201 A 
HETATM    9  O   UNL     1       5.995  30.821  58.132  1.00  0.00    -0.286 OA
HETATM   10  C   UNL     1       8.833  32.056  61.761  1.00  0.00     0.032 A 
HETATM   11  C   UNL     1       7.755  32.583  62.481  1.00  0.00     0.027 A 
HETATM   12  H   UNL     1      10.598  30.828  60.216  1.00  0.00     0.165 HD
ENDROOT
BRANCH   1  13
HETATM   13  S   UNL     1       5.078  33.137  62.870  1.00  0.00     0.263 S 
HETATM   14  O   UNL     1       4.766  32.172  63.902  1.00  0.00    -0.200 OA
HETATM   15  O   UNL     1       4.080  33.554  61.908  1.00  0.00    -0.200 OA
BRANCH  13  16
HETATM   16  N   UNL     1       5.689  34.546  63.566  1.00  0.00    -0.281 N 
HETATM   17  H   UNL     1       6.437  34.963  63.016  1.00  0.00     0.179 HD
BRANCH  16  18
HETATM   18  C   UNL     1       5.768  34.645  64.981  1.00  0.00     0.042 A 
HETATM   19  C   UNL     1       4.801  35.363  65.681  1.00  0.00     0.030 A 
HETATM   20  C   UNL     1       4.879  35.461  67.073  1.00  0.00     0.010 A 
HETATM   21  C   UNL     1       5.916  34.834  67.781  1.00  0.00    -0.055 A 
HETATM   22  C   UNL     1       6.892  34.134  67.057  1.00  0.00     0.010 A 
HETATM   23  C   UNL     1       6.821  34.044  65.665  1.00  0.00     0.030 A 
BRANCH  21  24
HETATM   24  C   UNL     1       6.015  34.904  69.296  1.00  0.00     0.010 C 
HETATM   25  C   UNL     1       7.256  35.667  69.767  1.00  0.00     0.015 C 
HETATM   26  C   UNL     1       5.968  33.504  69.911  1.00  0.00     0.015 C 
ENDBRANCH  21  24
ENDBRANCH  16  18
ENDBRANCH  13  16
ENDBRANCH   1  13
BRANCH   7  27
HETATM   27  C   UNL     1       8.238  29.525  56.625  1.00  0.00     0.257 C 
HETATM   28  N   UNL     1       7.186  28.666  56.446  1.00  0.00    -0.355 N 
HETATM   29  H   UNL     1       6.584  28.454  57.243  1.00  0.00     0.162 HD
HETATM   30  O   UNL     1       9.089  29.724  55.761  1.00  0.00    -0.267 OA
BRANCH  28  31
HETATM   31  C   UNL     1       7.019  27.876  55.241  1.00  0.00     0.149 C 
BRANCH  31  32
HETATM   32  C   UNL     1       6.003  28.488  54.276  1.00  0.00     0.186 C 
BRANCH  32  33
HETATM   33  O   UNL     1       6.425  28.239  52.930  1.00  0.00    -0.394 OA
HETATM   34  C   UNL     1       6.031  26.946  52.491  1.00  0.00     0.201 C 
ENDBRANCH  32  33
ENDBRANCH  31  32
ENDBRANCH  28  31
ENDBRANCH   7  27
TORSDOF 8
ENDMDL
