MODEL 1
REMARK VINA RESULT:     -10.2      0.000      0.000
REMARK  7 active torsions:
REMARK  status: ('A' for Active; 'I' for Inactive)
REMARK    1  A    between atoms: C_2  and  C_3 
REMARK    2  A    between atoms: C_7  and  C_8 
REMARK       I    between atoms: C_8  and  N_9 
REMARK    3  A    between atoms: N_9  and  C_10 
REMARK    4  A    between atoms: C_10  and  C_11 
REMARK    5  A    between atoms: C_13  and  N_14 
REMARK       I    between atoms: N_14  and  C_15 
REMARK    6  A    between atoms: C_15  and  C_16 
REMARK    7  A    between atoms: C_20  and  C_21 
ROOT
HETATM    1  C   UNL     1       7.580  29.767  58.278  1.00  0.00    -0.035 A 
HETATM    2  C   UNL     1       7.692  28.468  57.762  1.00  0.00     0.059 A 
HETATM    3  C   UNL     1       6.949  28.107  56.639  1.00  0.00     0.130 A 
HETATM    4  N   UNL     1       6.094  28.959  56.052  1.00  0.00    -0.243 NA
HETATM    5  C   UNL     1       5.968  30.196  56.574  1.00  0.00     0.119 A 
HETATM    6  C   UNL     1       6.683  30.645  57.669  1.00  0.00     0.028 A 
ENDROOT
BRANCH   1   7
HETATM    7  C   UNL     1       8.415  30.202  59.448  1.00  0.00     0.161 C 
BRANCH   7   8
HETATM    8  N   UNL     1       7.622  30.855  60.459  1.00  0.00    -0.351 N 
HETATM    9  C   UNL     1       8.031  30.945  61.767  1.00  0.00     0.270 C 
HETATM   10  O   UNL     1       9.075  30.441  62.170  1.00  0.00    -0.266 OA
HETATM   11  H   UNL     1       6.717  31.213  60.198  1.00  0.00     0.163 HD
BRANCH   9  12
HETATM   12  C   UNL     1       7.156  31.692  62.630  1.00  0.00     0.119 A 
HETATM   13  N   UNL     1       5.836  31.362  62.773  1.00  0.00    -0.273 N 
HETATM   14  N   UNL     1       5.164  32.136  63.639  1.00  0.00    -0.178 NA
HETATM   15  H   UNL     1       5.344  30.604  62.308  1.00  0.00     0.189 HD
HETATM   16  C   UNL     1       6.075  33.013  64.078  1.00  0.00     0.064 A 
HETATM   17  C   UNL     1       7.336  32.775  63.468  1.00  0.00     0.066 A 
BRANCH  16  18
HETATM   18  C   UNL     1       5.728  34.078  65.108  1.00  0.00    -0.005 C 
HETATM   19  C   UNL     1       5.737  35.500  64.507  1.00  0.00     0.021 C 
HETATM   20  C   UNL     1       6.749  34.047  66.265  1.00  0.00     0.021 C 
HETATM   21  C   UNL     1       4.320  33.811  65.679  1.00  0.00     0.021 C 
ENDBRANCH  16  18
ENDBRANCH   9  12
ENDBRANCH   7   8
ENDBRANCH   1   7
BRANCH   3  22
HETATM   22  N   UNL     1       7.152  26.821  56.121  1.00  0.00    -0.306 N 
HETATM   23  C   UNL     1       6.217  25.809  56.106  1.00  0.00     0.275 C 
HETATM   24  O   UNL     1       5.083  25.859  56.569  1.00  0.00    -0.266 OA
HETATM   25  H   UNL     1       8.035  26.653  55.671  1.00  0.00     0.170 HD
BRANCH  23  26
HETATM   26  C   UNL     1       6.662  24.608  55.432  1.00  0.00     0.120 A 
HETATM   27  N   UNL     1       6.406  24.416  54.102  1.00  0.00    -0.273 N 
HETATM   28  H   UNL     1       5.904  25.049  53.486  1.00  0.00     0.189 HD
HETATM   29  N   UNL     1       6.910  23.277  53.603  1.00  0.00    -0.178 NA
HETATM   30  C   UNL     1       7.485  22.678  54.654  1.00  0.00     0.064 A 
HETATM   31  C   UNL     1       7.360  23.481  55.821  1.00  0.00     0.066 A 
BRANCH  30  32
HETATM   32  C   UNL     1       8.187  21.339  54.484  1.00  0.00    -0.005 C 
HETATM   33  C   UNL     1       9.713  21.546  54.550  1.00  0.00     0.021 C 
HETATM   34  C   UNL     1       7.783  20.343  55.592  1.00  0.00     0.021 C 
HETATM   35  C   UNL     1       7.831  20.693  53.128  1.00  0.00     0.021 C 
ENDBRANCH  30  32
ENDBRANCH  23  26
ENDBRANCH   3  22
TORSDOF 7
ENDMDL
MODEL 2
REMARK VINA RESULT:     -10.1      1.419     11.700
REMARK  7 active torsions:
REMARK  status: ('A' for Active; 'I' for Inactive)
REMARK    1  A    between atoms: C_2  and  C_3 
REMARK    2  A    between atoms: C_7  and  C_8 
REMARK       I    between atoms: C_8  and  N_9 
REMARK    3  A    between atoms: N_9  and  C_10 
REMARK    4  A    between atoms: C_10  and  C_11 
REMARK    5  A    between atoms: C_13  and  N_14 
REMARK       I    between atoms: N_14  and  C_15 
REMARK    6  A    between atoms: C_15  and  C_16 
REMARK    7  A    between atoms: C_20  and  C_21 
ROOT
HETATM    1  C   UNL     1       7.470  29.057  56.571  1.00  0.00    -0.035 A 
HETATM    2  C   UNL     1       7.059  29.631  57.782  1.00  0.00     0.059 A 
HETATM    3  C   UNL     1       8.006  30.204  58.629  1.00  0.00     0.130 A 
HETATM    4  N   UNL     1       9.317  30.189  58.337  1.00  0.00    -0.243 NA
HETATM    5  C   UNL     1       9.707  29.606  57.186  1.00  0.00     0.119 A 
HETATM    6  C   UNL     1       8.834  29.037  56.278  1.00  0.00     0.028 A 
ENDROOT
BRANCH   1   7
HETATM    7  C   UNL     1       6.464  28.488  55.611  1.00  0.00     0.161 C 
BRANCH   7   8
HETATM    8  N   UNL     1       6.815  27.155  55.192  1.00  0.00    -0.351 N 
HETATM    9  C   UNL     1       6.142  26.045  55.639  1.00  0.00     0.270 C 
HETATM   10  O   UNL     1       5.226  26.109  56.454  1.00  0.00    -0.266 OA
HETATM   11  H   UNL     1       7.615  27.039  54.589  1.00  0.00     0.163 HD
BRANCH   9  12
HETATM   12  C   UNL     1       6.574  24.797  55.067  1.00  0.00     0.119 A 
HETATM   13  N   UNL     1       6.334  24.487  53.757  1.00  0.00    -0.273 N 
HETATM   14  N   UNL     1       6.831  23.303  53.370  1.00  0.00    -0.178 NA
HETATM   15  H   UNL     1       5.843  25.060  53.077  1.00  0.00     0.189 HD
HETATM   16  C   UNL     1       7.414  22.811  54.470  1.00  0.00     0.064 A 
HETATM   17  C   UNL     1       7.274  23.712  55.559  1.00  0.00     0.066 A 
BRANCH  16  18
HETATM   18  C   UNL     1       8.129  21.467  54.463  1.00  0.00    -0.005 C 
HETATM   19  C   UNL     1       7.886  20.681  53.157  1.00  0.00     0.021 C 
HETATM   20  C   UNL     1       7.632  20.599  55.637  1.00  0.00     0.021 C 
HETATM   21  C   UNL     1       9.649  21.685  54.613  1.00  0.00     0.021 C 
ENDBRANCH  16  18
ENDBRANCH   9  12
ENDBRANCH   7   8
ENDBRANCH   1   7
BRANCH   3  22
HETATM   22  N   UNL     1       7.535  30.829  59.791  1.00  0.00    -0.306 N 
HETATM   23  C   UNL     1       6.825  32.008  59.831  1.00  0.00     0.275 C 
HETATM   24  O   UNL     1       6.524  32.710  58.873  1.00  0.00    -0.266 OA
HETATM   25  H   UNL     1       7.681  30.336  60.655  1.00  0.00     0.170 HD
BRANCH  23  26
HETATM   26  C   UNL     1       6.388  32.385  61.159  1.00  0.00     0.120 A 
HETATM   27  N   UNL     1       5.484  31.617  61.842  1.00  0.00    -0.273 N 
HETATM   28  H   UNL     1       5.048  30.762  61.513  1.00  0.00     0.189 HD
HETATM   29  N   UNL     1       5.201  32.067  63.073  1.00  0.00    -0.178 NA
HETATM   30  C   UNL     1       5.912  33.195  63.189  1.00  0.00     0.064 A 
HETATM   31  C   UNL     1       6.678  33.430  62.015  1.00  0.00     0.066 A 
BRANCH  30  32
HETATM   32  C   UNL     1       5.861  34.007  64.476  1.00  0.00    -0.005 C 
HETATM   33  C   UNL     1       5.775  35.508  64.136  1.00  0.00     0.021 C 
HETATM   34  C   UNL     1       4.634  33.631  65.333  1.00  0.00     0.021 C 
HETATM   35  C   UNL     1       7.119  33.763  65.337  1.00  0.00     0.021 C 
ENDBRANCH  30  32
ENDBRANCH  23  26
ENDBRANCH   3  22
TORSDOF 7
ENDMDL
MODEL 3
REMARK VINA RESULT:     -10.0      1.393     11.722
REMARK  7 active torsions:
REMARK  status: ('A' for Active; 'I' for Inactive)
REMARK    1  A    between atoms: C_2  and  C_3 
REMARK    2  A    between atoms: C_7  and  C_8 
REMARK       I    between atoms: C_8  and  N_9 
REMARK    3  A    between atoms: N_9  and  C_10 
REMARK    4  A    between atoms: C_10  and  C_11 
REMARK    5  A    between atoms: C_13  and  N_14 
REMARK       I    between atoms: N_14  and  C_15 
REMARK    6  A    between atoms: C_15  and  C_16 
REMARK    7  A    between atoms: C_20  and  C_21 
ROOT
HETATM    1  C   UNL     1       8.216  29.044  56.988  1.00  0.00    -0.035 A 
HETATM    2  C   UNL     1       7.619  29.563  58.145  1.00  0.00     0.059 A 
HETATM    3  C   UNL     1       8.364  30.373  58.999  1.00  0.00     0.130 A 
HETATM    4  N   UNL     1       9.658  30.645  58.767  1.00  0.00    -0.243 NA
HETATM    5  C   UNL     1      10.233  30.116  57.668  1.00  0.00     0.119 A 
HETATM    6  C   UNL     1       9.563  29.322  56.756  1.00  0.00     0.028 A 
ENDROOT
BRANCH   1   7
HETATM    7  C   UNL     1       7.419  28.218  56.018  1.00  0.00     0.161 C 
BRANCH   7   8
HETATM    8  N   UNL     1       7.666  26.808  56.183  1.00  0.00    -0.351 N 
HETATM    9  C   UNL     1       7.164  25.870  55.316  1.00  0.00     0.270 C 
HETATM   10  O   UNL     1       6.440  26.163  54.369  1.00  0.00    -0.266 OA
HETATM   11  H   UNL     1       8.184  26.506  56.993  1.00  0.00     0.163 HD
BRANCH   9  12
HETATM   12  C   UNL     1       7.565  24.514  55.585  1.00  0.00     0.119 A 
HETATM   13  N   UNL     1       8.007  24.129  56.821  1.00  0.00    -0.273 N 
HETATM   14  N   UNL     1       8.310  22.825  56.916  1.00  0.00    -0.178 NA
HETATM   15  H   UNL     1       8.109  24.719  57.641  1.00  0.00     0.189 HD
HETATM   16  C   UNL     1       8.065  22.335  55.695  1.00  0.00     0.064 A 
HETATM   17  C   UNL     1       7.600  23.360  54.827  1.00  0.00     0.066 A 
BRANCH  16  18
HETATM   18  C   UNL     1       8.263  20.862  55.370  1.00  0.00    -0.005 C 
HETATM   19  C   UNL     1       9.665  20.357  55.773  1.00  0.00     0.021 C 
HETATM   20  C   UNL     1       8.093  20.628  53.855  1.00  0.00     0.021 C 
HETATM   21  C   UNL     1       7.216  20.016  56.125  1.00  0.00     0.021 C 
ENDBRANCH  16  18
ENDBRANCH   9  12
ENDBRANCH   7   8
ENDBRANCH   1   7
BRANCH   3  22
HETATM   22  N   UNL     1       7.700  30.926  60.103  1.00  0.00    -0.306 N 
HETATM   23  C   UNL     1       8.138  30.870  61.408  1.00  0.00     0.275 C 
HETATM   24  O   UNL     1       9.148  30.307  61.814  1.00  0.00    -0.266 OA
HETATM   25  H   UNL     1       6.868  31.456  59.907  1.00  0.00     0.170 HD
BRANCH  23  26
HETATM   26  C   UNL     1       7.302  31.598  62.339  1.00  0.00     0.120 A 
HETATM   27  N   UNL     1       6.015  31.199  62.582  1.00  0.00    -0.273 N 
HETATM   28  H   UNL     1       5.538  30.408  62.160  1.00  0.00     0.189 HD
HETATM   29  N   UNL     1       5.372  31.943  63.494  1.00  0.00    -0.178 NA
HETATM   30  C   UNL     1       6.255  32.891  63.834  1.00  0.00     0.064 A 
HETATM   31  C   UNL     1       7.482  32.709  63.140  1.00  0.00     0.066 A 
BRANCH  30  32
HETATM   32  C   UNL     1       5.890  33.942  64.874  1.00  0.00    -0.005 C 
HETATM   33  C   UNL     1       6.937  33.932  66.005  1.00  0.00     0.021 C 
HETATM   34  C   UNL     1       5.851  35.356  64.258  1.00  0.00     0.021 C 
HETATM   35  C   UNL     1       4.498  33.662  65.481  1.00  0.00     0.021 C 
ENDBRANCH  30  32
ENDBRANCH  23  26
ENDBRANCH   3  22
TORSDOF 7
ENDMDL
MODEL 4
REMARK VINA RESULT:      -9.5      2.533      3.234
REMARK  7 active torsions:
REMARK  status: ('A' for Active; 'I' for Inactive)
REMARK    1  A    between atoms: C_2  and  C_3 
REMARK    2  A    between atoms: C_7  and  C_8 
REMARK       I    between atoms: C_8  and  N_9 
REMARK    3  A    between atoms: N_9  and  C_10 
REMARK    4  A    between atoms: C_10  and  C_11 
REMARK    5  A    between atoms: C_13  and  N_14 
REMARK       I    between atoms: N_14  and  C_15 
REMARK    6  A    between atoms: C_15  and  C_16 
REMARK    7  A    between atoms: C_20  and  C_21 
ROOT
HETATM    1  C   UNL     1       6.473  31.235  58.700  1.00  0.00    -0.035 A 
HETATM    2  C   UNL     1       6.613  30.163  57.808  1.00  0.00     0.059 A 
HETATM    3  C   UNL     1       7.729  29.333  57.899  1.00  0.00     0.130 A 
HETATM    4  N   UNL     1       8.702  29.551  58.799  1.00  0.00    -0.243 NA
HETATM    5  C   UNL     1       8.574  30.604  59.632  1.00  0.00     0.119 A 
HETATM    6  C   UNL     1       7.491  31.462  59.627  1.00  0.00     0.028 A 
ENDROOT
BRANCH   1   7
HETATM    7  C   UNL     1       5.250  32.108  58.664  1.00  0.00     0.161 C 
BRANCH   7   8
HETATM    8  N   UNL     1       4.991  32.721  59.943  1.00  0.00    -0.351 N 
HETATM    9  C   UNL     1       3.742  32.725  60.513  1.00  0.00     0.270 C 
HETATM   10  O   UNL     1       2.758  32.246  59.958  1.00  0.00    -0.266 OA
HETATM   11  H   UNL     1       5.747  33.203  60.403  1.00  0.00     0.163 HD
BRANCH   9  12
HETATM   12  C   UNL     1       3.672  33.316  61.823  1.00  0.00     0.119 A 
HETATM   13  N   UNL     1       2.577  33.153  62.627  1.00  0.00    -0.273 N 
HETATM   14  N   UNL     1       2.683  33.738  63.829  1.00  0.00    -0.178 NA
HETATM   15  H   UNL     1       1.731  32.637  62.404  1.00  0.00     0.189 HD
HETATM   16  C   UNL     1       3.891  34.315  63.814  1.00  0.00     0.064 A 
HETATM   17  C   UNL     1       4.544  34.079  62.575  1.00  0.00     0.066 A 
BRANCH  16  18
HETATM   18  C   UNL     1       4.425  35.083  65.015  1.00  0.00    -0.005 C 
HETATM   19  C   UNL     1       4.804  36.537  64.659  1.00  0.00     0.021 C 
HETATM   20  C   UNL     1       5.686  34.387  65.568  1.00  0.00     0.021 C 
HETATM   21  C   UNL     1       3.353  35.127  66.124  1.00  0.00     0.021 C 
ENDBRANCH  16  18
ENDBRANCH   9  12
ENDBRANCH   7   8
ENDBRANCH   1   7
BRANCH   3  22
HETATM   22  N   UNL     1       7.785  28.234  57.032  1.00  0.00    -0.306 N 
HETATM   23  C   UNL     1       7.724  26.911  57.415  1.00  0.00     0.275 C 
HETATM   24  O   UNL     1       7.646  26.488  58.562  1.00  0.00    -0.266 OA
HETATM   25  H   UNL     1       7.812  28.439  56.048  1.00  0.00     0.170 HD
BRANCH  23  26
HETATM   26  C   UNL     1       7.718  25.980  56.307  1.00  0.00     0.120 A 
HETATM   27  N   UNL     1       8.300  24.747  56.427  1.00  0.00    -0.273 N 
HETATM   28  H   UNL     1       8.772  24.379  57.248  1.00  0.00     0.189 HD
HETATM   29  N   UNL     1       8.187  23.976  55.335  1.00  0.00    -0.178 NA
HETATM   30  C   UNL     1       7.541  24.746  54.449  1.00  0.00     0.064 A 
HETATM   31  C   UNL     1       7.221  26.008  55.019  1.00  0.00     0.066 A 
BRANCH  30  32
HETATM   32  C   UNL     1       7.211  24.209  53.064  1.00  0.00    -0.005 C 
HETATM   33  C   UNL     1       7.577  22.713  52.990  1.00  0.00     0.021 C 
HETATM   34  C   UNL     1       5.709  24.358  52.742  1.00  0.00     0.021 C 
HETATM   35  C   UNL     1       7.997  24.968  51.973  1.00  0.00     0.021 C 
ENDBRANCH  30  32
ENDBRANCH  23  26
ENDBRANCH   3  22
TORSDOF 7
ENDMDL
MODEL 5
REMARK VINA RESULT:      -9.5      2.065      2.444
REMARK  7 active torsions:
REMARK  status: ('A' for Active; 'I' for Inactive)
REMARK    1  A    between atoms: C_2  and  C_3 
REMARK    2  A    between atoms: C_7  and  C_8 
REMARK       I    between atoms: C_8  and  N_9 
REMARK    3  A    between atoms: N_9  and  C_10 
REMARK    4  A    between atoms: C_10  and  C_11 
REMARK    5  A    between atoms: C_13  and  N_14 
REMARK       I    between atoms: N_14  and  C_15 
REMARK    6  A    between atoms: C_15  and  C_16 
REMARK    7  A    between atoms: C_20  and  C_21 
ROOT
HETATM    1  C   UNL     1       6.503  30.278  58.024  1.00  0.00    -0.035 A 
HETATM    2  C   UNL     1       6.487  29.034  57.379  1.00  0.00     0.059 A 
HETATM    3  C   UNL     1       7.657  28.279  57.310  1.00  0.00     0.130 A 
HETATM    4  N   UNL     1       8.819  28.727  57.814  1.00  0.00    -0.243 NA
HETATM    5  C   UNL     1       8.832  29.939  58.404  1.00  0.00     0.119 A 
HETATM    6  C   UNL     1       7.715  30.742  58.538  1.00  0.00     0.028 A 
ENDROOT
BRANCH   1   7
HETATM    7  C   UNL     1       5.243  31.084  58.167  1.00  0.00     0.161 C 
BRANCH   7   8
HETATM    8  N   UNL     1       5.177  31.755  59.441  1.00  0.00    -0.351 N 
HETATM    9  C   UNL     1       4.006  31.872  60.148  1.00  0.00     0.270 C 
HETATM   10  O   UNL     1       2.933  31.450  59.727  1.00  0.00    -0.266 OA
HETATM   11  H   UNL     1       6.013  32.194  59.793  1.00  0.00     0.163 HD
BRANCH   9  12
HETATM   12  C   UNL     1       4.130  32.508  61.433  1.00  0.00     0.119 A 
HETATM   13  N   UNL     1       3.052  32.669  62.260  1.00  0.00    -0.273 N 
HETATM   14  N   UNL     1       3.342  33.250  63.435  1.00  0.00    -0.178 NA
HETATM   15  H   UNL     1       2.095  32.387  62.074  1.00  0.00     0.189 HD
HETATM   16  C   UNL     1       4.658  33.486  63.375  1.00  0.00     0.064 A 
HETATM   17  C   UNL     1       5.192  33.041  62.136  1.00  0.00     0.066 A 
BRANCH  16  18
HETATM   18  C   UNL     1       5.408  34.130  64.533  1.00  0.00    -0.005 C 
HETATM   19  C   UNL     1       4.601  34.091  65.848  1.00  0.00     0.021 C 
HETATM   20  C   UNL     1       5.713  35.607  64.208  1.00  0.00     0.021 C 
HETATM   21  C   UNL     1       6.739  33.387  64.768  1.00  0.00     0.021 C 
ENDBRANCH  16  18
ENDBRANCH   9  12
ENDBRANCH   7   8
ENDBRANCH   1   7
BRANCH   3  22
HETATM   22  N   UNL     1       7.571  27.012  56.720  1.00  0.00    -0.306 N 
HETATM   23  C   UNL     1       7.217  26.762  55.412  1.00  0.00     0.275 C 
HETATM   24  O   UNL     1       6.890  27.595  54.575  1.00  0.00    -0.266 OA
HETATM   25  H   UNL     1       7.851  26.232  57.289  1.00  0.00     0.170 HD
BRANCH  23  26
HETATM   26  C   UNL     1       7.291  25.365  55.040  1.00  0.00     0.120 A 
HETATM   27  N   UNL     1       6.488  24.861  54.053  1.00  0.00    -0.273 N 
HETATM   28  H   UNL     1       5.796  25.375  53.516  1.00  0.00     0.189 HD
HETATM   29  N   UNL     1       6.691  23.562  53.789  1.00  0.00    -0.178 NA
HETATM   30  C   UNL     1       7.634  23.187  54.662  1.00  0.00     0.064 A 
HETATM   31  C   UNL     1       8.046  24.289  55.462  1.00  0.00     0.066 A 
BRANCH  30  32
HETATM   32  C   UNL     1       8.149  21.755  54.668  1.00  0.00    -0.005 C 
HETATM   33  C   UNL     1       9.682  21.759  54.835  1.00  0.00     0.021 C 
HETATM   34  C   UNL     1       7.536  20.938  55.825  1.00  0.00     0.021 C 
HETATM   35  C   UNL     1       7.794  21.032  53.351  1.00  0.00     0.021 C 
ENDBRANCH  30  32
ENDBRANCH  23  26
ENDBRANCH   3  22
TORSDOF 7
ENDMDL
MODEL 6
REMARK VINA RESULT:      -9.3      3.971      6.591
REMARK  7 active torsions:
REMARK  status: ('A' for Active; 'I' for Inactive)
REMARK    1  A    between atoms: C_2  and  C_3 
REMARK    2  A    between atoms: C_7  and  C_8 
REMARK       I    between atoms: C_8  and  N_9 
REMARK    3  A    between atoms: N_9  and  C_10 
REMARK    4  A    between atoms: C_10  and  C_11 
REMARK    5  A    between atoms: C_13  and  N_14 
REMARK       I    between atoms: N_14  and  C_15 
REMARK    6  A    between atoms: C_15  and  C_16 
REMARK    7  A    between atoms: C_20  and  C_21 
ROOT
HETATM    1  C   UNL     1       6.682  33.596  62.980  1.00  0.00    -0.035 A 
HETATM    2  C   UNL     1       6.320  33.083  61.727  1.00  0.00     0.059 A 
HETATM    3  C   UNL     1       6.975  31.958  61.228  1.00  0.00     0.130 A 
HETATM    4  N   UNL     1       7.977  31.367  61.899  1.00  0.00    -0.243 NA
HETATM    5  C   UNL     1       8.340  31.886  63.089  1.00  0.00     0.119 A 
HETATM    6  C   UNL     1       7.730  32.983  63.668  1.00  0.00     0.028 A 
ENDROOT
BRANCH   1   7
HETATM    7  C   UNL     1       5.951  34.769  63.569  1.00  0.00     0.161 C 
BRANCH   7   8
HETATM    8  N   UNL     1       6.059  34.802  65.006  1.00  0.00    -0.351 N 
HETATM    9  C   UNL     1       5.184  34.130  65.823  1.00  0.00     0.270 C 
HETATM   10  O   UNL     1       4.230  33.492  65.388  1.00  0.00    -0.266 OA
HETATM   11  H   UNL     1       6.775  35.380  65.417  1.00  0.00     0.163 HD
BRANCH   9  12
HETATM   12  C   UNL     1       5.477  34.210  67.229  1.00  0.00     0.119 A 
HETATM   13  N   UNL     1       4.708  33.567  68.160  1.00  0.00    -0.273 N 
HETATM   14  N   UNL     1       5.135  33.715  69.424  1.00  0.00    -0.178 NA
HETATM   15  H   UNL     1       3.884  33.002  67.982  1.00  0.00     0.189 HD
HETATM   16  C   UNL     1       6.222  34.490  69.321  1.00  0.00     0.064 A 
HETATM   17  C   UNL     1       6.471  34.828  67.964  1.00  0.00     0.066 A 
BRANCH  16  18
HETATM   18  C   UNL     1       7.036  34.891  70.543  1.00  0.00    -0.005 C 
HETATM   19  C   UNL     1       6.144  35.211  71.762  1.00  0.00     0.021 C 
HETATM   20  C   UNL     1       7.876  36.146  70.228  1.00  0.00     0.021 C 
HETATM   21  C   UNL     1       7.986  33.741  70.936  1.00  0.00     0.021 C 
ENDBRANCH  16  18
ENDBRANCH   9  12
ENDBRANCH   7   8
ENDBRANCH   1   7
BRANCH   3  22
HETATM   22  N   UNL     1       6.526  31.443  60.005  1.00  0.00    -0.306 N 
HETATM   23  C   UNL     1       7.268  31.374  58.846  1.00  0.00     0.275 C 
HETATM   24  O   UNL     1       8.414  31.779  58.691  1.00  0.00    -0.266 OA
HETATM   25  H   UNL     1       5.606  31.037  60.000  1.00  0.00     0.170 HD
BRANCH  23  26
HETATM   26  C   UNL     1       6.588  30.716  57.751  1.00  0.00     0.120 A 
HETATM   27  N   UNL     1       5.592  31.354  57.062  1.00  0.00    -0.273 N 
HETATM   28  H   UNL     1       5.243  32.292  57.236  1.00  0.00     0.189 HD
HETATM   29  N   UNL     1       5.078  30.640  56.051  1.00  0.00    -0.178 NA
HETATM   30  C   UNL     1       5.731  29.471  56.101  1.00  0.00     0.064 A 
HETATM   31  C   UNL     1       6.693  29.478  57.148  1.00  0.00     0.066 A 
BRANCH  30  32
HETATM   32  C   UNL     1       5.426  28.377  55.088  1.00  0.00    -0.005 C 
HETATM   33  C   UNL     1       5.230  27.036  55.821  1.00  0.00     0.021 C 
HETATM   34  C   UNL     1       4.143  28.688  54.289  1.00  0.00     0.021 C 
HETATM   35  C   UNL     1       6.580  28.225  54.073  1.00  0.00     0.021 C 
ENDBRANCH  30  32
ENDBRANCH  23  26
ENDBRANCH   3  22
TORSDOF 7
ENDMDL
MODEL 7
REMARK VINA RESULT:      -9.1      4.234      5.237
REMARK  7 active torsions:
REMARK  status: ('A' for Active; 'I' for Inactive)
REMARK    1  A    between atoms: C_2  and  C_3 
REMARK    2  A    between atoms: C_7  and  C_8 
REMARK       I    between atoms: C_8  and  N_9 
REMARK    3  A    between atoms: N_9  and  C_10 
REMARK    4  A    between atoms: C_10  and  C_11 
REMARK    5  A    between atoms: C_13  and  N_14 
REMARK       I    between atoms: N_14  and  C_15 
REMARK    6  A    between atoms: C_15  and  C_16 
REMARK    7  A    between atoms: C_20  and  C_21 
ROOT
HETATM    1  C   UNL     1       8.093  27.990  56.623  1.00  0.00    -0.035 A 
HETATM    2  C   UNL     1       7.453  28.083  55.379  1.00  0.00     0.059 A 
HETATM    3  C   UNL     1       6.591  27.067  54.971  1.00  0.00     0.130 A 
HETATM    4  N   UNL     1       6.379  25.974  55.722  1.00  0.00    -0.243 NA
HETATM    5  C   UNL     1       7.023  25.878  56.903  1.00  0.00     0.119 A 
HETATM    6  C   UNL     1       7.876  26.848  57.395  1.00  0.00     0.028 A 
ENDROOT
BRANCH   1   7
HETATM    7  C   UNL     1       8.978  29.099  57.115  1.00  0.00     0.161 C 
BRANCH   7   8
HETATM    8  N   UNL     1       8.568  29.580  58.411  1.00  0.00    -0.351 N 
HETATM    9  C   UNL     1       9.159  30.664  59.011  1.00  0.00     0.270 C 
HETATM   10  O   UNL     1      10.100  31.268  58.508  1.00  0.00    -0.266 OA
HETATM   11  H   UNL     1       7.855  29.067  58.906  1.00  0.00     0.163 HD
BRANCH   9  12
HETATM   12  C   UNL     1       8.581  31.054  60.270  1.00  0.00     0.119 A 
HETATM   13  N   UNL     1       8.820  30.349  61.418  1.00  0.00    -0.273 N 
HETATM   14  N   UNL     1       8.235  30.862  62.511  1.00  0.00    -0.178 NA
HETATM   15  H   UNL     1       9.389  29.513  61.512  1.00  0.00     0.189 HD
HETATM   16  C   UNL     1       7.580  31.941  62.065  1.00  0.00     0.064 A 
HETATM   17  C   UNL     1       7.765  32.097  60.664  1.00  0.00     0.066 A 
BRANCH  16  18
HETATM   18  C   UNL     1       6.785  32.838  63.002  1.00  0.00    -0.005 C 
HETATM   19  C   UNL     1       7.548  33.145  64.308  1.00  0.00     0.021 C 
HETATM   20  C   UNL     1       5.453  32.157  63.381  1.00  0.00     0.021 C 
HETATM   21  C   UNL     1       6.477  34.179  62.303  1.00  0.00     0.021 C 
ENDBRANCH  16  18
ENDBRANCH   9  12
ENDBRANCH   7   8
ENDBRANCH   1   7
BRANCH   3  22
HETATM   22  N   UNL     1       5.921  27.243  53.753  1.00  0.00    -0.306 N 
HETATM   23  C   UNL     1       6.226  26.599  52.574  1.00  0.00     0.275 C 
HETATM   24  O   UNL     1       7.142  25.805  52.394  1.00  0.00    -0.266 OA
HETATM   25  H   UNL     1       5.116  27.845  53.766  1.00  0.00     0.170 HD
BRANCH  23  26
HETATM   26  C   UNL     1       5.320  26.903  51.487  1.00  0.00     0.120 A 
HETATM   27  N   UNL     1       4.585  28.057  51.491  1.00  0.00    -0.273 N 
HETATM   28  H   UNL     1       4.591  28.774  52.211  1.00  0.00     0.189 HD
HETATM   29  N   UNL     1       3.817  28.225  50.405  1.00  0.00    -0.178 NA
HETATM   30  C   UNL     1       4.023  27.120  49.677  1.00  0.00     0.064 A 
HETATM   31  C   UNL     1       4.965  26.266  50.314  1.00  0.00     0.066 A 
BRANCH  30  32
HETATM   32  C   UNL     1       3.319  26.940  48.339  1.00  0.00    -0.005 C 
HETATM   33  C   UNL     1       4.101  27.689  47.242  1.00  0.00     0.021 C 
HETATM   34  C   UNL     1       3.230  25.451  47.943  1.00  0.00     0.021 C 
HETATM   35  C   UNL     1       1.879  27.493  48.391  1.00  0.00     0.021 C 
ENDBRANCH  30  32
ENDBRANCH  23  26
ENDBRANCH   3  22
TORSDOF 7
ENDMDL
MODEL 8
REMARK VINA RESULT:      -9.1      2.552      3.753
REMARK  7 active torsions:
REMARK  status: ('A' for Active; 'I' for Inactive)
REMARK    1  A    between atoms: C_2  and  C_3 
REMARK    2  A    between atoms: C_7  and  C_8 
REMARK       I    between atoms: C_8  and  N_9 
REMARK    3  A    between atoms: N_9  and  C_10 
REMARK    4  A    between atoms: C_10  and  C_11 
REMARK    5  A    between atoms: C_13  and  N_14 
REMARK       I    between atoms: N_14  and  C_15 
REMARK    6  A    between atoms: C_15  and  C_16 
REMARK    7  A    between atoms: C_20  and  C_21 
ROOT
HETATM    1  C   UNL     1       8.955  30.697  60.408  1.00  0.00    -0.035 A 
HETATM    2  C   UNL     1       8.520  29.859  59.372  1.00  0.00     0.059 A 
HETATM    3  C   UNL     1       9.021  30.039  58.085  1.00  0.00     0.130 A 
HETATM    4  N   UNL     1       9.888  31.023  57.794  1.00  0.00    -0.243 NA
HETATM    5  C   UNL     1      10.276  31.845  58.790  1.00  0.00     0.119 A 
HETATM    6  C   UNL     1       9.848  31.723  60.099  1.00  0.00     0.028 A 
ENDROOT
BRANCH   1   7
HETATM    7  C   UNL     1       8.478  30.485  61.817  1.00  0.00     0.161 C 
BRANCH   7   8
HETATM    8  N   UNL     1       7.223  31.150  62.065  1.00  0.00    -0.351 N 
HETATM    9  C   UNL     1       7.105  32.179  62.967  1.00  0.00     0.270 C 
HETATM   10  O   UNL     1       8.045  32.572  63.650  1.00  0.00    -0.266 OA
HETATM   11  H   UNL     1       6.401  30.809  61.592  1.00  0.00     0.163 HD
BRANCH   9  12
HETATM   12  C   UNL     1       5.799  32.778  63.040  1.00  0.00     0.119 A 
HETATM   13  N   UNL     1       5.073  32.778  64.200  1.00  0.00    -0.273 N 
HETATM   14  N   UNL     1       3.891  33.407  64.110  1.00  0.00    -0.178 NA
HETATM   15  H   UNL     1       5.348  32.372  65.089  1.00  0.00     0.189 HD
HETATM   16  C   UNL     1       3.833  33.829  62.841  1.00  0.00     0.064 A 
HETATM   17  C   UNL     1       5.005  33.453  62.133  1.00  0.00     0.066 A 
BRANCH  16  18
HETATM   18  C   UNL     1       2.642  34.619  62.315  1.00  0.00    -0.005 C 
HETATM   19  C   UNL     1       2.895  36.141  62.334  1.00  0.00     0.021 C 
HETATM   20  C   UNL     1       1.397  34.335  63.181  1.00  0.00     0.021 C 
HETATM   21  C   UNL     1       2.343  34.202  60.861  1.00  0.00     0.021 C 
ENDBRANCH  16  18
ENDBRANCH   9  12
ENDBRANCH   7   8
ENDBRANCH   1   7
BRANCH   3  22
HETATM   22  N   UNL     1       8.610  29.130  57.101  1.00  0.00    -0.306 N 
HETATM   23  C   UNL     1       7.451  29.223  56.361  1.00  0.00     0.275 C 
HETATM   24  O   UNL     1       6.588  30.086  56.467  1.00  0.00    -0.266 OA
HETATM   25  H   UNL     1       9.250  28.385  56.884  1.00  0.00     0.170 HD
BRANCH  23  26
HETATM   26  C   UNL     1       7.314  28.193  55.353  1.00  0.00     0.120 A 
HETATM   27  N   UNL     1       7.349  28.509  54.022  1.00  0.00    -0.273 N 
HETATM   28  H   UNL     1       7.462  29.437  53.624  1.00  0.00     0.189 HD
HETATM   29  N   UNL     1       7.248  27.451  53.204  1.00  0.00    -0.178 NA
HETATM   30  C   UNL     1       7.099  26.405  54.026  1.00  0.00     0.064 A 
HETATM   31  C   UNL     1       7.143  26.823  55.384  1.00  0.00     0.066 A 
BRANCH  30  32
HETATM   32  C   UNL     1       6.959  24.999  53.461  1.00  0.00    -0.005 C 
HETATM   33  C   UNL     1       5.500  24.763  53.022  1.00  0.00     0.021 C 
HETATM   34  C   UNL     1       7.876  24.786  52.239  1.00  0.00     0.021 C 
HETATM   35  C   UNL     1       7.338  23.937  54.516  1.00  0.00     0.021 C 
ENDBRANCH  30  32
ENDBRANCH  23  26
ENDBRANCH   3  22
TORSDOF 7
ENDMDL
MODEL 9
REMARK VINA RESULT:      -9.0      2.751      4.026
REMARK  7 active torsions:
REMARK  status: ('A' for Active; 'I' for Inactive)
REMARK    1  A    between atoms: C_2  and  C_3 
REMARK    2  A    between atoms: C_7  and  C_8 
REMARK       I    between atoms: C_8  and  N_9 
REMARK    3  A    between atoms: N_9  and  C_10 
REMARK    4  A    between atoms: C_10  and  C_11 
REMARK    5  A    between atoms: C_13  and  N_14 
REMARK       I    between atoms: N_14  and  C_15 
REMARK    6  A    between atoms: C_15  and  C_16 
REMARK    7  A    between atoms: C_20  and  C_21 
ROOT
HETATM    1  C   UNL     1       4.196  30.092  54.837  1.00  0.00    -0.035 A 
HETATM    2  C   UNL     1       4.896  28.908  55.109  1.00  0.00     0.059 A 
HETATM    3  C   UNL     1       4.808  27.837  54.221  1.00  0.00     0.130 A 
HETATM    4  N   UNL     1       4.039  27.890  53.122  1.00  0.00    -0.243 NA
HETATM    5  C   UNL     1       3.344  29.022  52.884  1.00  0.00     0.119 A 
HETATM    6  C   UNL     1       3.391  30.138  53.698  1.00  0.00     0.028 A 
ENDROOT
BRANCH   1   7
HETATM    7  C   UNL     1       4.322  31.282  55.744  1.00  0.00     0.161 C 
BRANCH   7   8
HETATM    8  N   UNL     1       5.278  31.055  56.799  1.00  0.00    -0.351 N 
HETATM    9  C   UNL     1       5.701  32.060  57.633  1.00  0.00     0.270 C 
HETATM   10  O   UNL     1       5.328  33.222  57.513  1.00  0.00    -0.266 OA
HETATM   11  H   UNL     1       5.681  30.135  56.887  1.00  0.00     0.163 HD
BRANCH   9  12
HETATM   12  C   UNL     1       6.603  31.647  58.676  1.00  0.00     0.119 A 
HETATM   13  N   UNL     1       7.264  30.451  58.621  1.00  0.00    -0.273 N 
HETATM   14  N   UNL     1       8.092  30.230  59.654  1.00  0.00    -0.178 NA
HETATM   15  H   UNL     1       7.194  29.750  57.889  1.00  0.00     0.189 HD
HETATM   16  C   UNL     1       7.965  31.320  60.421  1.00  0.00     0.064 A 
HETATM   17  C   UNL     1       7.038  32.232  59.849  1.00  0.00     0.066 A 
BRANCH  16  18
HETATM   18  C   UNL     1       8.760  31.488  61.708  1.00  0.00    -0.005 C 
HETATM   19  C   UNL     1       8.032  32.382  62.735  1.00  0.00     0.021 C 
HETATM   20  C   UNL     1      10.127  32.136  61.403  1.00  0.00     0.021 C 
HETATM   21  C   UNL     1       8.997  30.109  62.358  1.00  0.00     0.021 C 
ENDBRANCH  16  18
ENDBRANCH   9  12
ENDBRANCH   7   8
ENDBRANCH   1   7
BRANCH   3  22
HETATM   22  N   UNL     1       5.583  26.704  54.501  1.00  0.00    -0.306 N 
HETATM   23  C   UNL     1       5.581  26.010  55.692  1.00  0.00     0.275 C 
HETATM   24  O   UNL     1       4.936  26.288  56.696  1.00  0.00    -0.266 OA
HETATM   25  H   UNL     1       6.137  26.341  53.745  1.00  0.00     0.170 HD
BRANCH  23  26
HETATM   26  C   UNL     1       6.415  24.826  55.682  1.00  0.00     0.120 A 
HETATM   27  N   UNL     1       7.091  24.437  56.807  1.00  0.00    -0.273 N 
HETATM   28  H   UNL     1       7.086  24.908  57.707  1.00  0.00     0.189 HD
HETATM   29  N   UNL     1       7.792  23.304  56.663  1.00  0.00    -0.178 NA
HETATM   30  C   UNL     1       7.604  22.955  55.383  1.00  0.00     0.064 A 
HETATM   31  C   UNL     1       6.740  23.878  54.732  1.00  0.00     0.066 A 
BRANCH  30  32
HETATM   32  C   UNL     1       8.246  21.690  54.830  1.00  0.00    -0.005 C 
HETATM   33  C   UNL     1       7.817  21.495  53.363  1.00  0.00     0.021 C 
HETATM   34  C   UNL     1       9.787  21.770  54.880  1.00  0.00     0.021 C 
HETATM   35  C   UNL     1       7.819  20.450  55.644  1.00  0.00     0.021 C 
ENDBRANCH  30  32
ENDBRANCH  23  26
ENDBRANCH   3  22
TORSDOF 7
ENDMDL
MODEL 10
REMARK VINA RESULT:      -8.8      2.227     11.538
REMARK  7 active torsions:
REMARK  status: ('A' for Active; 'I' for Inactive)
REMARK    1  A    between atoms: C_2  and  C_3 
REMARK    2  A    between atoms: C_7  and  C_8 
REMARK       I    between atoms: C_8  and  N_9 
REMARK    3  A    between atoms: N_9  and  C_10 
REMARK    4  A    between atoms: C_10  and  C_11 
REMARK    5  A    between atoms: C_13  and  N_14 
REMARK       I    between atoms: N_14  and  C_15 
REMARK    6  A    between atoms: C_15  and  C_16 
REMARK    7  A    between atoms: C_20  and  C_21 
ROOT
HETATM    1  C   UNL     1       6.628  29.731  56.818  1.00  0.00    -0.035 A 
HETATM    2  C   UNL     1       6.416  30.551  57.935  1.00  0.00     0.059 A 
HETATM    3  C   UNL     1       5.135  31.032  58.203  1.00  0.00     0.130 A 
HETATM    4  N   UNL     1       4.095  30.763  57.397  1.00  0.00    -0.243 NA
HETATM    5  C   UNL     1       4.315  29.999  56.307  1.00  0.00     0.119 A 
HETATM    6  C   UNL     1       5.546  29.462  55.980  1.00  0.00     0.028 A 
ENDROOT
BRANCH   1   7
HETATM    7  C   UNL     1       7.985  29.148  56.541  1.00  0.00     0.161 C 
BRANCH   7   8
HETATM    8  N   UNL     1       7.896  27.817  55.996  1.00  0.00    -0.351 N 
HETATM    9  C   UNL     1       7.846  26.700  56.793  1.00  0.00     0.270 C 
HETATM   10  O   UNL     1       7.916  26.756  58.017  1.00  0.00    -0.266 OA
HETATM   11  H   UNL     1       7.921  27.709  54.994  1.00  0.00     0.163 HD
BRANCH   9  12
HETATM   12  C   UNL     1       7.686  25.455  56.090  1.00  0.00     0.119 A 
HETATM   13  N   UNL     1       6.695  25.277  55.163  1.00  0.00    -0.273 N 
HETATM   14  N   UNL     1       6.703  24.072  54.573  1.00  0.00    -0.178 NA
HETATM   15  H   UNL     1       5.992  25.955  54.887  1.00  0.00     0.189 HD
HETATM   16  C   UNL     1       7.733  23.430  55.138  1.00  0.00     0.064 A 
HETATM   17  C   UNL     1       8.375  24.258  56.097  1.00  0.00     0.066 A 
BRANCH  16  18
HETATM   18  C   UNL     1       8.111  22.013  54.732  1.00  0.00    -0.005 C 
HETATM   19  C   UNL     1       7.477  20.950  55.656  1.00  0.00     0.021 C 
HETATM   20  C   UNL     1       9.643  21.837  54.791  1.00  0.00     0.021 C 
HETATM   21  C   UNL     1       7.633  21.738  53.292  1.00  0.00     0.021 C 
ENDBRANCH  16  18
ENDBRANCH   9  12
ENDBRANCH   7   8
ENDBRANCH   1   7
BRANCH   3  22
HETATM   22  N   UNL     1       4.963  31.787  59.370  1.00  0.00    -0.306 N 
HETATM   23  C   UNL     1       3.831  31.796  60.156  1.00  0.00     0.275 C 
HETATM   24  O   UNL     1       2.793  31.180  59.944  1.00  0.00    -0.266 OA
HETATM   25  H   UNL     1       5.759  32.315  59.685  1.00  0.00     0.170 HD
BRANCH  23  26
HETATM   26  C   UNL     1       3.953  32.601  61.352  1.00  0.00     0.120 A 
HETATM   27  N   UNL     1       2.916  32.696  62.241  1.00  0.00    -0.273 N 
HETATM   28  H   UNL     1       2.009  32.247  62.160  1.00  0.00     0.189 HD
HETATM   29  N   UNL     1       3.184  33.444  63.320  1.00  0.00    -0.178 NA
HETATM   30  C   UNL     1       4.429  33.893  63.116  1.00  0.00     0.064 A 
HETATM   31  C   UNL     1       4.954  33.382  61.897  1.00  0.00     0.066 A 
BRANCH  30  32
HETATM   32  C   UNL     1       5.102  34.787  64.148  1.00  0.00    -0.005 C 
HETATM   33  C   UNL     1       5.664  36.043  63.453  1.00  0.00     0.021 C 
HETATM   34  C   UNL     1       4.109  35.238  65.239  1.00  0.00     0.021 C 
HETATM   35  C   UNL     1       6.260  34.047  64.851  1.00  0.00     0.021 C 
ENDBRANCH  30  32
ENDBRANCH  23  26
ENDBRANCH   3  22
TORSDOF 7
ENDMDL
