MODEL 1
REMARK VINA RESULT:      -8.8      0.000      0.000
REMARK  4 active torsions:
REMARK  status: ('A' for Active; 'I' for Inactive)
REMARK    1  A    between atoms: C_9  and  C_10 
REMARK    2  A    between atoms: C_18  and  C_19 
REMARK       I    between atoms: C_19  and  N_20 
REMARK    3  A    between atoms: N_20  and  C_21 
REMARK    4  A    between atoms: C_24  and  O_25 
ROOT
HETATM    1  C   UNL     1       3.585  30.207  55.354  1.00  0.00     0.070 C 
HETATM    2  C   UNL     1       4.933  29.530  55.380  1.00  0.00     0.037 C 
HETATM    3  N   UNL     1       5.767  29.916  56.428  1.00  0.00    -0.192 N 
HETATM    4  C   UNL     1       7.079  29.616  56.476  1.00  0.00     0.725 A 
HETATM    5  N   UNL     1       7.604  28.755  55.553  1.00  0.00    -0.084 N 
HETATM    6  N   UNL     1       8.943  28.644  55.688  1.00  0.00    -0.149 NA
HETATM    7  C   UNL     1       9.147  29.429  56.751  1.00  0.00     0.275 A 
HETATM    8  N   UNL     1       8.032  30.041  57.265  1.00  0.00    -0.054 NA
HETATM    9  C   UNL     1       6.828  28.147  54.466  1.00  0.00     0.204 C 
HETATM   10  C   UNL     1       5.393  28.671  54.434  1.00  0.00     0.062 C 
HETATM   11  H   UNL     1       5.418  30.615  57.077  1.00  0.00     0.184 HD
ENDROOT
BRANCH  10  12
HETATM   12  C   UNL     1       4.663  28.326  53.183  1.00  0.00     0.256 C 
HETATM   13  N   UNL     1       5.381  28.502  52.023  1.00  0.00    -0.323 N 
HETATM   14  H   UNL     1       6.295  28.931  52.103  1.00  0.00     0.169 HD
HETATM   15  O   UNL     1       3.496  27.958  53.280  1.00  0.00    -0.267 OA
BRANCH  13  16
HETATM   16  C   UNL     1       5.012  28.069  50.728  1.00  0.00     0.035 A 
HETATM   17  C   UNL     1       4.663  28.931  49.689  1.00  0.00     0.032 A 
HETATM   18  C   UNL     1       4.260  28.422  48.448  1.00  0.00     0.039 A 
HETATM   19  C   UNL     1       4.198  27.048  48.224  1.00  0.00     0.068 A 
HETATM   20  C   UNL     1       4.545  26.180  49.256  1.00  0.00     0.039 A 
HETATM   21  C   UNL     1       4.953  26.689  50.498  1.00  0.00     0.032 A 
BRANCH  19  22
HETATM   22  O   UNL     1       3.779  26.693  46.972  1.00  0.00    -0.356 OA
HETATM   23  C   UNL     1       2.653  25.832  46.887  1.00  0.00     0.210 C 
ENDBRANCH  19  22
ENDBRANCH  13  16
ENDBRANCH  10  12
BRANCH   9  24
HETATM   24  C   UNL     1       6.955  26.621  54.497  1.00  0.00    -0.006 A 
HETATM   25  C   UNL     1       6.497  25.799  55.544  1.00  0.00     0.044 A 
HETATM   26 CL   UNL     1       5.620  26.409  56.900  1.00  0.00    -0.084 Cl
HETATM   27  C   UNL     1       6.722  24.417  55.524  1.00  0.00     0.048 A 
HETATM   28  C   UNL     1       7.389  23.836  54.452  1.00  0.00     0.035 A 
HETATM   29 CL   UNL     1       7.670  22.138  54.438  1.00  0.00    -0.084 Cl
HETATM   30  C   UNL     1       7.825  24.618  53.390  1.00  0.00     0.024 A 
HETATM   31  C   UNL     1       7.610  25.997  53.412  1.00  0.00     0.013 A 
ENDBRANCH   9  24
TORSDOF 4
ENDMDL
MODEL 2
REMARK VINA RESULT:      -8.7      3.365      6.841
REMARK  4 active torsions:
REMARK  status: ('A' for Active; 'I' for Inactive)
REMARK    1  A    between atoms: C_9  and  C_10 
REMARK    2  A    between atoms: C_18  and  C_19 
REMARK       I    between atoms: C_19  and  N_20 
REMARK    3  A    between atoms: N_20  and  C_21 
REMARK    4  A    between atoms: C_24  and  O_25 
ROOT
HETATM    1  C   UNL     1       3.943  25.548  48.874  1.00  0.00     0.070 C 
HETATM    2  C   UNL     1       4.435  26.808  49.541  1.00  0.00     0.037 C 
HETATM    3  N   UNL     1       4.272  27.974  48.793  1.00  0.00    -0.192 N 
HETATM    4  C   UNL     1       4.866  29.141  49.106  1.00  0.00     0.725 A 
HETATM    5  N   UNL     1       5.529  29.258  50.296  1.00  0.00    -0.084 N 
HETATM    6  N   UNL     1       6.142  30.456  50.403  1.00  0.00    -0.149 NA
HETATM    7  C   UNL     1       5.759  31.029  49.257  1.00  0.00     0.275 A 
HETATM    8  N   UNL     1       4.975  30.259  48.436  1.00  0.00    -0.054 NA
HETATM    9  C   UNL     1       5.671  28.165  51.265  1.00  0.00     0.204 C 
HETATM   10  C   UNL     1       5.079  26.860  50.736  1.00  0.00     0.062 C 
HETATM   11  H   UNL     1       3.851  27.889  47.872  1.00  0.00     0.184 HD
ENDROOT
BRANCH  10  12
HETATM   12  C   UNL     1       5.466  25.664  51.536  1.00  0.00     0.256 C 
HETATM   13  N   UNL     1       6.808  25.566  51.822  1.00  0.00    -0.323 N 
HETATM   14  H   UNL     1       7.424  26.248  51.397  1.00  0.00     0.169 HD
HETATM   15  O   UNL     1       4.586  24.863  51.835  1.00  0.00    -0.267 OA
BRANCH  13  16
HETATM   16  C   UNL     1       7.414  24.658  52.720  1.00  0.00     0.035 A 
HETATM   17  C   UNL     1       7.809  23.366  52.373  1.00  0.00     0.032 A 
HETATM   18  C   UNL     1       8.357  22.508  53.334  1.00  0.00     0.039 A 
HETATM   19  C   UNL     1       8.521  22.923  54.655  1.00  0.00     0.068 A 
HETATM   20  C   UNL     1       8.131  24.212  55.010  1.00  0.00     0.039 A 
HETATM   21  C   UNL     1       7.584  25.074  54.047  1.00  0.00     0.032 A 
BRANCH  19  22
HETATM   22  O   UNL     1       9.059  21.981  55.485  1.00  0.00    -0.356 OA
HETATM   23  C   UNL     1       8.381  21.736  56.710  1.00  0.00     0.210 C 
ENDBRANCH  19  22
ENDBRANCH  13  16
ENDBRANCH  10  12
BRANCH   9  24
HETATM   24  C   UNL     1       5.159  28.591  52.643  1.00  0.00    -0.006 A 
HETATM   25  C   UNL     1       3.867  29.083  52.902  1.00  0.00     0.044 A 
HETATM   26 CL   UNL     1       2.636  29.168  51.694  1.00  0.00    -0.084 Cl
HETATM   27  C   UNL     1       3.507  29.521  54.183  1.00  0.00     0.048 A 
HETATM   28  C   UNL     1       4.425  29.456  55.225  1.00  0.00     0.035 A 
HETATM   29 CL   UNL     1       3.980  30.004  56.793  1.00  0.00    -0.084 Cl
HETATM   30  C   UNL     1       5.699  28.946  55.005  1.00  0.00     0.024 A 
HETATM   31  C   UNL     1       6.062  28.517  53.727  1.00  0.00     0.013 A 
ENDBRANCH   9  24
TORSDOF 4
ENDMDL
MODEL 3
REMARK VINA RESULT:      -8.4      3.152      6.297
REMARK  4 active torsions:
REMARK  status: ('A' for Active; 'I' for Inactive)
REMARK    1  A    between atoms: C_9  and  C_10 
REMARK    2  A    between atoms: C_18  and  C_19 
REMARK       I    between atoms: C_19  and  N_20 
REMARK    3  A    between atoms: N_20  and  C_21 
REMARK    4  A    between atoms: C_24  and  O_25 
ROOT
HETATM    1  C   UNL     1       8.586  29.036  56.248  1.00  0.00     0.070 C 
HETATM    2  C   UNL     1       7.264  29.094  55.524  1.00  0.00     0.037 C 
HETATM    3  N   UNL     1       6.500  30.230  55.782  1.00  0.00    -0.192 N 
HETATM    4  C   UNL     1       5.204  30.344  55.434  1.00  0.00     0.725 A 
HETATM    5  N   UNL     1       4.636  29.384  54.643  1.00  0.00    -0.084 N 
HETATM    6  N   UNL     1       3.315  29.604  54.473  1.00  0.00    -0.149 NA
HETATM    7  C   UNL     1       3.169  30.748  55.149  1.00  0.00     0.275 A 
HETATM    8  N   UNL     1       4.301  31.236  55.750  1.00  0.00    -0.054 NA
HETATM    9  C   UNL     1       5.346  28.191  54.165  1.00  0.00     0.204 C 
HETATM   10  C   UNL     1       6.759  28.106  54.740  1.00  0.00     0.062 C 
HETATM   11  H   UNL     1       6.877  30.916  56.431  1.00  0.00     0.184 HD
ENDROOT
BRANCH  10  12
HETATM   12  C   UNL     1       7.403  26.779  54.538  1.00  0.00     0.256 C 
HETATM   13  N   UNL     1       7.225  25.884  55.567  1.00  0.00    -0.323 N 
HETATM   14  H   UNL     1       6.761  26.221  56.401  1.00  0.00     0.169 HD
HETATM   15  O   UNL     1       8.057  26.607  53.514  1.00  0.00    -0.267 OA
BRANCH  13  16
HETATM   16  C   UNL     1       7.550  24.508  55.553  1.00  0.00     0.035 A 
HETATM   17  C   UNL     1       7.305  23.661  54.472  1.00  0.00     0.032 A 
HETATM   18  C   UNL     1       7.610  22.297  54.555  1.00  0.00     0.039 A 
HETATM   19  C   UNL     1       8.164  21.755  55.713  1.00  0.00     0.068 A 
HETATM   20  C   UNL     1       8.413  22.593  56.797  1.00  0.00     0.039 A 
HETATM   21  C   UNL     1       8.111  23.961  56.715  1.00  0.00     0.032 A 
BRANCH  19  22
HETATM   22  O   UNL     1       8.401  20.411  55.657  1.00  0.00    -0.356 OA
HETATM   23  C   UNL     1       8.770  19.871  54.396  1.00  0.00     0.210 C 
ENDBRANCH  19  22
ENDBRANCH  13  16
ENDBRANCH  10  12
BRANCH   9  24
HETATM   24  C   UNL     1       5.265  28.088  52.640  1.00  0.00    -0.006 A 
HETATM   25  C   UNL     1       5.018  26.899  51.929  1.00  0.00     0.044 A 
HETATM   26 CL   UNL     1       4.662  25.398  52.704  1.00  0.00    -0.084 Cl
HETATM   27  C   UNL     1       5.035  26.882  50.528  1.00  0.00     0.048 A 
HETATM   28  C   UNL     1       5.279  28.054  49.820  1.00  0.00     0.035 A 
HETATM   29 CL   UNL     1       5.307  28.024  48.100  1.00  0.00    -0.084 Cl
HETATM   30  C   UNL     1       5.495  29.248  50.496  1.00  0.00     0.024 A 
HETATM   31  C   UNL     1       5.487  29.265  51.892  1.00  0.00     0.013 A 
ENDBRANCH   9  24
TORSDOF 4
ENDMDL
MODEL 4
REMARK VINA RESULT:      -8.3      1.921      2.545
REMARK  4 active torsions:
REMARK  status: ('A' for Active; 'I' for Inactive)
REMARK    1  A    between atoms: C_9  and  C_10 
REMARK    2  A    between atoms: C_18  and  C_19 
REMARK       I    between atoms: C_19  and  N_20 
REMARK    3  A    between atoms: N_20  and  C_21 
REMARK    4  A    between atoms: C_24  and  O_25 
ROOT
HETATM    1  C   UNL     1       4.264  30.578  57.572  1.00  0.00     0.070 C 
HETATM    2  C   UNL     1       5.635  29.975  57.391  1.00  0.00     0.037 C 
HETATM    3  N   UNL     1       6.598  30.416  58.298  1.00  0.00    -0.192 N 
HETATM    4  C   UNL     1       7.916  30.189  58.145  1.00  0.00     0.725 A 
HETATM    5  N   UNL     1       8.340  29.348  57.153  1.00  0.00    -0.084 N 
HETATM    6  N   UNL     1       9.687  29.311  57.081  1.00  0.00    -0.149 NA
HETATM    7  C   UNL     1      10.009  30.117  58.099  1.00  0.00     0.275 A 
HETATM    8  N   UNL     1       8.954  30.672  58.777  1.00  0.00    -0.054 NA
HETATM    9  C   UNL     1       7.441  28.688  56.199  1.00  0.00     0.204 C 
HETATM   10  C   UNL     1       5.992  29.133  56.387  1.00  0.00     0.062 C 
HETATM   11  H   UNL     1       6.314  31.102  58.993  1.00  0.00     0.184 HD
ENDROOT
BRANCH  10  12
HETATM   12  C   UNL     1       5.098  28.737  55.264  1.00  0.00     0.256 C 
HETATM   13  N   UNL     1       5.147  29.562  54.163  1.00  0.00    -0.323 N 
HETATM   14  H   UNL     1       5.702  30.405  54.240  1.00  0.00     0.169 HD
HETATM   15  O   UNL     1       4.379  27.754  55.419  1.00  0.00    -0.267 OA
BRANCH  13  16
HETATM   16  C   UNL     1       4.566  29.315  52.898  1.00  0.00     0.035 A 
HETATM   17  C   UNL     1       3.196  29.387  52.643  1.00  0.00     0.032 A 
HETATM   18  C   UNL     1       2.693  29.079  51.373  1.00  0.00     0.039 A 
HETATM   19  C   UNL     1       3.544  28.694  50.339  1.00  0.00     0.068 A 
HETATM   20  C   UNL     1       4.913  28.620  50.585  1.00  0.00     0.039 A 
HETATM   21  C   UNL     1       5.419  28.932  51.856  1.00  0.00     0.032 A 
BRANCH  19  22
HETATM   22  O   UNL     1       2.917  28.414  49.158  1.00  0.00    -0.356 OA
HETATM   23  C   UNL     1       3.173  27.145  48.574  1.00  0.00     0.210 C 
ENDBRANCH  19  22
ENDBRANCH  13  16
ENDBRANCH  10  12
BRANCH   9  24
HETATM   24  C   UNL     1       7.655  27.172  56.213  1.00  0.00    -0.006 A 
HETATM   25  C   UNL     1       7.701  26.358  55.066  1.00  0.00     0.044 A 
HETATM   26 CL   UNL     1       7.628  26.992  53.462  1.00  0.00    -0.084 Cl
HETATM   27  C   UNL     1       7.826  24.967  55.175  1.00  0.00     0.048 A 
HETATM   28  C   UNL     1       7.927  24.374  56.429  1.00  0.00     0.035 A 
HETATM   29 CL   UNL     1       8.072  22.664  56.556  1.00  0.00    -0.084 Cl
HETATM   30  C   UNL     1       7.916  25.155  57.577  1.00  0.00     0.024 A 
HETATM   31  C   UNL     1       7.782  26.541  57.470  1.00  0.00     0.013 A 
ENDBRANCH   9  24
TORSDOF 4
ENDMDL
MODEL 5
REMARK VINA RESULT:      -8.3      1.491      1.787
REMARK  4 active torsions:
REMARK  status: ('A' for Active; 'I' for Inactive)
REMARK    1  A    between atoms: C_9  and  C_10 
REMARK    2  A    between atoms: C_18  and  C_19 
REMARK       I    between atoms: C_19  and  N_20 
REMARK    3  A    between atoms: N_20  and  C_21 
REMARK    4  A    between atoms: C_24  and  O_25 
ROOT
HETATM    1  C   UNL     1       4.512  30.198  57.402  1.00  0.00     0.070 C 
HETATM    2  C   UNL     1       5.808  29.646  56.864  1.00  0.00     0.037 C 
HETATM    3  N   UNL     1       6.929  29.894  57.655  1.00  0.00    -0.192 N 
HETATM    4  C   UNL     1       8.192  29.703  57.227  1.00  0.00     0.725 A 
HETATM    5  N   UNL     1       8.406  29.081  56.028  1.00  0.00    -0.084 N 
HETATM    6  N   UNL     1       9.718  29.061  55.712  1.00  0.00    -0.149 NA
HETATM    7  C   UNL     1      10.240  29.643  56.797  1.00  0.00     0.275 A 
HETATM    8  N   UNL     1       9.340  30.050  57.748  1.00  0.00    -0.054 NA
HETATM    9  C   UNL     1       7.331  28.627  55.137  1.00  0.00     0.204 C 
HETATM   10  C   UNL     1       5.954  29.024  55.665  1.00  0.00     0.062 C 
HETATM   11  H   UNL     1       6.795  30.425  58.511  1.00  0.00     0.184 HD
ENDROOT
BRANCH  10  12
HETATM   12  C   UNL     1       4.865  28.863  54.662  1.00  0.00     0.256 C 
HETATM   13  N   UNL     1       5.113  29.437  53.437  1.00  0.00    -0.323 N 
HETATM   14  H   UNL     1       5.956  29.991  53.346  1.00  0.00     0.169 HD
HETATM   15  O   UNL     1       3.843  28.280  55.011  1.00  0.00    -0.267 OA
BRANCH  13  16
HETATM   16  C   UNL     1       4.353  29.267  52.257  1.00  0.00     0.035 A 
HETATM   17  C   UNL     1       3.121  29.879  52.029  1.00  0.00     0.032 A 
HETATM   18  C   UNL     1       2.405  29.620  50.854  1.00  0.00     0.039 A 
HETATM   19  C   UNL     1       2.905  28.748  49.888  1.00  0.00     0.068 A 
HETATM   20  C   UNL     1       4.135  28.134  50.106  1.00  0.00     0.039 A 
HETATM   21  C   UNL     1       4.855  28.395  51.282  1.00  0.00     0.032 A 
BRANCH  19  22
HETATM   22  O   UNL     1       2.098  28.582  48.798  1.00  0.00    -0.356 OA
HETATM   23  C   UNL     1       2.554  27.698  47.784  1.00  0.00     0.210 C 
ENDBRANCH  19  22
ENDBRANCH  13  16
ENDBRANCH  10  12
BRANCH   9  24
HETATM   24  C   UNL     1       7.491  27.140  54.810  1.00  0.00    -0.006 A 
HETATM   25  C   UNL     1       7.543  26.109  55.767  1.00  0.00     0.044 A 
HETATM   26 CL   UNL     1       7.321  26.385  57.456  1.00  0.00    -0.084 Cl
HETATM   27  C   UNL     1       7.766  24.781  55.382  1.00  0.00     0.048 A 
HETATM   28  C   UNL     1       7.921  24.463  54.037  1.00  0.00     0.035 A 
HETATM   29 CL   UNL     1       8.204  22.831  53.572  1.00  0.00    -0.084 Cl
HETATM   30  C   UNL     1       7.843  25.455  53.068  1.00  0.00     0.024 A 
HETATM   31  C   UNL     1       7.630  26.781  53.451  1.00  0.00     0.013 A 
ENDBRANCH   9  24
TORSDOF 4
ENDMDL
MODEL 6
REMARK VINA RESULT:      -8.0      8.240     11.827
REMARK  4 active torsions:
REMARK  status: ('A' for Active; 'I' for Inactive)
REMARK    1  A    between atoms: C_9  and  C_10 
REMARK    2  A    between atoms: C_18  and  C_19 
REMARK       I    between atoms: C_19  and  N_20 
REMARK    3  A    between atoms: N_20  and  C_21 
REMARK    4  A    between atoms: C_24  and  O_25 
ROOT
HETATM    1  C   UNL     1       7.971  32.977  64.186  1.00  0.00     0.070 C 
HETATM    2  C   UNL     1       6.626  33.655  64.264  1.00  0.00     0.037 C 
HETATM    3  N   UNL     1       6.441  34.471  65.379  1.00  0.00    -0.192 N 
HETATM    4  C   UNL     1       5.240  34.954  65.750  1.00  0.00     0.725 A 
HETATM    5  N   UNL     1       4.166  34.789  64.920  1.00  0.00    -0.084 N 
HETATM    6  N   UNL     1       3.030  35.245  65.488  1.00  0.00    -0.149 NA
HETATM    7  C   UNL     1       3.507  35.721  66.643  1.00  0.00     0.275 A 
HETATM    8  N   UNL     1       4.855  35.564  66.841  1.00  0.00    -0.054 NA
HETATM    9  C   UNL     1       4.224  34.076  63.638  1.00  0.00     0.204 C 
HETATM   10  C   UNL     1       5.600  33.457  63.397  1.00  0.00     0.062 C 
HETATM   11  H   UNL     1       7.205  34.540  66.046  1.00  0.00     0.184 HD
ENDROOT
BRANCH  10  12
HETATM   12  C   UNL     1       5.622  32.477  62.276  1.00  0.00     0.256 C 
HETATM   13  N   UNL     1       6.467  32.799  61.239  1.00  0.00    -0.323 N 
HETATM   14  H   UNL     1       6.924  33.701  61.276  1.00  0.00     0.169 HD
HETATM   15  O   UNL     1       4.876  31.505  62.347  1.00  0.00    -0.267 OA
BRANCH  13  16
HETATM   16  C   UNL     1       6.832  31.963  60.159  1.00  0.00     0.035 A 
HETATM   17  C   UNL     1       6.134  31.899  58.953  1.00  0.00     0.032 A 
HETATM   18  C   UNL     1       6.531  31.007  57.948  1.00  0.00     0.039 A 
HETATM   19  C   UNL     1       7.626  30.166  58.129  1.00  0.00     0.068 A 
HETATM   20  C   UNL     1       8.330  30.223  59.330  1.00  0.00     0.039 A 
HETATM   21  C   UNL     1       7.936  31.119  60.336  1.00  0.00     0.032 A 
BRANCH  19  22
HETATM   22  O   UNL     1       7.893  29.342  57.072  1.00  0.00    -0.356 OA
HETATM   23  C   UNL     1       9.206  28.807  56.985  1.00  0.00     0.210 C 
ENDBRANCH  19  22
ENDBRANCH  13  16
ENDBRANCH  10  12
BRANCH   9  24
HETATM   24  C   UNL     1       3.709  34.962  62.501  1.00  0.00    -0.006 A 
HETATM   25  C   UNL     1       4.313  36.161  62.081  1.00  0.00     0.044 A 
HETATM   26 CL   UNL     1       5.802  36.741  62.737  1.00  0.00    -0.084 Cl
HETATM   27  C   UNL     1       3.731  36.949  61.080  1.00  0.00     0.048 A 
HETATM   28  C   UNL     1       2.549  36.540  60.472  1.00  0.00     0.035 A 
HETATM   29 CL   UNL     1       1.834  37.516  59.249  1.00  0.00    -0.084 Cl
HETATM   30  C   UNL     1       1.946  35.345  60.844  1.00  0.00     0.024 A 
HETATM   31  C   UNL     1       2.521  34.563  61.848  1.00  0.00     0.013 A 
ENDBRANCH   9  24
TORSDOF 4
ENDMDL
MODEL 7
REMARK VINA RESULT:      -7.9      4.487      7.034
REMARK  4 active torsions:
REMARK  status: ('A' for Active; 'I' for Inactive)
REMARK    1  A    between atoms: C_9  and  C_10 
REMARK    2  A    between atoms: C_18  and  C_19 
REMARK       I    between atoms: C_19  and  N_20 
REMARK    3  A    between atoms: N_20  and  C_21 
REMARK    4  A    between atoms: C_24  and  O_25 
ROOT
HETATM    1  C   UNL     1       8.934  30.864  59.007  1.00  0.00     0.070 C 
HETATM    2  C   UNL     1       7.479  31.137  58.719  1.00  0.00     0.037 C 
HETATM    3  N   UNL     1       6.897  32.128  59.507  1.00  0.00    -0.192 N 
HETATM    4  C   UNL     1       5.568  32.336  59.571  1.00  0.00     0.725 A 
HETATM    5  N   UNL     1       4.743  31.668  58.708  1.00  0.00    -0.084 N 
HETATM    6  N   UNL     1       3.444  31.920  58.974  1.00  0.00    -0.149 NA
HETATM    7  C   UNL     1       3.565  32.792  59.981  1.00  0.00     0.275 A 
HETATM    8  N   UNL     1       4.848  33.075  60.375  1.00  0.00    -0.054 NA
HETATM    9  C   UNL     1       5.212  30.693  57.716  1.00  0.00     0.204 C 
HETATM   10  C   UNL     1       6.714  30.443  57.836  1.00  0.00     0.062 C 
HETATM   11  H   UNL     1       7.480  32.578  60.207  1.00  0.00     0.184 HD
ENDROOT
BRANCH  10  12
HETATM   12  C   UNL     1       7.181  29.252  57.073  1.00  0.00     0.256 C 
HETATM   13  N   UNL     1       6.943  28.041  57.682  1.00  0.00    -0.323 N 
HETATM   14  H   UNL     1       6.564  28.060  58.621  1.00  0.00     0.169 HD
HETATM   15  O   UNL     1       7.759  29.441  56.007  1.00  0.00    -0.267 OA
BRANCH  13  16
HETATM   16  C   UNL     1       7.095  26.761  57.102  1.00  0.00     0.035 A 
HETATM   17  C   UNL     1       6.113  26.131  56.338  1.00  0.00     0.032 A 
HETATM   18  C   UNL     1       6.321  24.839  55.838  1.00  0.00     0.039 A 
HETATM   19  C   UNL     1       7.509  24.156  56.092  1.00  0.00     0.068 A 
HETATM   20  C   UNL     1       8.495  24.777  56.853  1.00  0.00     0.039 A 
HETATM   21  C   UNL     1       8.290  26.073  57.351  1.00  0.00     0.032 A 
BRANCH  19  22
HETATM   22  O   UNL     1       7.572  22.902  55.552  1.00  0.00    -0.356 OA
HETATM   23  C   UNL     1       8.840  22.460  55.089  1.00  0.00     0.210 C 
ENDBRANCH  19  22
ENDBRANCH  13  16
ENDBRANCH  10  12
BRANCH   9  24
HETATM   24  C   UNL     1       4.734  31.075  56.312  1.00  0.00    -0.006 A 
HETATM   25  C   UNL     1       4.147  30.183  55.395  1.00  0.00     0.044 A 
HETATM   26 CL   UNL     1       3.786  28.540  55.783  1.00  0.00    -0.084 Cl
HETATM   27  C   UNL     1       3.806  30.602  54.102  1.00  0.00     0.048 A 
HETATM   28  C   UNL     1       4.029  31.919  53.716  1.00  0.00     0.035 A 
HETATM   29 CL   UNL     1       3.618  32.425  52.124  1.00  0.00    -0.084 Cl
HETATM   30  C   UNL     1       4.579  32.829  54.611  1.00  0.00     0.024 A 
HETATM   31  C   UNL     1       4.927  32.411  55.897  1.00  0.00     0.013 A 
ENDBRANCH   9  24
TORSDOF 4
ENDMDL
MODEL 8
REMARK VINA RESULT:      -7.9      3.043      5.874
REMARK  4 active torsions:
REMARK  status: ('A' for Active; 'I' for Inactive)
REMARK    1  A    between atoms: C_9  and  C_10 
REMARK    2  A    between atoms: C_18  and  C_19 
REMARK       I    between atoms: C_19  and  N_20 
REMARK    3  A    between atoms: N_20  and  C_21 
REMARK    4  A    between atoms: C_24  and  O_25 
ROOT
HETATM    1  C   UNL     1       8.927  29.355  56.595  1.00  0.00     0.070 C 
HETATM    2  C   UNL     1       7.440  29.505  56.394  1.00  0.00     0.037 C 
HETATM    3  N   UNL     1       6.821  30.431  57.232  1.00  0.00    -0.192 N 
HETATM    4  C   UNL     1       5.485  30.522  57.375  1.00  0.00     0.725 A 
HETATM    5  N   UNL     1       4.673  29.799  56.546  1.00  0.00    -0.084 N 
HETATM    6  N   UNL     1       3.374  29.933  56.889  1.00  0.00    -0.149 NA
HETATM    7  C   UNL     1       3.478  30.797  57.904  1.00  0.00     0.275 A 
HETATM    8  N   UNL     1       4.752  31.184  58.232  1.00  0.00    -0.054 NA
HETATM    9  C   UNL     1       5.166  28.882  55.511  1.00  0.00     0.204 C 
HETATM   10  C   UNL     1       6.688  28.761  55.542  1.00  0.00     0.062 C 
HETATM   11  H   UNL     1       7.403  30.919  57.908  1.00  0.00     0.184 HD
ENDROOT
BRANCH  10  12
HETATM   12  C   UNL     1       7.210  27.626  54.730  1.00  0.00     0.256 C 
HETATM   13  N   UNL     1       7.080  26.386  55.313  1.00  0.00    -0.323 N 
HETATM   14  H   UNL     1       6.734  26.355  56.264  1.00  0.00     0.169 HD
HETATM   15  O   UNL     1       7.736  27.884  53.652  1.00  0.00    -0.267 OA
BRANCH  13  16
HETATM   16  C   UNL     1       7.302  25.136  54.693  1.00  0.00     0.035 A 
HETATM   17  C   UNL     1       7.398  23.929  55.385  1.00  0.00     0.032 A 
HETATM   18  C   UNL     1       7.668  22.737  54.701  1.00  0.00     0.039 A 
HETATM   19  C   UNL     1       7.848  22.728  53.320  1.00  0.00     0.068 A 
HETATM   20  C   UNL     1       7.754  23.929  52.620  1.00  0.00     0.039 A 
HETATM   21  C   UNL     1       7.478  25.123  53.303  1.00  0.00     0.032 A 
BRANCH  19  22
HETATM   22  O   UNL     1       8.116  21.499  52.787  1.00  0.00    -0.356 OA
HETATM   23  C   UNL     1       8.201  20.407  53.691  1.00  0.00     0.210 C 
ENDBRANCH  19  22
ENDBRANCH  13  16
ENDBRANCH  10  12
BRANCH   9  24
HETATM   24  C   UNL     1       4.577  29.242  54.144  1.00  0.00    -0.006 A 
HETATM   25  C   UNL     1       4.192  28.307  53.165  1.00  0.00     0.044 A 
HETATM   26 CL   UNL     1       4.236  26.601  53.429  1.00  0.00    -0.084 Cl
HETATM   27  C   UNL     1       3.732  28.727  51.911  1.00  0.00     0.048 A 
HETATM   28  C   UNL     1       3.631  30.084  51.625  1.00  0.00     0.035 A 
HETATM   29 CL   UNL     1       3.073  30.592  50.079  1.00  0.00    -0.084 Cl
HETATM   30  C   UNL     1       3.974  31.029  52.582  1.00  0.00     0.024 A 
HETATM   31  C   UNL     1       4.442  30.612  53.830  1.00  0.00     0.013 A 
ENDBRANCH   9  24
TORSDOF 4
ENDMDL
MODEL 9
REMARK VINA RESULT:      -7.8      2.996      6.343
REMARK  4 active torsions:
REMARK  status: ('A' for Active; 'I' for Inactive)
REMARK    1  A    between atoms: C_9  and  C_10 
REMARK    2  A    between atoms: C_18  and  C_19 
REMARK       I    between atoms: C_19  and  N_20 
REMARK    3  A    between atoms: N_20  and  C_21 
REMARK    4  A    between atoms: C_24  and  O_25 
ROOT
HETATM    1  C   UNL     1       4.423  28.372  51.583  1.00  0.00     0.070 C 
HETATM    2  C   UNL     1       5.444  27.635  52.412  1.00  0.00     0.037 C 
HETATM    3  N   UNL     1       6.153  26.645  51.733  1.00  0.00    -0.192 N 
HETATM    4  C   UNL     1       6.915  25.724  52.354  1.00  0.00     0.725 A 
HETATM    5  N   UNL     1       7.155  25.846  53.695  1.00  0.00    -0.084 N 
HETATM    6  N   UNL     1       7.851  24.792  54.169  1.00  0.00    -0.149 NA
HETATM    7  C   UNL     1       8.042  24.098  53.041  1.00  0.00     0.275 A 
HETATM    8  N   UNL     1       7.487  24.636  51.908  1.00  0.00    -0.054 NA
HETATM    9  C   UNL     1       6.598  26.916  54.532  1.00  0.00     0.204 C 
HETATM   10  C   UNL     1       5.643  27.811  53.745  1.00  0.00     0.062 C 
HETATM   11  H   UNL     1       5.928  26.490  50.754  1.00  0.00     0.184 HD
ENDROOT
BRANCH  10  12
HETATM   12  C   UNL     1       4.824  28.709  54.606  1.00  0.00     0.256 C 
HETATM   13  N   UNL     1       5.074  30.053  54.447  1.00  0.00    -0.323 N 
HETATM   14  H   UNL     1       5.842  30.314  53.841  1.00  0.00     0.169 HD
HETATM   15  O   UNL     1       4.040  28.192  55.396  1.00  0.00    -0.267 OA
BRANCH  13  16
HETATM   16  C   UNL     1       4.315  31.120  54.980  1.00  0.00     0.035 A 
HETATM   17  C   UNL     1       4.673  31.836  56.122  1.00  0.00     0.032 A 
HETATM   18  C   UNL     1       3.841  32.849  56.616  1.00  0.00     0.039 A 
HETATM   19  C   UNL     1       2.641  33.163  55.981  1.00  0.00     0.068 A 
HETATM   20  C   UNL     1       2.276  32.453  54.840  1.00  0.00     0.039 A 
HETATM   21  C   UNL     1       3.111  31.441  54.342  1.00  0.00     0.032 A 
BRANCH  19  22
HETATM   22  O   UNL     1       1.926  34.163  56.577  1.00  0.00    -0.356 OA
HETATM   23  C   UNL     1       2.651  35.094  57.368  1.00  0.00     0.210 C 
ENDBRANCH  19  22
ENDBRANCH  13  16
ENDBRANCH  10  12
BRANCH   9  24
HETATM   24  C   UNL     1       7.713  27.660  55.273  1.00  0.00    -0.006 A 
HETATM   25  C   UNL     1       7.970  27.552  56.652  1.00  0.00     0.044 A 
HETATM   26 CL   UNL     1       7.114  26.464  57.683  1.00  0.00    -0.084 Cl
HETATM   27  C   UNL     1       8.965  28.327  57.261  1.00  0.00     0.048 A 
HETATM   28  C   UNL     1       9.727  29.205  56.499  1.00  0.00     0.035 A 
HETATM   29 CL   UNL     1      10.941  30.161  57.255  1.00  0.00    -0.084 Cl
HETATM   30  C   UNL     1       9.516  29.310  55.130  1.00  0.00     0.024 A 
HETATM   31  C   UNL     1       8.519  28.544  54.523  1.00  0.00     0.013 A 
ENDBRANCH   9  24
TORSDOF 4
ENDMDL
MODEL 10
REMARK VINA RESULT:      -7.8      8.405     11.783
REMARK  4 active torsions:
REMARK  status: ('A' for Active; 'I' for Inactive)
REMARK    1  A    between atoms: C_9  and  C_10 
REMARK    2  A    between atoms: C_18  and  C_19 
REMARK       I    between atoms: C_19  and  N_20 
REMARK    3  A    between atoms: N_20  and  C_21 
REMARK    4  A    between atoms: C_24  and  O_25 
ROOT
HETATM    1  C   UNL     1       8.045  31.923  63.015  1.00  0.00     0.070 C 
HETATM    2  C   UNL     1       7.078  32.849  63.709  1.00  0.00     0.037 C 
HETATM    3  N   UNL     1       7.461  33.251  64.987  1.00  0.00    -0.192 N 
HETATM    4  C   UNL     1       6.627  33.864  65.850  1.00  0.00     0.725 A 
HETATM    5  N   UNL     1       5.396  34.271  65.416  1.00  0.00    -0.084 N 
HETATM    6  N   UNL     1       4.659  34.776  66.429  1.00  0.00    -0.149 NA
HETATM    7  C   UNL     1       5.535  34.688  67.436  1.00  0.00     0.275 A 
HETATM    8  N   UNL     1       6.752  34.138  67.123  1.00  0.00    -0.054 NA
HETATM    9  C   UNL     1       4.893  34.052  64.055  1.00  0.00     0.204 C 
HETATM   10  C   UNL     1       5.869  33.228  63.218  1.00  0.00     0.062 C 
HETATM   11  H   UNL     1       8.338  32.892  65.353  1.00  0.00     0.184 HD
ENDROOT
BRANCH  10  12
HETATM   12  C   UNL     1       5.281  32.720  61.947  1.00  0.00     0.256 C 
HETATM   13  N   UNL     1       5.849  33.226  60.800  1.00  0.00    -0.323 N 
HETATM   14  H   UNL     1       6.541  33.957  60.909  1.00  0.00     0.169 HD
HETATM   15  O   UNL     1       4.336  31.941  62.021  1.00  0.00    -0.267 OA
BRANCH  13  16
HETATM   16  C   UNL     1       5.627  32.774  59.480  1.00  0.00     0.035 A 
HETATM   17  C   UNL     1       6.274  31.675  58.914  1.00  0.00     0.032 A 
HETATM   18  C   UNL     1       6.037  31.320  57.580  1.00  0.00     0.039 A 
HETATM   19  C   UNL     1       5.153  32.052  56.790  1.00  0.00     0.068 A 
HETATM   20  C   UNL     1       4.502  33.150  57.347  1.00  0.00     0.039 A 
HETATM   21  C   UNL     1       4.735  33.505  58.684  1.00  0.00     0.032 A 
BRANCH  19  22
HETATM   22  O   UNL     1       5.025  31.599  55.507  1.00  0.00    -0.356 OA
HETATM   23  C   UNL     1       4.060  32.242  54.687  1.00  0.00     0.210 C 
ENDBRANCH  19  22
ENDBRANCH  13  16
ENDBRANCH  10  12
BRANCH   9  24
HETATM   24  C   UNL     1       4.457  35.374  63.418  1.00  0.00    -0.006 A 
HETATM   25  C   UNL     1       3.227  35.585  62.769  1.00  0.00     0.044 A 
HETATM   26 CL   UNL     1       1.984  34.387  62.701  1.00  0.00    -0.084 Cl
HETATM   27  C   UNL     1       2.941  36.808  62.148  1.00  0.00     0.048 A 
HETATM   28  C   UNL     1       3.870  37.841  62.185  1.00  0.00     0.035 A 
HETATM   29 CL   UNL     1       3.517  39.337  61.412  1.00  0.00    -0.084 Cl
HETATM   30  C   UNL     1       5.081  37.672  62.845  1.00  0.00     0.024 A 
HETATM   31  C   UNL     1       5.371  36.451  63.456  1.00  0.00     0.013 A 
ENDBRANCH   9  24
TORSDOF 4
ENDMDL
