MODEL 1
REMARK VINA RESULT:      -8.7      0.000      0.000
REMARK  3 active torsions:
REMARK  status: ('A' for Active; 'I' for Inactive)
REMARK    1  A    between atoms: C_7  and  C_8 
REMARK    2  A    between atoms: C_17  and  C_18 
REMARK       I    between atoms: C_18  and  N_19 
REMARK    3  A    between atoms: N_19  and  C_20 
ROOT
HETATM    1  C   UNL     1       5.229  27.593  54.909  1.00  0.00     0.206 C 
HETATM    2  N   UNL     1       4.962  28.992  55.254  1.00  0.00    -0.084 N 
HETATM    3  C   UNL     1       5.855  29.804  55.899  1.00  0.00     0.725 A 
HETATM    4  N   UNL     1       5.323  30.987  56.072  1.00  0.00    -0.054 NA
HETATM    5  C   UNL     1       4.066  30.832  55.547  1.00  0.00     0.275 A 
HETATM    6  N   UNL     1       3.782  29.619  55.057  1.00  0.00    -0.149 NA
HETATM    7  N   UNL     1       7.044  29.304  56.290  1.00  0.00    -0.192 N 
HETATM    8  C   UNL     1       7.340  27.944  56.241  1.00  0.00     0.037 C 
HETATM    9  C   UNL     1       8.554  27.518  57.029  1.00  0.00     0.070 C 
HETATM   10  C   UNL     1       6.509  27.101  55.578  1.00  0.00     0.063 C 
HETATM   11  H   UNL     1       7.629  29.891  56.878  1.00  0.00     0.184 HD
ENDROOT
BRANCH  10  12
HETATM   12  C   UNL     1       6.671  25.623  55.541  1.00  0.00     0.256 C 
HETATM   13  N   UNL     1       7.590  25.191  54.610  1.00  0.00    -0.323 N 
HETATM   14  H   UNL     1       8.022  25.896  54.026  1.00  0.00     0.169 HD
HETATM   15  O   UNL     1       5.983  24.940  56.288  1.00  0.00    -0.267 OA
BRANCH  13  16
HETATM   16  C   UNL     1       8.041  23.870  54.404  1.00  0.00     0.035 A 
HETATM   17  C   UNL     1       8.922  23.203  55.257  1.00  0.00     0.029 A 
HETATM   18  C   UNL     1       9.344  21.902  54.967  1.00  0.00     0.002 A 
HETATM   19  C   UNL     1       8.892  21.256  53.820  1.00  0.00     0.000 A 
HETATM   20  C   UNL     1       8.010  21.909  52.963  1.00  0.00     0.002 A 
HETATM   21  C   UNL     1       7.583  23.207  53.256  1.00  0.00     0.029 A 
ENDBRANCH  13  16
ENDBRANCH  10  12
BRANCH   1  22
HETATM   22  C   UNL     1       5.283  27.465  53.408  1.00  0.00     0.015 A 
HETATM   23  C   UNL     1       4.915  26.329  52.631  1.00  0.00     0.061 A 
HETATM   24  C   UNL     1       4.395  25.021  53.108  1.00  0.00     0.073 C 
HETATM   25  N   UNL     1       5.069  26.549  51.320  1.00  0.00    -0.178 NA
HETATM   26  N   UNL     1       5.487  27.820  51.245  1.00  0.00    -0.284 N 
HETATM   27  C   UNL     1       5.712  28.428  49.957  1.00  0.00     0.179 C 
HETATM   28  C   UNL     1       5.649  28.410  52.463  1.00  0.00     0.123 A 
ENDBRANCH   1  22
TORSDOF 3
ENDMDL
MODEL 2
REMARK VINA RESULT:      -8.2      3.421      5.136
REMARK  3 active torsions:
REMARK  status: ('A' for Active; 'I' for Inactive)
REMARK    1  A    between atoms: C_7  and  C_8 
REMARK    2  A    between atoms: C_17  and  C_18 
REMARK       I    between atoms: C_18  and  N_19 
REMARK    3  A    between atoms: N_19  and  C_20 
ROOT
HETATM    1  C   UNL     1       7.539  29.953  58.456  1.00  0.00     0.206 C 
HETATM    2  N   UNL     1       8.018  30.912  59.455  1.00  0.00    -0.084 N 
HETATM    3  C   UNL     1       9.231  31.542  59.390  1.00  0.00     0.725 A 
HETATM    4  N   UNL     1       9.371  32.328  60.428  1.00  0.00    -0.054 NA
HETATM    5  C   UNL     1       8.216  32.105  61.133  1.00  0.00     0.275 A 
HETATM    6  N   UNL     1       7.364  31.224  60.595  1.00  0.00    -0.149 NA
HETATM    7  N   UNL     1      10.076  31.252  58.381  1.00  0.00    -0.192 N 
HETATM    8  C   UNL     1       9.858  30.198  57.498  1.00  0.00     0.037 C 
HETATM    9  C   UNL     1      11.049  29.796  56.663  1.00  0.00     0.070 C 
HETATM   10  C   UNL     1       8.656  29.566  57.492  1.00  0.00     0.063 C 
HETATM   11  H   UNL     1      11.016  31.636  58.431  1.00  0.00     0.184 HD
ENDROOT
BRANCH  10  12
HETATM   12  C   UNL     1       8.344  28.371  56.664  1.00  0.00     0.256 C 
HETATM   13  N   UNL     1       8.412  27.184  57.359  1.00  0.00    -0.323 N 
HETATM   14  H   UNL     1       8.703  27.233  58.327  1.00  0.00     0.169 HD
HETATM   15  O   UNL     1       8.092  28.532  55.477  1.00  0.00    -0.267 OA
BRANCH  13  16
HETATM   16  C   UNL     1       8.074  25.898  56.888  1.00  0.00     0.035 A 
HETATM   17  C   UNL     1       7.017  25.639  56.013  1.00  0.00     0.029 A 
HETATM   18  C   UNL     1       6.728  24.330  55.615  1.00  0.00     0.002 A 
HETATM   19  C   UNL     1       7.492  23.267  56.090  1.00  0.00     0.000 A 
HETATM   20  C   UNL     1       8.551  23.513  56.960  1.00  0.00     0.002 A 
HETATM   21  C   UNL     1       8.843  24.822  57.353  1.00  0.00     0.029 A 
ENDBRANCH  13  16
ENDBRANCH  10  12
BRANCH   1  22
HETATM   22  C   UNL     1       6.350  30.545  57.745  1.00  0.00     0.015 A 
HETATM   23  C   UNL     1       5.235  29.840  57.206  1.00  0.00     0.061 A 
HETATM   24  C   UNL     1       4.982  28.376  57.221  1.00  0.00     0.073 C 
HETATM   25  N   UNL     1       4.342  30.667  56.650  1.00  0.00    -0.178 NA
HETATM   26  N   UNL     1       4.847  31.890  56.864  1.00  0.00    -0.284 N 
HETATM   27  C   UNL     1       4.113  33.055  56.436  1.00  0.00     0.179 C 
HETATM   28  C   UNL     1       6.053  31.876  57.498  1.00  0.00     0.123 A 
ENDBRANCH   1  22
TORSDOF 3
ENDMDL
MODEL 3
REMARK VINA RESULT:      -7.7      2.187      4.961
REMARK  3 active torsions:
REMARK  status: ('A' for Active; 'I' for Inactive)
REMARK    1  A    between atoms: C_7  and  C_8 
REMARK    2  A    between atoms: C_17  and  C_18 
REMARK       I    between atoms: C_18  and  N_19 
REMARK    3  A    between atoms: N_19  and  C_20 
ROOT
HETATM    1  C   UNL     1       5.638  28.246  51.254  1.00  0.00     0.206 C 
HETATM    2  N   UNL     1       5.562  29.303  50.242  1.00  0.00    -0.084 N 
HETATM    3  C   UNL     1       4.873  29.186  49.065  1.00  0.00     0.725 A 
HETATM    4  N   UNL     1       5.002  30.289  48.373  1.00  0.00    -0.054 NA
HETATM    5  C   UNL     1       5.829  31.046  49.162  1.00  0.00     0.275 A 
HETATM    6  N   UNL     1       6.225  30.478  50.307  1.00  0.00    -0.149 NA
HETATM    7  N   UNL     1       4.253  28.025  48.772  1.00  0.00    -0.192 N 
HETATM    8  C   UNL     1       4.435  26.866  49.521  1.00  0.00     0.037 C 
HETATM    9  C   UNL     1       3.958  25.592  48.868  1.00  0.00     0.070 C 
HETATM   10  C   UNL     1       5.074  26.934  50.717  1.00  0.00     0.063 C 
HETATM   11  H   UNL     1       3.863  27.924  47.838  1.00  0.00     0.184 HD
ENDROOT
BRANCH  10  12
HETATM   12  C   UNL     1       5.409  25.752  51.555  1.00  0.00     0.256 C 
HETATM   13  N   UNL     1       6.697  25.768  52.042  1.00  0.00    -0.323 N 
HETATM   14  H   UNL     1       7.289  26.536  51.756  1.00  0.00     0.169 HD
HETATM   15  O   UNL     1       4.557  24.887  51.712  1.00  0.00    -0.267 OA
BRANCH  13  16
HETATM   16  C   UNL     1       7.280  24.851  52.943  1.00  0.00     0.035 A 
HETATM   17  C   UNL     1       7.457  25.100  54.305  1.00  0.00     0.029 A 
HETATM   18  C   UNL     1       8.070  24.149  55.127  1.00  0.00     0.002 A 
HETATM   19  C   UNL     1       8.517  22.943  54.594  1.00  0.00     0.000 A 
HETATM   20  C   UNL     1       8.344  22.682  53.238  1.00  0.00     0.002 A 
HETATM   21  C   UNL     1       7.724  23.629  52.418  1.00  0.00     0.029 A 
ENDBRANCH  13  16
ENDBRANCH  10  12
BRANCH   1  22
HETATM   22  C   UNL     1       4.923  28.711  52.496  1.00  0.00     0.015 A 
HETATM   23  C   UNL     1       3.583  29.191  52.585  1.00  0.00     0.061 A 
HETATM   24  C   UNL     1       2.589  29.339  51.491  1.00  0.00     0.073 C 
HETATM   25  N   UNL     1       3.250  29.510  53.841  1.00  0.00    -0.178 NA
HETATM   26  N   UNL     1       4.337  29.201  54.560  1.00  0.00    -0.284 N 
HETATM   27  C   UNL     1       4.323  29.370  55.992  1.00  0.00     0.179 C 
HETATM   28  C   UNL     1       5.373  28.736  53.806  1.00  0.00     0.123 A 
ENDBRANCH   1  22
TORSDOF 3
ENDMDL
MODEL 4
REMARK VINA RESULT:      -7.7      2.030      5.398
REMARK  3 active torsions:
REMARK  status: ('A' for Active; 'I' for Inactive)
REMARK    1  A    between atoms: C_7  and  C_8 
REMARK    2  A    between atoms: C_17  and  C_18 
REMARK       I    between atoms: C_18  and  N_19 
REMARK    3  A    between atoms: N_19  and  C_20 
ROOT
HETATM    1  C   UNL     1       7.302  27.891  54.408  1.00  0.00     0.206 C 
HETATM    2  N   UNL     1       7.981  28.683  55.437  1.00  0.00    -0.084 N 
HETATM    3  C   UNL     1       7.334  29.500  56.324  1.00  0.00     0.725 A 
HETATM    4  N   UNL     1       8.210  30.075  57.108  1.00  0.00    -0.054 NA
HETATM    5  C   UNL     1       9.403  29.603  56.623  1.00  0.00     0.275 A 
HETATM    6  N   UNL     1       9.322  28.768  55.581  1.00  0.00    -0.149 NA
HETATM    7  N   UNL     1       5.995  29.638  56.243  1.00  0.00    -0.192 N 
HETATM    8  C   UNL     1       5.251  29.139  55.177  1.00  0.00     0.037 C 
HETATM    9  C   UNL     1       3.845  29.674  55.063  1.00  0.00     0.070 C 
HETATM   10  C   UNL     1       5.834  28.290  54.293  1.00  0.00     0.063 C 
HETATM   11  H   UNL     1       5.561  30.349  56.826  1.00  0.00     0.184 HD
ENDROOT
BRANCH  10  12
HETATM   12  C   UNL     1       5.169  27.771  53.068  1.00  0.00     0.256 C 
HETATM   13  N   UNL     1       5.667  28.305  51.900  1.00  0.00    -0.323 N 
HETATM   14  H   UNL     1       6.387  29.010  51.986  1.00  0.00     0.169 HD
HETATM   15  O   UNL     1       4.252  26.969  53.196  1.00  0.00    -0.267 OA
BRANCH  13  16
HETATM   16  C   UNL     1       5.321  27.943  50.581  1.00  0.00     0.035 A 
HETATM   17  C   UNL     1       4.907  26.664  50.204  1.00  0.00     0.029 A 
HETATM   18  C   UNL     1       4.610  26.379  48.868  1.00  0.00     0.002 A 
HETATM   19  C   UNL     1       4.726  27.369  47.895  1.00  0.00     0.000 A 
HETATM   20  C   UNL     1       5.135  28.649  48.259  1.00  0.00     0.002 A 
HETATM   21  C   UNL     1       5.426  28.935  49.596  1.00  0.00     0.029 A 
ENDBRANCH  13  16
ENDBRANCH  10  12
BRANCH   1  22
HETATM   22  C   UNL     1       7.475  26.429  54.728  1.00  0.00     0.015 A 
HETATM   23  C   UNL     1       7.716  25.371  53.803  1.00  0.00     0.061 A 
HETATM   24  C   UNL     1       7.857  25.460  52.326  1.00  0.00     0.073 C 
HETATM   25  N   UNL     1       7.834  24.188  54.416  1.00  0.00    -0.178 NA
HETATM   26  N   UNL     1       7.716  24.479  55.719  1.00  0.00    -0.284 N 
HETATM   27  C   UNL     1       7.845  23.432  56.703  1.00  0.00     0.179 C 
HETATM   28  C   UNL     1       7.483  25.799  55.962  1.00  0.00     0.123 A 
ENDBRANCH   1  22
TORSDOF 3
ENDMDL
MODEL 5
REMARK VINA RESULT:      -7.7      2.899      4.271
REMARK  3 active torsions:
REMARK  status: ('A' for Active; 'I' for Inactive)
REMARK    1  A    between atoms: C_7  and  C_8 
REMARK    2  A    between atoms: C_17  and  C_18 
REMARK       I    between atoms: C_18  and  N_19 
REMARK    3  A    between atoms: N_19  and  C_20 
ROOT
HETATM    1  C   UNL     1       5.220  30.289  57.473  1.00  0.00     0.206 C 
HETATM    2  N   UNL     1       4.717  31.241  58.467  1.00  0.00    -0.084 N 
HETATM    3  C   UNL     1       5.521  32.016  59.258  1.00  0.00     0.725 A 
HETATM    4  N   UNL     1       4.778  32.754  60.044  1.00  0.00    -0.054 NA
HETATM    5  C   UNL     1       3.507  32.354  59.722  1.00  0.00     0.275 A 
HETATM    6  N   UNL     1       3.413  31.408  58.780  1.00  0.00    -0.149 NA
HETATM    7  N   UNL     1       6.859  31.887  59.172  1.00  0.00    -0.192 N 
HETATM    8  C   UNL     1       7.471  30.865  58.451  1.00  0.00     0.037 C 
HETATM    9  C   UNL     1       8.937  30.656  58.739  1.00  0.00     0.070 C 
HETATM   10  C   UNL     1       6.726  30.094  57.618  1.00  0.00     0.063 C 
HETATM   11  H   UNL     1       7.424  32.377  59.861  1.00  0.00     0.184 HD
ENDROOT
BRANCH  10  12
HETATM   12  C   UNL     1       7.250  28.917  56.874  1.00  0.00     0.256 C 
HETATM   13  N   UNL     1       6.949  27.711  57.466  1.00  0.00    -0.323 N 
HETATM   14  H   UNL     1       6.453  27.740  58.347  1.00  0.00     0.169 HD
HETATM   15  O   UNL     1       7.903  29.112  55.857  1.00  0.00    -0.267 OA
BRANCH  13  16
HETATM   16  C   UNL     1       7.213  26.421  56.957  1.00  0.00     0.035 A 
HETATM   17  C   UNL     1       6.391  25.759  56.042  1.00  0.00     0.029 A 
HETATM   18  C   UNL     1       6.708  24.468  55.608  1.00  0.00     0.002 A 
HETATM   19  C   UNL     1       7.846  23.825  56.087  1.00  0.00     0.000 A 
HETATM   20  C   UNL     1       8.674  24.476  56.998  1.00  0.00     0.002 A 
HETATM   21  C   UNL     1       8.361  25.769  57.427  1.00  0.00     0.029 A 
ENDBRANCH  13  16
ENDBRANCH  10  12
BRANCH   1  22
HETATM   22  C   UNL     1       4.835  30.772  56.099  1.00  0.00     0.015 A 
HETATM   23  C   UNL     1       4.355  29.980  55.015  1.00  0.00     0.061 A 
HETATM   24  C   UNL     1       4.119  28.513  54.986  1.00  0.00     0.073 C 
HETATM   25  N   UNL     1       4.091  30.721  53.933  1.00  0.00    -0.178 NA
HETATM   26  N   UNL     1       4.353  31.977  54.322  1.00  0.00    -0.284 N 
HETATM   27  C   UNL     1       4.129  33.073  53.411  1.00  0.00     0.179 C 
HETATM   28  C   UNL     1       4.817  32.064  55.600  1.00  0.00     0.123 A 
ENDBRANCH   1  22
TORSDOF 3
ENDMDL
MODEL 6
REMARK VINA RESULT:      -7.7      1.825      4.137
REMARK  3 active torsions:
REMARK  status: ('A' for Active; 'I' for Inactive)
REMARK    1  A    between atoms: C_7  and  C_8 
REMARK    2  A    between atoms: C_17  and  C_18 
REMARK       I    between atoms: C_18  and  N_19 
REMARK    3  A    between atoms: N_19  and  C_20 
ROOT
HETATM    1  C   UNL     1       6.695  27.629  52.430  1.00  0.00     0.206 C 
HETATM    2  N   UNL     1       5.776  28.528  51.727  1.00  0.00    -0.084 N 
HETATM    3  C   UNL     1       4.549  28.150  51.254  1.00  0.00     0.725 A 
HETATM    4  N   UNL     1       3.974  29.170  50.668  1.00  0.00    -0.054 NA
HETATM    5  C   UNL     1       4.924  30.153  50.772  1.00  0.00     0.275 A 
HETATM    6  N   UNL     1       6.061  29.805  51.387  1.00  0.00    -0.149 NA
HETATM    7  N   UNL     1       4.151  26.870  51.391  1.00  0.00    -0.192 N 
HETATM    8  C   UNL     1       5.006  25.859  51.822  1.00  0.00     0.037 C 
HETATM    9  C   UNL     1       4.515  24.452  51.587  1.00  0.00     0.070 C 
HETATM   10  C   UNL     1       6.218  26.183  52.339  1.00  0.00     0.063 C 
HETATM   11  H   UNL     1       3.296  26.591  50.916  1.00  0.00     0.184 HD
ENDROOT
BRANCH  10  12
HETATM   12  C   UNL     1       7.249  25.188  52.741  1.00  0.00     0.256 C 
HETATM   13  N   UNL     1       6.810  24.289  53.688  1.00  0.00    -0.323 N 
HETATM   14  H   UNL     1       5.871  24.414  54.042  1.00  0.00     0.169 HD
HETATM   15  O   UNL     1       8.363  25.266  52.240  1.00  0.00    -0.267 OA
BRANCH  13  16
HETATM   16  C   UNL     1       7.509  23.172  54.193  1.00  0.00     0.035 A 
HETATM   17  C   UNL     1       7.983  23.075  55.502  1.00  0.00     0.029 A 
HETATM   18  C   UNL     1       8.693  21.944  55.918  1.00  0.00     0.002 A 
HETATM   19  C   UNL     1       8.938  20.902  55.028  1.00  0.00     0.000 A 
HETATM   20  C   UNL     1       8.468  20.987  53.720  1.00  0.00     0.002 A 
HETATM   21  C   UNL     1       7.752  22.114  53.307  1.00  0.00     0.029 A 
ENDBRANCH  13  16
ENDBRANCH  10  12
BRANCH   1  22
HETATM   22  C   UNL     1       6.835  28.097  53.856  1.00  0.00     0.015 A 
HETATM   23  C   UNL     1       5.783  28.354  54.781  1.00  0.00     0.061 A 
HETATM   24  C   UNL     1       4.319  28.220  54.564  1.00  0.00     0.073 C 
HETATM   25  N   UNL     1       6.249  28.744  55.973  1.00  0.00    -0.178 NA
HETATM   26  N   UNL     1       7.582  28.697  55.837  1.00  0.00    -0.284 N 
HETATM   27  C   UNL     1       8.430  29.011  56.960  1.00  0.00     0.179 C 
HETATM   28  C   UNL     1       7.987  28.334  54.588  1.00  0.00     0.123 A 
ENDBRANCH   1  22
TORSDOF 3
ENDMDL
MODEL 7
REMARK VINA RESULT:      -7.6      8.065     11.575
REMARK  3 active torsions:
REMARK  status: ('A' for Active; 'I' for Inactive)
REMARK    1  A    between atoms: C_7  and  C_8 
REMARK    2  A    between atoms: C_17  and  C_18 
REMARK       I    between atoms: C_18  and  N_19 
REMARK    3  A    between atoms: N_19  and  C_20 
ROOT
HETATM    1  C   UNL     1       5.739  35.184  62.532  1.00  0.00     0.206 C 
HETATM    2  N   UNL     1       5.333  36.592  62.566  1.00  0.00    -0.084 N 
HETATM    3  C   UNL     1       4.119  37.048  62.128  1.00  0.00     0.725 A 
HETATM    4  N   UNL     1       4.060  38.347  62.281  1.00  0.00    -0.054 NA
HETATM    5  C   UNL     1       5.300  38.648  62.783  1.00  0.00     0.275 A 
HETATM    6  N   UNL     1       6.130  37.612  62.951  1.00  0.00    -0.149 NA
HETATM    7  N   UNL     1       3.240  36.180  61.588  1.00  0.00    -0.192 N 
HETATM    8  C   UNL     1       3.576  34.866  61.276  1.00  0.00     0.037 C 
HETATM    9  C   UNL     1       2.606  34.147  60.372  1.00  0.00     0.070 C 
HETATM   10  C   UNL     1       4.750  34.351  61.723  1.00  0.00     0.063 C 
HETATM   11  H   UNL     1       2.406  36.567  61.154  1.00  0.00     0.184 HD
ENDROOT
BRANCH  10  12
HETATM   12  C   UNL     1       5.257  32.997  61.373  1.00  0.00     0.256 C 
HETATM   13  N   UNL     1       6.098  32.987  60.283  1.00  0.00    -0.323 N 
HETATM   14  H   UNL     1       6.253  33.868  59.811  1.00  0.00     0.169 HD
HETATM   15  O   UNL     1       4.876  32.041  62.036  1.00  0.00    -0.267 OA
BRANCH  13  16
HETATM   16  C   UNL     1       6.817  31.886  59.769  1.00  0.00     0.035 A 
HETATM   17  C   UNL     1       7.964  31.356  60.365  1.00  0.00     0.029 A 
HETATM   18  C   UNL     1       8.636  30.280  59.776  1.00  0.00     0.002 A 
HETATM   19  C   UNL     1       8.172  29.727  58.586  1.00  0.00     0.000 A 
HETATM   20  C   UNL     1       7.028  30.245  57.985  1.00  0.00     0.002 A 
HETATM   21  C   UNL     1       6.352  31.316  58.576  1.00  0.00     0.029 A 
ENDBRANCH  13  16
ENDBRANCH  10  12
BRANCH   1  22
HETATM   22  C   UNL     1       5.884  34.686  63.947  1.00  0.00     0.015 A 
HETATM   23  C   UNL     1       6.856  33.766  64.436  1.00  0.00     0.061 A 
HETATM   24  C   UNL     1       7.943  33.093  63.680  1.00  0.00     0.073 C 
HETATM   25  N   UNL     1       6.718  33.544  65.748  1.00  0.00    -0.178 NA
HETATM   26  N   UNL     1       5.703  34.340  66.113  1.00  0.00    -0.284 N 
HETATM   27  C   UNL     1       5.299  34.402  67.496  1.00  0.00     0.179 C 
HETATM   28  C   UNL     1       5.156  35.032  65.074  1.00  0.00     0.123 A 
ENDBRANCH   1  22
TORSDOF 3
ENDMDL
MODEL 8
REMARK VINA RESULT:      -7.5      8.330     11.759
REMARK  3 active torsions:
REMARK  status: ('A' for Active; 'I' for Inactive)
REMARK    1  A    between atoms: C_7  and  C_8 
REMARK    2  A    between atoms: C_17  and  C_18 
REMARK       I    between atoms: C_18  and  N_19 
REMARK    3  A    between atoms: N_19  and  C_20 
ROOT
HETATM    1  C   UNL     1       4.807  33.859  64.074  1.00  0.00     0.206 C 
HETATM    2  N   UNL     1       5.288  34.088  65.439  1.00  0.00    -0.084 N 
HETATM    3  C   UNL     1       6.572  33.848  65.846  1.00  0.00     0.725 A 
HETATM    4  N   UNL     1       6.689  34.141  67.117  1.00  0.00    -0.054 NA
HETATM    5  C   UNL     1       5.415  34.519  67.457  1.00  0.00     0.275 A 
HETATM    6  N   UNL     1       4.510  34.478  66.472  1.00  0.00    -0.149 NA
HETATM    7  N   UNL     1       7.460  33.331  64.974  1.00  0.00    -0.192 N 
HETATM    8  C   UNL     1       7.089  32.846  63.722  1.00  0.00     0.037 C 
HETATM    9  C   UNL     1       8.121  31.995  63.025  1.00  0.00     0.070 C 
HETATM   10  C   UNL     1       5.839  33.093  63.252  1.00  0.00     0.063 C 
HETATM   11  H   UNL     1       8.364  33.043  65.339  1.00  0.00     0.184 HD
ENDROOT
BRANCH  10  12
HETATM   12  C   UNL     1       5.302  32.546  61.978  1.00  0.00     0.256 C 
HETATM   13  N   UNL     1       5.895  33.078  60.854  1.00  0.00    -0.323 N 
HETATM   14  H   UNL     1       6.589  33.801  60.997  1.00  0.00     0.169 HD
HETATM   15  O   UNL     1       4.395  31.726  62.030  1.00  0.00    -0.267 OA
BRANCH  13  16
HETATM   16  C   UNL     1       5.681  32.696  59.513  1.00  0.00     0.035 A 
HETATM   17  C   UNL     1       4.758  33.308  58.664  1.00  0.00     0.029 A 
HETATM   18  C   UNL     1       4.585  32.850  57.354  1.00  0.00     0.002 A 
HETATM   19  C   UNL     1       5.330  31.773  56.882  1.00  0.00     0.000 A 
HETATM   20  C   UNL     1       6.256  31.155  57.719  1.00  0.00     0.002 A 
HETATM   21  C   UNL     1       6.434  31.618  59.026  1.00  0.00     0.029 A 
ENDBRANCH  13  16
ENDBRANCH  10  12
BRANCH   1  22
HETATM   22  C   UNL     1       4.454  35.187  63.454  1.00  0.00     0.015 A 
HETATM   23  C   UNL     1       3.238  35.529  62.795  1.00  0.00     0.061 A 
HETATM   24  C   UNL     1       2.045  34.673  62.569  1.00  0.00     0.073 C 
HETATM   25  N   UNL     1       3.240  36.798  62.370  1.00  0.00    -0.178 NA
HETATM   26  N   UNL     1       4.419  37.284  62.785  1.00  0.00    -0.284 N 
HETATM   27  C   UNL     1       4.752  38.666  62.544  1.00  0.00     0.179 C 
HETATM   28  C   UNL     1       5.191  36.360  63.423  1.00  0.00     0.123 A 
ENDBRANCH   1  22
TORSDOF 3
ENDMDL
MODEL 9
REMARK VINA RESULT:      -7.3      5.265      7.965
REMARK  3 active torsions:
REMARK  status: ('A' for Active; 'I' for Inactive)
REMARK    1  A    between atoms: C_7  and  C_8 
REMARK    2  A    between atoms: C_17  and  C_18 
REMARK       I    between atoms: C_18  and  N_19 
REMARK    3  A    between atoms: N_19  and  C_20 
ROOT
HETATM    1  C   UNL     1       5.609  32.015  60.797  1.00  0.00     0.206 C 
HETATM    2  N   UNL     1       5.710  32.436  62.197  1.00  0.00    -0.084 N 
HETATM    3  C   UNL     1       6.855  32.920  62.769  1.00  0.00     0.725 A 
HETATM    4  N   UNL     1       6.630  33.200  64.028  1.00  0.00    -0.054 NA
HETATM    5  C   UNL     1       5.322  32.822  64.191  1.00  0.00     0.275 A 
HETATM    6  N   UNL     1       4.718  32.321  63.107  1.00  0.00    -0.149 NA
HETATM    7  N   UNL     1       7.986  32.983  62.038  1.00  0.00    -0.192 N 
HETATM    8  C   UNL     1       8.100  32.403  60.778  1.00  0.00     0.037 C 
HETATM    9  C   UNL     1       9.508  32.261  60.255  1.00  0.00     0.070 C 
HETATM   10  C   UNL     1       6.988  31.947  60.147  1.00  0.00     0.063 C 
HETATM   11  H   UNL     1       8.847  33.221  62.524  1.00  0.00     0.184 HD
ENDROOT
BRANCH  10  12
HETATM   12  C   UNL     1       7.000  31.225  58.847  1.00  0.00     0.256 C 
HETATM   13  N   UNL     1       7.159  29.863  58.972  1.00  0.00    -0.323 N 
HETATM   14  H   UNL     1       7.292  29.498  59.907  1.00  0.00     0.169 HD
HETATM   15  O   UNL     1       6.902  31.877  57.816  1.00  0.00    -0.267 OA
BRANCH  13  16
HETATM   16  C   UNL     1       7.109  28.899  57.943  1.00  0.00     0.035 A 
HETATM   17  C   UNL     1       5.932  28.486  57.316  1.00  0.00     0.029 A 
HETATM   18  C   UNL     1       5.963  27.502  56.322  1.00  0.00     0.002 A 
HETATM   19  C   UNL     1       7.172  26.921  55.948  1.00  0.00     0.000 A 
HETATM   20  C   UNL     1       8.352  27.326  56.564  1.00  0.00     0.002 A 
HETATM   21  C   UNL     1       8.321  28.314  57.552  1.00  0.00     0.029 A 
ENDBRANCH  13  16
ENDBRANCH  10  12
BRANCH   1  22
HETATM   22  C   UNL     1       4.681  32.956  60.072  1.00  0.00     0.015 A 
HETATM   23  C   UNL     1       3.726  32.615  59.071  1.00  0.00     0.061 A 
HETATM   24  C   UNL     1       3.420  31.272  58.516  1.00  0.00     0.073 C 
HETATM   25  N   UNL     1       3.051  33.687  58.640  1.00  0.00    -0.178 NA
HETATM   26  N   UNL     1       3.528  34.698  59.379  1.00  0.00    -0.284 N 
HETATM   27  C   UNL     1       2.985  36.024  59.219  1.00  0.00     0.179 C 
HETATM   28  C   UNL     1       4.516  34.321  60.239  1.00  0.00     0.123 A 
ENDBRANCH   1  22
TORSDOF 3
ENDMDL
MODEL 10
REMARK VINA RESULT:      -7.2      9.378     11.081
REMARK  3 active torsions:
REMARK  status: ('A' for Active; 'I' for Inactive)
REMARK    1  A    between atoms: C_7  and  C_8 
REMARK    2  A    between atoms: C_17  and  C_18 
REMARK       I    between atoms: C_18  and  N_19 
REMARK    3  A    between atoms: N_19  and  C_20 
ROOT
HETATM    1  C   UNL     1       3.415  34.751  60.755  1.00  0.00     0.206 C 
HETATM    2  N   UNL     1       1.951  34.743  60.811  1.00  0.00    -0.084 N 
HETATM    3  C   UNL     1       1.231  34.787  61.974  1.00  0.00     0.725 A 
HETATM    4  N   UNL     1      -0.048  34.757  61.697  1.00  0.00    -0.054 NA
HETATM    5  C   UNL     1      -0.058  34.649  60.330  1.00  0.00     0.275 A 
HETATM    6  N   UNL     1       1.142  34.608  59.738  1.00  0.00    -0.149 NA
HETATM    7  N   UNL     1       1.879  34.794  63.156  1.00  0.00    -0.192 N 
HETATM    8  C   UNL     1       3.249  34.568  63.264  1.00  0.00     0.037 C 
HETATM    9  C   UNL     1       3.747  34.265  64.655  1.00  0.00     0.070 C 
HETATM   10  C   UNL     1       4.016  34.558  62.144  1.00  0.00     0.063 C 
HETATM   11  H   UNL     1       1.320  34.694  63.999  1.00  0.00     0.184 HD
ENDROOT
BRANCH  10  12
HETATM   12  C   UNL     1       5.467  34.233  62.127  1.00  0.00     0.256 C 
HETATM   13  N   UNL     1       5.738  32.934  61.755  1.00  0.00    -0.323 N 
HETATM   14  H   UNL     1       4.946  32.331  61.577  1.00  0.00     0.169 HD
HETATM   15  O   UNL     1       6.264  35.100  62.459  1.00  0.00    -0.267 OA
BRANCH  13  16
HETATM   16  C   UNL     1       7.007  32.353  61.545  1.00  0.00     0.035 A 
HETATM   17  C   UNL     1       7.804  32.603  60.426  1.00  0.00     0.029 A 
HETATM   18  C   UNL     1       9.039  31.964  60.278  1.00  0.00     0.002 A 
HETATM   19  C   UNL     1       9.487  31.067  61.244  1.00  0.00     0.000 A 
HETATM   20  C   UNL     1       8.702  30.812  62.365  1.00  0.00     0.002 A 
HETATM   21  C   UNL     1       7.470  31.456  62.517  1.00  0.00     0.029 A 
ENDBRANCH  13  16
ENDBRANCH  10  12
BRANCH   1  22
HETATM   22  C   UNL     1       3.869  36.034  60.108  1.00  0.00     0.015 A 
HETATM   23  C   UNL     1       4.171  36.240  58.731  1.00  0.00     0.061 A 
HETATM   24  C   UNL     1       4.105  35.255  57.621  1.00  0.00     0.073 C 
HETATM   25  N   UNL     1       4.533  37.504  58.482  1.00  0.00    -0.178 NA
HETATM   26  N   UNL     1       4.427  38.118  59.669  1.00  0.00    -0.284 N 
HETATM   27  C   UNL     1       4.696  39.531  59.774  1.00  0.00     0.179 C 
HETATM   28  C   UNL     1       4.051  37.284  60.679  1.00  0.00     0.123 A 
ENDBRANCH   1  22
TORSDOF 3
ENDMDL
