MODEL 1
REMARK VINA RESULT:      -8.9      0.000      0.000
REMARK  6 active torsions:
REMARK  status: ('A' for Active; 'I' for Inactive)
REMARK    1  A    between atoms: C_4  and  C_5 
REMARK    2  A    between atoms: C_5  and  N_6 
REMARK    3  A    between atoms: C_5  and  C_19 
REMARK       I    between atoms: N_6  and  C_7 
REMARK    4  A    between atoms: C_7  and  C_8 
REMARK       I    between atoms: C_19  and  N_20 
REMARK    5  A    between atoms: N_20  and  C_21 
REMARK    6  A    between atoms: C_21  and  C_22 
ROOT
HETATM    1  C   UNL     1       7.156  27.657  57.007  1.00  0.00     0.210 C 
ENDROOT
BRANCH   1   2
HETATM    2  C   UNL     1       8.180  28.694  57.448  1.00  0.00    -0.026 A 
HETATM    3  C   UNL     1       9.408  28.805  56.774  1.00  0.00     0.010 A 
HETATM    4  C   UNL     1      10.350  29.762  57.160  1.00  0.00     0.001 A 
HETATM    5  C   UNL     1      10.085  30.613  58.230  1.00  0.00     0.000 A 
HETATM    6  C   UNL     1       8.880  30.506  58.919  1.00  0.00     0.001 A 
HETATM    7  C   UNL     1       7.937  29.553  58.534  1.00  0.00     0.010 A 
ENDBRANCH   1   2
BRANCH   1   8
HETATM    8  N   UNL     1       6.628  27.933  55.669  1.00  0.00    -0.340 N 
HETATM    9  C   UNL     1       5.296  27.980  55.343  1.00  0.00     0.253 C 
HETATM   10  O   UNL     1       4.404  28.066  56.180  1.00  0.00    -0.268 OA
HETATM   11  H   UNL     1       7.307  27.973  54.923  1.00  0.00     0.164 HD
BRANCH   9  12
HETATM   12  C   UNL     1       4.964  28.036  53.904  1.00  0.00     0.047 A 
HETATM   13  C   UNL     1       4.943  26.901  53.069  1.00  0.00     0.027 A 
HETATM   14  C   UNL     1       4.637  27.128  51.728  1.00  0.00     0.138 A 
HETATM   15  C   UNL     1       5.122  25.491  53.199  1.00  0.00     0.033 A 
HETATM   16  N   UNL     1       4.675  25.931  51.069  1.00  0.00    -0.350 N 
HETATM   17  N   UNL     1       4.342  28.299  51.138  1.00  0.00    -0.242 NA
HETATM   18  H   UNL     1       4.487  25.832  50.081  1.00  0.00     0.166 HD
HETATM   19  C   UNL     1       4.968  24.924  51.951  1.00  0.00     0.090 A 
HETATM   20  C   UNL     1       4.337  29.343  51.994  1.00  0.00     0.120 A 
HETATM   21  C   UNL     1       4.629  29.276  53.347  1.00  0.00     0.037 A 
ENDBRANCH   9  12
ENDBRANCH   1   8
BRANCH   1  22
HETATM   22  C   UNL     1       7.584  26.202  57.352  1.00  0.00     0.245 C 
HETATM   23  N   UNL     1       7.621  25.296  56.314  1.00  0.00    -0.354 N 
HETATM   24  H   UNL     1       7.614  25.696  55.375  1.00  0.00     0.162 HD
HETATM   25  O   UNL     1       7.982  25.904  58.483  1.00  0.00    -0.271 OA
BRANCH  23  26
HETATM   26  C   UNL     1       8.343  24.059  56.487  1.00  0.00     0.168 C 
BRANCH  26  27
HETATM   27  C   UNL     1       8.201  23.174  55.291  1.00  0.00     0.000 A 
HETATM   28  S   UNL     1       8.006  21.477  55.454  1.00  0.00    -0.105 SA
HETATM   29  C   UNL     1       7.861  21.263  53.765  1.00  0.00     0.050 A 
HETATM   30  C   UNL     1       7.936  22.456  53.083  1.00  0.00     0.008 A 
HETATM   31  C   UNL     1       8.135  23.558  53.964  1.00  0.00     0.017 A 
ENDBRANCH  26  27
ENDBRANCH  23  26
ENDBRANCH   1  22
TORSDOF 6
ENDMDL
MODEL 2
REMARK VINA RESULT:      -8.9      2.912      7.208
REMARK  6 active torsions:
REMARK  status: ('A' for Active; 'I' for Inactive)
REMARK    1  A    between atoms: C_4  and  C_5 
REMARK    2  A    between atoms: C_5  and  N_6 
REMARK    3  A    between atoms: C_5  and  C_19 
REMARK       I    between atoms: N_6  and  C_7 
REMARK    4  A    between atoms: C_7  and  C_8 
REMARK       I    between atoms: C_19  and  N_20 
REMARK    5  A    between atoms: N_20  and  C_21 
REMARK    6  A    between atoms: C_21  and  C_22 
ROOT
HETATM    1  C   UNL     1       6.430  27.425  55.119  1.00  0.00     0.210 C 
ENDROOT
BRANCH   1   2
HETATM    2  C   UNL     1       6.881  26.170  54.383  1.00  0.00    -0.026 A 
HETATM    3  C   UNL     1       6.514  24.901  54.862  1.00  0.00     0.010 A 
HETATM    4  C   UNL     1       6.910  23.743  54.188  1.00  0.00     0.001 A 
HETATM    5  C   UNL     1       7.684  23.834  53.035  1.00  0.00     0.000 A 
HETATM    6  C   UNL     1       8.070  25.083  52.556  1.00  0.00     0.001 A 
HETATM    7  C   UNL     1       7.674  26.241  53.226  1.00  0.00     0.010 A 
ENDBRANCH   1   2
BRANCH   1   8
HETATM    8  N   UNL     1       7.559  28.196  55.644  1.00  0.00    -0.340 N 
HETATM    9  C   UNL     1       8.010  28.150  56.938  1.00  0.00     0.253 C 
HETATM   10  O   UNL     1       7.697  27.264  57.726  1.00  0.00    -0.268 OA
HETATM   11  H   UNL     1       7.946  28.894  55.024  1.00  0.00     0.164 HD
BRANCH   9  12
HETATM   12  C   UNL     1       9.003  29.170  57.335  1.00  0.00     0.047 A 
HETATM   13  C   UNL     1       8.717  30.223  58.228  1.00  0.00     0.027 A 
HETATM   14  C   UNL     1       9.756  31.118  58.478  1.00  0.00     0.138 A 
HETATM   15  C   UNL     1       7.620  30.658  59.031  1.00  0.00     0.033 A 
HETATM   16  N   UNL     1       9.303  32.073  59.346  1.00  0.00    -0.350 N 
HETATM   17  N   UNL     1      11.005  31.089  57.982  1.00  0.00    -0.242 NA
HETATM   18  H   UNL     1       9.872  32.836  59.682  1.00  0.00     0.166 HD
HETATM   19  C   UNL     1       8.004  31.806  59.693  1.00  0.00     0.090 A 
HETATM   20  C   UNL     1      11.232  30.037  57.167  1.00  0.00     0.120 A 
HETATM   21  C   UNL     1      10.300  29.074  56.818  1.00  0.00     0.037 A 
ENDBRANCH   9  12
ENDBRANCH   1   8
BRANCH   1  22
HETATM   22  C   UNL     1       5.291  28.183  54.379  1.00  0.00     0.245 C 
HETATM   23  N   UNL     1       5.624  28.822  53.204  1.00  0.00    -0.354 N 
HETATM   24  H   UNL     1       6.511  28.543  52.782  1.00  0.00     0.162 HD
HETATM   25  O   UNL     1       4.121  28.116  54.768  1.00  0.00    -0.271 OA
BRANCH  23  26
HETATM   26  C   UNL     1       4.573  29.220  52.299  1.00  0.00     0.168 C 
BRANCH  26  27
HETATM   27  C   UNL     1       4.449  28.265  51.155  1.00  0.00     0.000 A 
HETATM   28  S   UNL     1       3.637  28.706  49.709  1.00  0.00    -0.105 SA
HETATM   29  C   UNL     1       3.986  27.204  48.974  1.00  0.00     0.050 A 
HETATM   30  C   UNL     1       4.725  26.385  49.797  1.00  0.00     0.008 A 
HETATM   31  C   UNL     1       4.989  26.997  51.057  1.00  0.00     0.017 A 
ENDBRANCH  26  27
ENDBRANCH  23  26
ENDBRANCH   1  22
TORSDOF 6
ENDMDL
MODEL 3
REMARK VINA RESULT:      -8.8      3.189      6.426
REMARK  6 active torsions:
REMARK  status: ('A' for Active; 'I' for Inactive)
REMARK    1  A    between atoms: C_4  and  C_5 
REMARK    2  A    between atoms: C_5  and  N_6 
REMARK    3  A    between atoms: C_5  and  C_19 
REMARK       I    between atoms: N_6  and  C_7 
REMARK    4  A    between atoms: C_7  and  C_8 
REMARK       I    between atoms: C_19  and  N_20 
REMARK    5  A    between atoms: N_20  and  C_21 
REMARK    6  A    between atoms: C_21  and  C_22 
ROOT
HETATM    1  C   UNL     1       7.371  26.447  54.085  1.00  0.00     0.210 C 
ENDROOT
BRANCH   1   2
HETATM    2  C   UNL     1       7.648  27.286  55.326  1.00  0.00    -0.026 A 
HETATM    3  C   UNL     1       7.474  26.731  56.605  1.00  0.00     0.010 A 
HETATM    4  C   UNL     1       7.737  27.485  57.752  1.00  0.00     0.001 A 
HETATM    5  C   UNL     1       8.167  28.805  57.638  1.00  0.00     0.000 A 
HETATM    6  C   UNL     1       8.328  29.375  56.379  1.00  0.00     0.001 A 
HETATM    7  C   UNL     1       8.068  28.623  55.232  1.00  0.00     0.010 A 
ENDBRANCH   1   2
BRANCH   1   8
HETATM    8  N   UNL     1       7.773  25.050  54.259  1.00  0.00    -0.340 N 
HETATM    9  C   UNL     1       7.847  24.122  53.252  1.00  0.00     0.253 C 
HETATM   10  O   UNL     1       7.851  24.421  52.063  1.00  0.00    -0.268 OA
HETATM   11  H   UNL     1       7.885  24.736  55.212  1.00  0.00     0.164 HD
BRANCH   9  12
HETATM   12  C   UNL     1       8.041  22.713  53.657  1.00  0.00     0.047 A 
HETATM   13  C   UNL     1       8.181  22.305  54.999  1.00  0.00     0.027 A 
HETATM   14  C   UNL     1       8.383  20.943  55.211  1.00  0.00     0.138 A 
HETATM   15  C   UNL     1       8.143  22.904  56.294  1.00  0.00     0.033 A 
HETATM   16  N   UNL     1       8.510  20.730  56.556  1.00  0.00    -0.350 N 
HETATM   17  N   UNL     1       8.446  19.967  54.289  1.00  0.00    -0.242 NA
HETATM   18  H   UNL     1       8.665  19.819  56.964  1.00  0.00     0.166 HD
HETATM   19  C   UNL     1       8.365  21.914  57.229  1.00  0.00     0.090 A 
HETATM   20  C   UNL     1       8.264  20.411  53.027  1.00  0.00     0.120 A 
HETATM   21  C   UNL     1       8.062  21.731  52.660  1.00  0.00     0.037 A 
ENDBRANCH   9  12
ENDBRANCH   1   8
BRANCH   1  22
HETATM   22  C   UNL     1       5.984  26.749  53.450  1.00  0.00     0.245 C 
HETATM   23  N   UNL     1       5.948  26.943  52.086  1.00  0.00    -0.354 N 
HETATM   24  H   UNL     1       6.771  26.628  51.570  1.00  0.00     0.162 HD
HETATM   25  O   UNL     1       4.949  26.703  54.123  1.00  0.00    -0.271 OA
BRANCH  23  26
HETATM   26  C   UNL     1       4.682  26.863  51.399  1.00  0.00     0.168 C 
BRANCH  26  27
HETATM   27  C   UNL     1       4.825  27.212  49.952  1.00  0.00     0.000 A 
HETATM   28  S   UNL     1       5.443  28.735  49.459  1.00  0.00    -0.105 SA
HETATM   29  C   UNL     1       5.346  28.316  47.805  1.00  0.00     0.050 A 
HETATM   30  C   UNL     1       4.874  27.036  47.623  1.00  0.00     0.008 A 
HETATM   31  C   UNL     1       4.571  26.401  48.862  1.00  0.00     0.017 A 
ENDBRANCH  26  27
ENDBRANCH  23  26
ENDBRANCH   1  22
TORSDOF 6
ENDMDL
MODEL 4
REMARK VINA RESULT:      -8.7      2.700      6.787
REMARK  6 active torsions:
REMARK  status: ('A' for Active; 'I' for Inactive)
REMARK    1  A    between atoms: C_4  and  C_5 
REMARK    2  A    between atoms: C_5  and  N_6 
REMARK    3  A    between atoms: C_5  and  C_19 
REMARK       I    between atoms: N_6  and  C_7 
REMARK    4  A    between atoms: C_7  and  C_8 
REMARK       I    between atoms: C_19  and  N_20 
REMARK    5  A    between atoms: N_20  and  C_21 
REMARK    6  A    between atoms: C_21  and  C_22 
ROOT
HETATM    1  C   UNL     1       5.231  25.790  55.447  1.00  0.00     0.210 C 
ENDROOT
BRANCH   1   2
HETATM    2  C   UNL     1       5.346  26.141  53.970  1.00  0.00    -0.026 A 
HETATM    3  C   UNL     1       5.066  25.173  52.991  1.00  0.00     0.010 A 
HETATM    4  C   UNL     1       5.154  25.486  51.632  1.00  0.00     0.001 A 
HETATM    5  C   UNL     1       5.532  26.765  51.231  1.00  0.00     0.000 A 
HETATM    6  C   UNL     1       5.829  27.731  52.188  1.00  0.00     0.001 A 
HETATM    7  C   UNL     1       5.739  27.421  53.546  1.00  0.00     0.010 A 
ENDBRANCH   1   2
BRANCH   1   8
HETATM    8  N   UNL     1       5.982  24.581  55.790  1.00  0.00    -0.340 N 
HETATM    9  C   UNL     1       7.295  24.351  55.465  1.00  0.00     0.253 C 
HETATM   10  O   UNL     1       8.059  25.237  55.095  1.00  0.00    -0.268 OA
HETATM   11  H   UNL     1       5.446  23.824  56.191  1.00  0.00     0.164 HD
BRANCH   9  12
HETATM   12  C   UNL     1       7.807  22.983  55.688  1.00  0.00     0.047 A 
HETATM   13  C   UNL     1       7.985  22.044  54.652  1.00  0.00     0.027 A 
HETATM   14  C   UNL     1       8.451  20.787  55.032  1.00  0.00     0.138 A 
HETATM   15  C   UNL     1       7.851  22.002  53.231  1.00  0.00     0.033 A 
HETATM   16  N   UNL     1       8.550  20.008  53.913  1.00  0.00    -0.350 N 
HETATM   17  N   UNL     1       8.769  20.367  56.268  1.00  0.00    -0.242 NA
HETATM   18  H   UNL     1       8.868  19.049  53.927  1.00  0.00     0.166 HD
HETATM   19  C   UNL     1       8.189  20.734  52.808  1.00  0.00     0.090 A 
HETATM   20  C   UNL     1       8.619  21.320  57.213  1.00  0.00     0.120 A 
HETATM   21  C   UNL     1       8.157  22.607  56.990  1.00  0.00     0.037 A 
ENDBRANCH   9  12
ENDBRANCH   1   8
BRANCH   1  22
HETATM   22  C   UNL     1       5.358  27.033  56.374  1.00  0.00     0.245 C 
HETATM   23  N   UNL     1       6.610  27.315  56.877  1.00  0.00    -0.354 N 
HETATM   24  H   UNL     1       7.391  26.851  56.410  1.00  0.00     0.162 HD
HETATM   25  O   UNL     1       4.403  27.795  56.556  1.00  0.00    -0.271 OA
BRANCH  23  26
HETATM   26  C   UNL     1       6.867  28.624  57.427  1.00  0.00     0.168 C 
BRANCH  26  27
HETATM   27  C   UNL     1       8.196  29.147  56.985  1.00  0.00     0.000 A 
HETATM   28  S   UNL     1       9.249  29.948  58.080  1.00  0.00    -0.105 SA
HETATM   29  C   UNL     1      10.457  30.137  56.887  1.00  0.00     0.050 A 
HETATM   30  C   UNL     1      10.085  29.586  55.682  1.00  0.00     0.008 A 
HETATM   31  C   UNL     1       8.780  29.018  55.739  1.00  0.00     0.017 A 
ENDBRANCH  26  27
ENDBRANCH  23  26
ENDBRANCH   1  22
TORSDOF 6
ENDMDL
MODEL 5
REMARK VINA RESULT:      -8.7      2.902      7.307
REMARK  6 active torsions:
REMARK  status: ('A' for Active; 'I' for Inactive)
REMARK    1  A    between atoms: C_4  and  C_5 
REMARK    2  A    between atoms: C_5  and  N_6 
REMARK    3  A    between atoms: C_5  and  C_19 
REMARK       I    between atoms: N_6  and  C_7 
REMARK    4  A    between atoms: C_7  and  C_8 
REMARK       I    between atoms: C_19  and  N_20 
REMARK    5  A    between atoms: N_20  and  C_21 
REMARK    6  A    between atoms: C_21  and  C_22 
ROOT
HETATM    1  C   UNL     1       6.091  25.993  53.864  1.00  0.00     0.210 C 
ENDROOT
BRANCH   1   2
HETATM    2  C   UNL     1       5.461  26.548  52.594  1.00  0.00    -0.026 A 
HETATM    3  C   UNL     1       5.567  25.839  51.385  1.00  0.00     0.010 A 
HETATM    4  C   UNL     1       4.981  26.331  50.215  1.00  0.00     0.001 A 
HETATM    5  C   UNL     1       4.291  27.540  50.233  1.00  0.00     0.000 A 
HETATM    6  C   UNL     1       4.191  28.264  51.419  1.00  0.00     0.001 A 
HETATM    7  C   UNL     1       4.773  27.773  52.588  1.00  0.00     0.010 A 
ENDBRANCH   1   2
BRANCH   1   8
HETATM    8  N   UNL     1       6.503  24.595  53.714  1.00  0.00    -0.340 N 
HETATM    9  C   UNL     1       6.977  23.802  54.727  1.00  0.00     0.253 C 
HETATM   10  O   UNL     1       6.854  24.085  55.914  1.00  0.00    -0.268 OA
HETATM   11  H   UNL     1       6.544  24.244  52.768  1.00  0.00     0.164 HD
BRANCH   9  12
HETATM   12  C   UNL     1       7.561  22.501  54.337  1.00  0.00     0.047 A 
HETATM   13  C   UNL     1       8.128  21.599  55.260  1.00  0.00     0.027 A 
HETATM   14  C   UNL     1       8.661  20.427  54.727  1.00  0.00     0.138 A 
HETATM   15  C   UNL     1       8.304  21.506  56.673  1.00  0.00     0.033 A 
HETATM   16  N   UNL     1       9.176  19.683  55.753  1.00  0.00    -0.350 N 
HETATM   17  N   UNL     1       8.685  20.045  53.439  1.00  0.00    -0.242 NA
HETATM   18  H   UNL     1       9.620  18.785  55.622  1.00  0.00     0.166 HD
HETATM   19  C   UNL     1       8.966  20.326  56.944  1.00  0.00     0.090 A 
HETATM   20  C   UNL     1       8.091  20.927  52.608  1.00  0.00     0.120 A 
HETATM   21  C   UNL     1       7.528  22.135  52.987  1.00  0.00     0.037 A 
ENDBRANCH   9  12
ENDBRANCH   1   8
BRANCH   1  22
HETATM   22  C   UNL     1       7.079  26.991  54.533  1.00  0.00     0.245 C 
HETATM   23  N   UNL     1       6.973  27.158  55.897  1.00  0.00    -0.354 N 
HETATM   24  H   UNL     1       6.441  26.441  56.393  1.00  0.00     0.162 HD
HETATM   25  O   UNL     1       7.988  27.521  53.887  1.00  0.00    -0.271 OA
BRANCH  23  26
HETATM   26  C   UNL     1       8.065  27.768  56.617  1.00  0.00     0.168 C 
BRANCH  26  27
HETATM   27  C   UNL     1       7.625  29.013  57.318  1.00  0.00     0.000 A 
HETATM   28  S   UNL     1       6.169  29.814  56.887  1.00  0.00    -0.105 SA
HETATM   29  C   UNL     1       6.372  30.988  58.112  1.00  0.00     0.050 A 
HETATM   30  C   UNL     1       7.510  30.770  58.854  1.00  0.00     0.008 A 
HETATM   31  C   UNL     1       8.234  29.632  58.394  1.00  0.00     0.017 A 
ENDBRANCH  26  27
ENDBRANCH  23  26
ENDBRANCH   1  22
TORSDOF 6
ENDMDL
MODEL 6
REMARK VINA RESULT:      -8.6      2.446      5.870
REMARK  6 active torsions:
REMARK  status: ('A' for Active; 'I' for Inactive)
REMARK    1  A    between atoms: C_4  and  C_5 
REMARK    2  A    between atoms: C_5  and  N_6 
REMARK    3  A    between atoms: C_5  and  C_19 
REMARK       I    between atoms: N_6  and  C_7 
REMARK    4  A    between atoms: C_7  and  C_8 
REMARK       I    between atoms: C_19  and  N_20 
REMARK    5  A    between atoms: N_20  and  C_21 
REMARK    6  A    between atoms: C_21  and  C_22 
ROOT
HETATM    1  C   UNL     1       7.895  24.447  54.493  1.00  0.00     0.210 C 
ENDROOT
BRANCH   1   2
HETATM    2  C   UNL     1       8.155  22.967  54.246  1.00  0.00    -0.026 A 
HETATM    3  C   UNL     1       8.846  22.203  55.203  1.00  0.00     0.010 A 
HETATM    4  C   UNL     1       9.080  20.841  54.995  1.00  0.00     0.001 A 
HETATM    5  C   UNL     1       8.637  20.225  53.827  1.00  0.00     0.000 A 
HETATM    6  C   UNL     1       7.966  20.971  52.861  1.00  0.00     0.001 A 
HETATM    7  C   UNL     1       7.729  22.331  53.068  1.00  0.00     0.010 A 
ENDBRANCH   1   2
BRANCH   1   8
HETATM    8  N   UNL     1       7.146  25.068  53.398  1.00  0.00    -0.340 N 
HETATM    9  C   UNL     1       6.918  26.414  53.266  1.00  0.00     0.253 C 
HETATM   10  O   UNL     1       7.541  27.265  53.893  1.00  0.00    -0.268 OA
HETATM   11  H   UNL     1       6.672  24.436  52.770  1.00  0.00     0.164 HD
BRANCH   9  12
HETATM   12  C   UNL     1       5.947  26.827  52.231  1.00  0.00     0.047 A 
HETATM   13  C   UNL     1       5.121  27.963  52.354  1.00  0.00     0.027 A 
HETATM   14  C   UNL     1       4.239  28.200  51.301  1.00  0.00     0.138 A 
HETATM   15  C   UNL     1       4.927  29.032  53.279  1.00  0.00     0.033 A 
HETATM   16  N   UNL     1       3.514  29.323  51.591  1.00  0.00    -0.350 N 
HETATM   17  N   UNL     1       4.092  27.483  50.174  1.00  0.00    -0.242 NA
HETATM   18  H   UNL     1       2.805  29.702  50.979  1.00  0.00     0.166 HD
HETATM   19  C   UNL     1       3.922  29.842  52.792  1.00  0.00     0.090 A 
HETATM   20  C   UNL     1       4.937  26.433  50.093  1.00  0.00     0.120 A 
HETATM   21  C   UNL     1       5.859  26.067  51.060  1.00  0.00     0.037 A 
ENDBRANCH   9  12
ENDBRANCH   1   8
BRANCH   1  22
HETATM   22  C   UNL     1       7.460  24.747  55.956  1.00  0.00     0.245 C 
HETATM   23  N   UNL     1       8.198  25.682  56.649  1.00  0.00    -0.354 N 
HETATM   24  H   UNL     1       8.800  26.282  56.084  1.00  0.00     0.162 HD
HETATM   25  O   UNL     1       6.433  24.253  56.432  1.00  0.00    -0.271 OA
BRANCH  23  26
HETATM   26  C   UNL     1       7.645  26.264  57.848  1.00  0.00     0.168 C 
BRANCH  26  27
HETATM   27  C   UNL     1       7.086  27.625  57.584  1.00  0.00     0.000 A 
HETATM   28  S   UNL     1       8.025  29.040  57.837  1.00  0.00    -0.105 SA
HETATM   29  C   UNL     1       6.769  30.055  57.279  1.00  0.00     0.050 A 
HETATM   30  C   UNL     1       5.661  29.340  56.886  1.00  0.00     0.008 A 
HETATM   31  C   UNL     1       5.844  27.938  57.065  1.00  0.00     0.017 A 
ENDBRANCH  26  27
ENDBRANCH  23  26
ENDBRANCH   1  22
TORSDOF 6
ENDMDL
MODEL 7
REMARK VINA RESULT:      -8.4      2.344      5.893
REMARK  6 active torsions:
REMARK  status: ('A' for Active; 'I' for Inactive)
REMARK    1  A    between atoms: C_4  and  C_5 
REMARK    2  A    between atoms: C_5  and  N_6 
REMARK    3  A    between atoms: C_5  and  C_19 
REMARK       I    between atoms: N_6  and  C_7 
REMARK    4  A    between atoms: C_7  and  C_8 
REMARK       I    between atoms: C_19  and  N_20 
REMARK    5  A    between atoms: N_20  and  C_21 
REMARK    6  A    between atoms: C_21  and  C_22 
ROOT
HETATM    1  C   UNL     1       7.323  25.464  54.186  1.00  0.00     0.210 C 
ENDROOT
BRANCH   1   2
HETATM    2  C   UNL     1       7.532  23.956  54.225  1.00  0.00    -0.026 A 
HETATM    3  C   UNL     1       7.658  23.230  53.028  1.00  0.00     0.010 A 
HETATM    4  C   UNL     1       7.863  21.848  53.051  1.00  0.00     0.001 A 
HETATM    5  C   UNL     1       7.935  21.170  54.265  1.00  0.00     0.000 A 
HETATM    6  C   UNL     1       7.795  21.872  55.460  1.00  0.00     0.001 A 
HETATM    7  C   UNL     1       7.592  23.252  55.440  1.00  0.00     0.010 A 
ENDBRANCH   1   2
BRANCH   1   8
HETATM    8  N   UNL     1       6.587  25.891  52.994  1.00  0.00    -0.340 N 
HETATM    9  C   UNL     1       6.276  27.191  52.686  1.00  0.00     0.253 C 
HETATM   10  O   UNL     1       6.810  28.154  53.226  1.00  0.00    -0.268 OA
HETATM   11  H   UNL     1       6.186  25.154  52.432  1.00  0.00     0.164 HD
BRANCH   9  12
HETATM   12  C   UNL     1       5.329  27.404  51.572  1.00  0.00     0.047 A 
HETATM   13  C   UNL     1       4.441  28.496  51.508  1.00  0.00     0.027 A 
HETATM   14  C   UNL     1       3.592  28.537  50.403  1.00  0.00     0.138 A 
HETATM   15  C   UNL     1       4.152  29.669  52.269  1.00  0.00     0.033 A 
HETATM   16  N   UNL     1       2.798  29.646  50.509  1.00  0.00    -0.350 N 
HETATM   17  N   UNL     1       3.530  27.667  49.381  1.00  0.00    -0.242 NA
HETATM   18  H   UNL     1       2.097  29.897  49.827  1.00  0.00     0.166 HD
HETATM   19  C   UNL     1       3.128  30.345  51.640  1.00  0.00     0.090 A 
HETATM   20  C   UNL     1       4.431  26.665  49.475  1.00  0.00     0.120 A 
HETATM   21  C   UNL     1       5.329  26.487  50.514  1.00  0.00     0.037 A 
ENDBRANCH   9  12
ENDBRANCH   1   8
BRANCH   1  22
HETATM   22  C   UNL     1       6.912  26.052  55.566  1.00  0.00     0.245 C 
HETATM   23  N   UNL     1       7.822  26.875  56.193  1.00  0.00    -0.354 N 
HETATM   24  H   UNL     1       8.574  27.237  55.604  1.00  0.00     0.162 HD
HETATM   25  O   UNL     1       5.777  25.880  56.022  1.00  0.00    -0.271 OA
BRANCH  23  26
HETATM   26  C   UNL     1       7.374  27.727  57.268  1.00  0.00     0.168 C 
BRANCH  26  27
HETATM   27  C   UNL     1       8.363  28.812  57.550  1.00  0.00     0.000 A 
HETATM   28  S   UNL     1       8.095  29.961  58.797  1.00  0.00    -0.105 SA
HETATM   29  C   UNL     1       9.598  30.723  58.511  1.00  0.00     0.050 A 
HETATM   30  C   UNL     1      10.306  30.108  57.504  1.00  0.00     0.008 A 
HETATM   31  C   UNL     1       9.592  29.008  56.948  1.00  0.00     0.017 A 
ENDBRANCH  26  27
ENDBRANCH  23  26
ENDBRANCH   1  22
TORSDOF 6
ENDMDL
MODEL 8
REMARK VINA RESULT:      -8.3      2.231      6.041
REMARK  6 active torsions:
REMARK  status: ('A' for Active; 'I' for Inactive)
REMARK    1  A    between atoms: C_4  and  C_5 
REMARK    2  A    between atoms: C_5  and  N_6 
REMARK    3  A    between atoms: C_5  and  C_19 
REMARK       I    between atoms: N_6  and  C_7 
REMARK    4  A    between atoms: C_7  and  C_8 
REMARK       I    between atoms: C_19  and  N_20 
REMARK    5  A    between atoms: N_20  and  C_21 
REMARK    6  A    between atoms: C_21  and  C_22 
ROOT
HETATM    1  C   UNL     1       6.587  26.644  53.528  1.00  0.00     0.210 C 
ENDROOT
BRANCH   1   2
HETATM    2  C   UNL     1       5.681  27.108  52.396  1.00  0.00    -0.026 A 
HETATM    3  C   UNL     1       5.723  26.461  51.149  1.00  0.00     0.010 A 
HETATM    4  C   UNL     1       4.888  26.869  50.105  1.00  0.00     0.001 A 
HETATM    5  C   UNL     1       4.007  27.933  50.288  1.00  0.00     0.000 A 
HETATM    6  C   UNL     1       3.965  28.595  51.512  1.00  0.00     0.001 A 
HETATM    7  C   UNL     1       4.797  28.188  52.556  1.00  0.00     0.010 A 
ENDBRANCH   1   2
BRANCH   1   8
HETATM    8  N   UNL     1       6.714  27.649  54.585  1.00  0.00    -0.340 N 
HETATM    9  C   UNL     1       7.823  28.427  54.802  1.00  0.00     0.253 C 
HETATM   10  O   UNL     1       8.720  28.561  53.977  1.00  0.00    -0.268 OA
HETATM   11  H   UNL     1       5.968  27.675  55.265  1.00  0.00     0.164 HD
BRANCH   9  12
HETATM   12  C   UNL     1       7.852  29.211  56.054  1.00  0.00     0.047 A 
HETATM   13  C   UNL     1       9.045  29.629  56.679  1.00  0.00     0.027 A 
HETATM   14  C   UNL     1       8.902  30.338  57.870  1.00  0.00     0.138 A 
HETATM   15  C   UNL     1      10.448  29.567  56.423  1.00  0.00     0.033 A 
HETATM   16  N   UNL     1      10.148  30.649  58.339  1.00  0.00    -0.350 N 
HETATM   17  N   UNL     1       7.760  30.686  58.488  1.00  0.00    -0.242 NA
HETATM   18  H   UNL     1      10.310  31.164  59.193  1.00  0.00     0.166 HD
HETATM   19  C   UNL     1      11.100  30.187  57.469  1.00  0.00     0.090 A 
HETATM   20  C   UNL     1       6.652  30.296  57.824  1.00  0.00     0.120 A 
HETATM   21  C   UNL     1       6.635  29.579  56.638  1.00  0.00     0.037 A 
ENDBRANCH   9  12
ENDBRANCH   1   8
BRANCH   1  22
HETATM   22  C   UNL     1       6.332  25.164  53.936  1.00  0.00     0.245 C 
HETATM   23  N   UNL     1       7.381  24.485  54.519  1.00  0.00    -0.354 N 
HETATM   24  H   UNL     1       8.146  25.064  54.867  1.00  0.00     0.162 HD
HETATM   25  O   UNL     1       5.209  24.660  53.844  1.00  0.00    -0.271 OA
BRANCH  23  26
HETATM   26  C   UNL     1       7.113  23.263  55.237  1.00  0.00     0.168 C 
BRANCH  26  27
HETATM   27  C   UNL     1       7.740  22.086  54.562  1.00  0.00     0.000 A 
HETATM   28  S   UNL     1       8.412  20.792  55.467  1.00  0.00    -0.105 SA
HETATM   29  C   UNL     1       8.812  19.921  54.053  1.00  0.00     0.050 A 
HETATM   30  C   UNL     1       8.427  20.584  52.910  1.00  0.00     0.008 A 
HETATM   31  C   UNL     1       7.811  21.834  53.205  1.00  0.00     0.017 A 
ENDBRANCH  26  27
ENDBRANCH  23  26
ENDBRANCH   1  22
TORSDOF 6
ENDMDL
MODEL 9
REMARK VINA RESULT:      -8.3      3.107      7.014
REMARK  6 active torsions:
REMARK  status: ('A' for Active; 'I' for Inactive)
REMARK    1  A    between atoms: C_4  and  C_5 
REMARK    2  A    between atoms: C_5  and  N_6 
REMARK    3  A    between atoms: C_5  and  C_19 
REMARK       I    between atoms: N_6  and  C_7 
REMARK    4  A    between atoms: C_7  and  C_8 
REMARK       I    between atoms: C_19  and  N_20 
REMARK    5  A    between atoms: N_20  and  C_21 
REMARK    6  A    between atoms: C_21  and  C_22 
ROOT
HETATM    1  C   UNL     1       5.980  27.358  53.986  1.00  0.00     0.210 C 
ENDROOT
BRANCH   1   2
HETATM    2  C   UNL     1       6.649  26.002  53.811  1.00  0.00    -0.026 A 
HETATM    3  C   UNL     1       6.473  24.998  54.779  1.00  0.00     0.010 A 
HETATM    4  C   UNL     1       7.070  23.744  54.623  1.00  0.00     0.001 A 
HETATM    5  C   UNL     1       7.859  23.479  53.506  1.00  0.00     0.000 A 
HETATM    6  C   UNL     1       8.057  24.467  52.546  1.00  0.00     0.001 A 
HETATM    7  C   UNL     1       7.460  25.719  52.699  1.00  0.00     0.010 A 
ENDBRANCH   1   2
BRANCH   1   8
HETATM    8  N   UNL     1       6.661  28.189  54.981  1.00  0.00    -0.340 N 
HETATM    9  C   UNL     1       6.252  28.358  56.279  1.00  0.00     0.253 C 
HETATM   10  O   UNL     1       5.433  27.626  56.825  1.00  0.00    -0.268 OA
HETATM   11  H   UNL     1       7.418  28.763  54.637  1.00  0.00     0.164 HD
BRANCH   9  12
HETATM   12  C   UNL     1       6.929  29.414  57.060  1.00  0.00     0.047 A 
HETATM   13  C   UNL     1       8.331  29.534  57.148  1.00  0.00     0.027 A 
HETATM   14  C   UNL     1       8.812  30.569  57.947  1.00  0.00     0.138 A 
HETATM   15  C   UNL     1       9.482  28.891  56.601  1.00  0.00     0.033 A 
HETATM   16  N   UNL     1      10.179  30.529  57.929  1.00  0.00    -0.350 N 
HETATM   17  N   UNL     1       8.098  31.479  58.634  1.00  0.00    -0.242 NA
HETATM   18  H   UNL     1      10.763  31.180  58.434  1.00  0.00     0.166 HD
HETATM   19  C   UNL     1      10.602  29.513  57.112  1.00  0.00     0.090 A 
HETATM   20  C   UNL     1       6.764  31.340  58.479  1.00  0.00     0.120 A 
HETATM   21  C   UNL     1       6.140  30.358  57.727  1.00  0.00     0.037 A 
ENDBRANCH   9  12
ENDBRANCH   1   8
BRANCH   1  22
HETATM   22  C   UNL     1       5.565  28.006  52.634  1.00  0.00     0.245 C 
HETATM   23  N   UNL     1       4.406  27.546  52.048  1.00  0.00    -0.354 N 
HETATM   24  H   UNL     1       3.783  27.010  52.654  1.00  0.00     0.162 HD
HETATM   25  O   UNL     1       6.187  28.966  52.168  1.00  0.00    -0.271 OA
BRANCH  23  26
HETATM   26  C   UNL     1       3.783  28.334  51.012  1.00  0.00     0.168 C 
BRANCH  26  27
HETATM   27  C   UNL     1       4.240  27.907  49.654  1.00  0.00     0.000 A 
HETATM   28  S   UNL     1       5.046  28.996  48.600  1.00  0.00    -0.105 SA
HETATM   29  C   UNL     1       5.258  27.792  47.407  1.00  0.00     0.050 A 
HETATM   30  C   UNL     1       4.749  26.576  47.803  1.00  0.00     0.008 A 
HETATM   31  C   UNL     1       4.159  26.644  49.098  1.00  0.00     0.017 A 
ENDBRANCH  26  27
ENDBRANCH  23  26
ENDBRANCH   1  22
TORSDOF 6
ENDMDL
MODEL 10
REMARK VINA RESULT:      -8.3      3.580      7.077
REMARK  6 active torsions:
REMARK  status: ('A' for Active; 'I' for Inactive)
REMARK    1  A    between atoms: C_4  and  C_5 
REMARK    2  A    between atoms: C_5  and  N_6 
REMARK    3  A    between atoms: C_5  and  C_19 
REMARK       I    between atoms: N_6  and  C_7 
REMARK    4  A    between atoms: C_7  and  C_8 
REMARK       I    between atoms: C_19  and  N_20 
REMARK    5  A    between atoms: N_20  and  C_21 
REMARK    6  A    between atoms: C_21  and  C_22 
ROOT
HETATM    1  C   UNL     1       6.138  26.848  52.774  1.00  0.00     0.210 C 
ENDROOT
BRANCH   1   2
HETATM    2  C   UNL     1       5.452  27.998  53.498  1.00  0.00    -0.026 A 
HETATM    3  C   UNL     1       5.997  28.506  54.691  1.00  0.00     0.010 A 
HETATM    4  C   UNL     1       5.385  29.570  55.358  1.00  0.00     0.001 A 
HETATM    5  C   UNL     1       4.217  30.136  54.851  1.00  0.00     0.000 A 
HETATM    6  C   UNL     1       3.656  29.634  53.680  1.00  0.00     0.001 A 
HETATM    7  C   UNL     1       4.267  28.572  53.011  1.00  0.00     0.010 A 
ENDBRANCH   1   2
BRANCH   1   8
HETATM    8  N   UNL     1       6.698  25.863  53.702  1.00  0.00    -0.340 N 
HETATM    9  C   UNL     1       7.665  24.944  53.384  1.00  0.00     0.253 C 
HETATM   10  O   UNL     1       8.359  25.021  52.376  1.00  0.00    -0.268 OA
HETATM   11  H   UNL     1       6.245  25.793  54.601  1.00  0.00     0.164 HD
BRANCH   9  12
HETATM   12  C   UNL     1       7.931  23.885  54.381  1.00  0.00     0.047 A 
HETATM   13  C   UNL     1       8.006  22.515  54.054  1.00  0.00     0.027 A 
HETATM   14  C   UNL     1       8.237  21.641  55.114  1.00  0.00     0.138 A 
HETATM   15  C   UNL     1       7.944  21.705  52.881  1.00  0.00     0.033 A 
HETATM   16  N   UNL     1       8.265  20.365  54.622  1.00  0.00    -0.350 N 
HETATM   17  N   UNL     1       8.413  21.948  56.411  1.00  0.00    -0.242 NA
HETATM   18  H   UNL     1       8.418  19.549  55.198  1.00  0.00     0.166 HD
HETATM   19  C   UNL     1       8.089  20.388  53.264  1.00  0.00     0.090 A 
HETATM   20  C   UNL     1       8.372  23.275  56.657  1.00  0.00     0.120 A 
HETATM   21  C   UNL     1       8.143  24.261  55.712  1.00  0.00     0.037 A 
ENDBRANCH   9  12
ENDBRANCH   1   8
BRANCH   1  22
HETATM   22  C   UNL     1       5.328  26.338  51.548  1.00  0.00     0.245 C 
HETATM   23  N   UNL     1       5.397  27.089  50.395  1.00  0.00    -0.354 N 
HETATM   24  H   UNL     1       6.159  27.767  50.351  1.00  0.00     0.162 HD
HETATM   25  O   UNL     1       4.744  25.250  51.575  1.00  0.00    -0.271 OA
BRANCH  23  26
HETATM   26  C   UNL     1       4.982  26.498  49.146  1.00  0.00     0.168 C 
BRANCH  26  27
HETATM   27  C   UNL     1       3.588  26.903  48.788  1.00  0.00     0.000 A 
HETATM   28  S   UNL     1       2.915  28.378  49.352  1.00  0.00    -0.105 SA
HETATM   29  C   UNL     1       1.456  28.116  48.503  1.00  0.00     0.050 A 
HETATM   30  C   UNL     1       1.479  26.943  47.784  1.00  0.00     0.008 A 
HETATM   31  C   UNL     1       2.708  26.242  47.951  1.00  0.00     0.017 A 
ENDBRANCH  26  27
ENDBRANCH  23  26
ENDBRANCH   1  22
TORSDOF 6
ENDMDL
