MODEL 1
REMARK VINA RESULT:      -9.5      0.000      0.000
REMARK  7 active torsions:
REMARK  status: ('A' for Active; 'I' for Inactive)
REMARK    1  A    between atoms: N_2  and  C_4 
REMARK       I    between atoms: N_7  and  C_8 
REMARK    2  A    between atoms: C_8  and  C_9 
REMARK    3  A    between atoms: N_12  and  C_13 
REMARK    4  A    between atoms: C_20  and  C_21 
REMARK    5  A    between atoms: C_21  and  N_22 
REMARK    6  A    between atoms: N_22  and  C_25 
REMARK    7  A    between atoms: C_25  and  C_26 
ROOT
HETATM    1  C   UNL     1       6.493  30.913  58.225  1.00  0.00     0.719 A 
HETATM    2  N   UNL     1       7.683  31.266  58.847  1.00  0.00    -0.154 N 
HETATM    3  C   UNL     1       7.313  32.048  59.948  1.00  0.00     0.083 A 
HETATM    4  C   UNL     1       8.335  32.510  60.826  1.00  0.00     0.033 A 
HETATM    5  C   UNL     1       9.622  32.233  60.544  1.00  0.00     0.004 A 
HETATM    6  C   UNL     1       9.992  31.492  59.355  1.00  0.00     0.018 A 
HETATM    7  C   UNL     1       9.028  31.030  58.542  1.00  0.00     0.115 A 
HETATM    8  C   UNL     1       5.949  32.211  59.865  1.00  0.00     0.107 A 
HETATM    9  N   UNL     1       5.447  31.508  58.790  1.00  0.00    -0.064 NA
ENDROOT
BRANCH   1  10
HETATM   10  N   UNL     1       6.329  30.041  57.141  1.00  0.00    -0.147 N 
HETATM   11  C   UNL     1       5.109  29.708  56.583  1.00  0.00     0.233 A 
HETATM   12  N   UNL     1       5.216  28.885  55.563  1.00  0.00    -0.236 NA
HETATM   13  C   UNL     1       6.561  28.610  55.451  1.00  0.00     0.142 A 
HETATM   14  C   UNL     1       7.249  29.307  56.432  1.00  0.00     0.153 A 
BRANCH  13  15
HETATM   15  C   UNL     1       7.204  27.763  54.431  1.00  0.00     0.273 C 
HETATM   16  N   UNL     1       7.121  26.356  54.526  1.00  0.00    -0.347 N 
HETATM   17  C   UNL     1       7.104  25.654  55.807  1.00  0.00     0.128 C 
HETATM   18  C   UNL     1       7.646  25.607  53.388  1.00  0.00     0.128 C 
HETATM   19  C   UNL     1       6.438  24.289  55.687  1.00  0.00     0.053 C 
HETATM   20  C   UNL     1       7.054  23.431  54.572  1.00  0.00     0.190 C 
HETATM   21  C   UNL     1       7.004  24.230  53.263  1.00  0.00     0.053 C 
HETATM   22  O   UNL     1       7.786  28.290  53.482  1.00  0.00    -0.266 OA
BRANCH  20  23
HETATM   23  N   UNL     1       8.486  22.973  54.906  1.00  0.00    -0.074 N 
HETATM   24  C   UNL     1       9.070  22.059  53.846  1.00  0.00     0.269 C 
HETATM   25  H   UNL     1       9.101  23.796  54.944  1.00  0.00     0.279 HD
HETATM   26  C   UNL     1       8.606  22.289  56.253  1.00  0.00     0.269 C 
ENDBRANCH  20  23
ENDBRANCH  13  15
ENDBRANCH   1  10
BRANCH   8  27
HETATM   27  C   UNL     1       5.033  32.994  60.743  1.00  0.00     0.294 C 
BRANCH  27  28
HETATM   28  N   UNL     1       4.412  32.114  61.760  1.00  0.00    -0.064 N 
HETATM   29  H   UNL     1       3.666  32.644  62.232  1.00  0.00     0.278 HD
HETATM   30  H   UNL     1       3.901  31.352  61.297  1.00  0.00     0.278 HD
BRANCH  28  31
HETATM   31  C   UNL     1       5.333  31.534  62.767  1.00  0.00     0.297 C 
BRANCH  31  32
HETATM   32  C   UNL     1       5.687  32.512  63.823  1.00  0.00     0.078 A 
HETATM   33  O   UNL     1       4.681  32.901  64.662  1.00  0.00    -0.325 OA
HETATM   34  C   UNL     1       5.222  33.780  65.547  1.00  0.00     0.142 A 
HETATM   35  C   UNL     1       6.561  33.956  65.291  1.00  0.00     0.027 A 
HETATM   36  C   UNL     1       6.864  33.137  64.176  1.00  0.00     0.036 A 
ENDBRANCH  31  32
ENDBRANCH  28  31
ENDBRANCH  27  28
ENDBRANCH   8  27
TORSDOF 7
ENDMDL
MODEL 2
REMARK VINA RESULT:      -9.3      2.389     10.595
REMARK  7 active torsions:
REMARK  status: ('A' for Active; 'I' for Inactive)
REMARK    1  A    between atoms: N_2  and  C_4 
REMARK       I    between atoms: N_7  and  C_8 
REMARK    2  A    between atoms: C_8  and  C_9 
REMARK    3  A    between atoms: N_12  and  C_13 
REMARK    4  A    between atoms: C_20  and  C_21 
REMARK    5  A    between atoms: C_21  and  N_22 
REMARK    6  A    between atoms: N_22  and  C_25 
REMARK    7  A    between atoms: C_25  and  C_26 
ROOT
HETATM    1  C   UNL     1       7.637  28.019  57.204  1.00  0.00     0.719 A 
HETATM    2  N   UNL     1       7.405  27.699  55.873  1.00  0.00    -0.154 N 
HETATM    3  C   UNL     1       7.706  26.336  55.757  1.00  0.00     0.083 A 
HETATM    4  C   UNL     1       7.500  25.700  54.500  1.00  0.00     0.033 A 
HETATM    5  C   UNL     1       7.078  26.432  53.452  1.00  0.00     0.004 A 
HETATM    6  C   UNL     1       6.849  27.858  53.570  1.00  0.00     0.018 A 
HETATM    7  C   UNL     1       7.015  28.454  54.762  1.00  0.00     0.115 A 
HETATM    8  C   UNL     1       8.202  25.945  56.980  1.00  0.00     0.107 A 
HETATM    9  N   UNL     1       8.161  26.996  57.872  1.00  0.00    -0.064 NA
ENDROOT
BRANCH   1  10
HETATM   10  N   UNL     1       7.374  29.239  57.841  1.00  0.00    -0.147 N 
HETATM   11  C   UNL     1       6.252  30.013  57.614  1.00  0.00     0.233 A 
HETATM   12  N   UNL     1       6.222  31.104  58.345  1.00  0.00    -0.236 NA
HETATM   13  C   UNL     1       7.395  31.097  59.066  1.00  0.00     0.142 A 
HETATM   14  C   UNL     1       8.117  29.958  58.746  1.00  0.00     0.153 A 
BRANCH  13  15
HETATM   15  C   UNL     1       7.819  32.094  60.066  1.00  0.00     0.273 C 
HETATM   16  N   UNL     1       7.063  32.277  61.245  1.00  0.00    -0.347 N 
HETATM   17  C   UNL     1       5.610  32.135  61.277  1.00  0.00     0.128 C 
HETATM   18  C   UNL     1       7.647  33.165  62.246  1.00  0.00     0.128 C 
HETATM   19  C   UNL     1       5.113  31.795  62.677  1.00  0.00     0.053 C 
HETATM   20  C   UNL     1       5.615  32.788  63.735  1.00  0.00     0.190 C 
HETATM   21  C   UNL     1       7.146  32.852  63.651  1.00  0.00     0.053 C 
HETATM   22  O   UNL     1       8.849  32.743  59.879  1.00  0.00    -0.266 OA
BRANCH  20  23
HETATM   23  N   UNL     1       4.978  34.182  63.584  1.00  0.00    -0.074 N 
HETATM   24  C   UNL     1       5.563  35.200  64.544  1.00  0.00     0.269 C 
HETATM   25  H   UNL     1       5.169  34.538  62.639  1.00  0.00     0.279 HD
HETATM   26  C   UNL     1       3.470  34.180  63.741  1.00  0.00     0.269 C 
ENDBRANCH  20  23
ENDBRANCH  13  15
ENDBRANCH   1  10
BRANCH   8  27
HETATM   27  C   UNL     1       8.727  24.617  57.409  1.00  0.00     0.294 C 
BRANCH  27  28
HETATM   28  N   UNL     1       7.762  23.545  57.071  1.00  0.00    -0.064 N 
HETATM   29  H   UNL     1       7.033  23.528  57.798  1.00  0.00     0.278 HD
HETATM   30  H   UNL     1       7.242  23.799  56.223  1.00  0.00     0.278 HD
BRANCH  28  31
HETATM   31  C   UNL     1       8.333  22.188  56.898  1.00  0.00     0.297 C 
BRANCH  31  32
HETATM   32  C   UNL     1       8.264  21.732  55.490  1.00  0.00     0.078 A 
HETATM   33  O   UNL     1       8.912  20.567  55.188  1.00  0.00    -0.325 OA
HETATM   34  C   UNL     1       8.712  20.335  53.864  1.00  0.00     0.142 A 
HETATM   35  C   UNL     1       7.941  21.331  53.313  1.00  0.00     0.027 A 
HETATM   36  C   UNL     1       7.650  22.235  54.362  1.00  0.00     0.036 A 
ENDBRANCH  31  32
ENDBRANCH  28  31
ENDBRANCH  27  28
ENDBRANCH   8  27
TORSDOF 7
ENDMDL
MODEL 3
REMARK VINA RESULT:      -9.3      3.105      4.281
REMARK  7 active torsions:
REMARK  status: ('A' for Active; 'I' for Inactive)
REMARK    1  A    between atoms: N_2  and  C_4 
REMARK       I    between atoms: N_7  and  C_8 
REMARK    2  A    between atoms: C_8  and  C_9 
REMARK    3  A    between atoms: N_12  and  C_13 
REMARK    4  A    between atoms: C_20  and  C_21 
REMARK    5  A    between atoms: C_21  and  N_22 
REMARK    6  A    between atoms: N_22  and  C_25 
REMARK    7  A    between atoms: C_25  and  C_26 
ROOT
HETATM    1  C   UNL     1       6.976  29.415  57.175  1.00  0.00     0.719 A 
HETATM    2  N   UNL     1       8.333  29.710  57.211  1.00  0.00    -0.154 N 
HETATM    3  C   UNL     1       8.466  30.743  58.147  1.00  0.00     0.083 A 
HETATM    4  C   UNL     1       9.774  31.221  58.449  1.00  0.00     0.033 A 
HETATM    5  C   UNL     1      10.831  30.709  57.790  1.00  0.00     0.004 A 
HETATM    6  C   UNL     1      10.665  29.698  56.765  1.00  0.00     0.018 A 
HETATM    7  C   UNL     1       9.436  29.226  56.500  1.00  0.00     0.115 A 
HETATM    8  C   UNL     1       7.190  31.081  58.534  1.00  0.00     0.107 A 
HETATM    9  N   UNL     1       6.270  30.256  57.923  1.00  0.00    -0.064 NA
ENDROOT
BRANCH   1  10
HETATM   10  N   UNL     1       6.353  28.375  56.472  1.00  0.00    -0.147 N 
HETATM   11  C   UNL     1       5.445  27.493  57.024  1.00  0.00     0.233 A 
HETATM   12  N   UNL     1       4.986  26.616  56.158  1.00  0.00    -0.236 NA
HETATM   13  C   UNL     1       5.645  26.884  54.978  1.00  0.00     0.142 A 
HETATM   14  C   UNL     1       6.501  27.956  55.171  1.00  0.00     0.153 A 
BRANCH  13  15
HETATM   15  C   UNL     1       5.452  26.198  53.688  1.00  0.00     0.273 C 
HETATM   16  N   UNL     1       5.050  26.933  52.551  1.00  0.00    -0.347 N 
HETATM   17  C   UNL     1       4.156  28.085  52.634  1.00  0.00     0.128 C 
HETATM   18  C   UNL     1       5.042  26.201  51.288  1.00  0.00     0.128 C 
HETATM   19  C   UNL     1       4.342  29.023  51.448  1.00  0.00     0.053 C 
HETATM   20  C   UNL     1       4.218  28.298  50.101  1.00  0.00     0.190 C 
HETATM   21  C   UNL     1       5.209  27.127  50.088  1.00  0.00     0.053 C 
HETATM   22  O   UNL     1       5.669  24.989  53.604  1.00  0.00    -0.266 OA
BRANCH  20  23
HETATM   23  N   UNL     1       2.778  27.830  49.815  1.00  0.00    -0.074 N 
HETATM   24  C   UNL     1       2.639  27.160  48.462  1.00  0.00     0.269 C 
HETATM   25  H   UNL     1       2.510  27.125  50.513  1.00  0.00     0.279 HD
HETATM   26  C   UNL     1       1.749  28.939  49.914  1.00  0.00     0.269 C 
ENDBRANCH  20  23
ENDBRANCH  13  15
ENDBRANCH   1  10
BRANCH   8  27
HETATM   27  C   UNL     1       6.734  32.149  59.469  1.00  0.00     0.294 C 
BRANCH  27  28
HETATM   28  N   UNL     1       6.430  31.576  60.802  1.00  0.00    -0.064 N 
HETATM   29  H   UNL     1       5.621  32.079  61.191  1.00  0.00     0.278 HD
HETATM   30  H   UNL     1       6.081  30.616  60.696  1.00  0.00     0.278 HD
BRANCH  28  31
HETATM   31  C   UNL     1       7.545  31.578  61.780  1.00  0.00     0.297 C 
BRANCH  31  32
HETATM   32  C   UNL     1       7.216  32.364  62.992  1.00  0.00     0.078 A 
HETATM   33  O   UNL     1       5.889  32.536  63.273  1.00  0.00    -0.325 OA
HETATM   34  C   UNL     1       5.818  33.267  64.417  1.00  0.00     0.142 A 
HETATM   35  C   UNL     1       7.080  33.561  64.878  1.00  0.00     0.027 A 
HETATM   36  C   UNL     1       7.985  32.979  63.958  1.00  0.00     0.036 A 
ENDBRANCH  31  32
ENDBRANCH  28  31
ENDBRANCH  27  28
ENDBRANCH   8  27
TORSDOF 7
ENDMDL
MODEL 4
REMARK VINA RESULT:      -9.1      2.373     10.587
REMARK  7 active torsions:
REMARK  status: ('A' for Active; 'I' for Inactive)
REMARK    1  A    between atoms: N_2  and  C_4 
REMARK       I    between atoms: N_7  and  C_8 
REMARK    2  A    between atoms: C_8  and  C_9 
REMARK    3  A    between atoms: N_12  and  C_13 
REMARK    4  A    between atoms: C_20  and  C_21 
REMARK    5  A    between atoms: C_21  and  N_22 
REMARK    6  A    between atoms: N_22  and  C_25 
REMARK    7  A    between atoms: C_25  and  C_26 
ROOT
HETATM    1  C   UNL     1       7.933  28.535  57.361  1.00  0.00     0.719 A 
HETATM    2  N   UNL     1       6.834  28.635  56.517  1.00  0.00    -0.154 N 
HETATM    3  C   UNL     1       6.562  27.326  56.100  1.00  0.00     0.083 A 
HETATM    4  C   UNL     1       5.432  27.102  55.262  1.00  0.00     0.033 A 
HETATM    5  C   UNL     1       4.697  28.153  54.852  1.00  0.00     0.004 A 
HETATM    6  C   UNL     1       5.042  29.509  55.228  1.00  0.00     0.018 A 
HETATM    7  C   UNL     1       6.090  29.720  56.041  1.00  0.00     0.115 A 
HETATM    8  C   UNL     1       7.563  26.539  56.620  1.00  0.00     0.107 A 
HETATM    9  N   UNL     1       8.413  27.297  57.398  1.00  0.00    -0.064 NA
ENDROOT
BRANCH   1  10
HETATM   10  N   UNL     1       8.515  29.560  58.119  1.00  0.00    -0.147 N 
HETATM   11  C   UNL     1       9.505  30.406  57.659  1.00  0.00     0.233 A 
HETATM   12  N   UNL     1       9.877  31.297  58.550  1.00  0.00    -0.236 NA
HETATM   13  C   UNL     1       9.142  31.016  59.681  1.00  0.00     0.142 A 
HETATM   14  C   UNL     1       8.313  29.935  59.425  1.00  0.00     0.153 A 
BRANCH  13  15
HETATM   15  C   UNL     1       9.167  31.760  60.953  1.00  0.00     0.273 C 
HETATM   16  N   UNL     1       7.960  32.218  61.527  1.00  0.00    -0.347 N 
HETATM   17  C   UNL     1       6.823  32.657  60.722  1.00  0.00     0.128 C 
HETATM   18  C   UNL     1       8.069  32.800  62.862  1.00  0.00     0.128 C 
HETATM   19  C   UNL     1       5.514  32.530  61.491  1.00  0.00     0.053 C 
HETATM   20  C   UNL     1       5.560  33.240  62.852  1.00  0.00     0.190 C 
HETATM   21  C   UNL     1       6.761  32.699  63.639  1.00  0.00     0.053 C 
HETATM   22  O   UNL     1      10.242  31.955  61.523  1.00  0.00    -0.266 OA
BRANCH  20  23
HETATM   23  N   UNL     1       5.613  34.773  62.714  1.00  0.00    -0.074 N 
HETATM   24  C   UNL     1       5.462  35.485  64.045  1.00  0.00     0.269 C 
HETATM   25  H   UNL     1       6.533  35.046  62.347  1.00  0.00     0.279 HD
HETATM   26  C   UNL     1       4.587  35.331  61.749  1.00  0.00     0.269 C 
ENDBRANCH  20  23
ENDBRANCH  13  15
ENDBRANCH   1  10
BRANCH   8  27
HETATM   27  C   UNL     1       7.803  25.077  56.452  1.00  0.00     0.294 C 
BRANCH  27  28
HETATM   28  N   UNL     1       7.935  24.735  55.016  1.00  0.00    -0.064 N 
HETATM   29  H   UNL     1       7.912  25.609  54.474  1.00  0.00     0.278 HD
HETATM   30  H   UNL     1       8.876  24.368  54.831  1.00  0.00     0.278 HD
BRANCH  28  31
HETATM   31  C   UNL     1       6.932  23.783  54.481  1.00  0.00     0.297 C 
BRANCH  31  32
HETATM   32  C   UNL     1       7.535  22.471  54.149  1.00  0.00     0.078 A 
HETATM   33  O   UNL     1       7.636  21.565  55.169  1.00  0.00    -0.325 OA
HETATM   34  C   UNL     1       8.199  20.444  54.647  1.00  0.00     0.142 A 
HETATM   35  C   UNL     1       8.457  20.614  53.307  1.00  0.00     0.027 A 
HETATM   36  C   UNL     1       8.029  21.924  52.983  1.00  0.00     0.036 A 
ENDBRANCH  31  32
ENDBRANCH  28  31
ENDBRANCH  27  28
ENDBRANCH   8  27
TORSDOF 7
ENDMDL
MODEL 5
REMARK VINA RESULT:      -8.8      2.231     10.096
REMARK  7 active torsions:
REMARK  status: ('A' for Active; 'I' for Inactive)
REMARK    1  A    between atoms: N_2  and  C_4 
REMARK       I    between atoms: N_7  and  C_8 
REMARK    2  A    between atoms: C_8  and  C_9 
REMARK    3  A    between atoms: N_12  and  C_13 
REMARK    4  A    between atoms: C_20  and  C_21 
REMARK    5  A    between atoms: C_21  and  N_22 
REMARK    6  A    between atoms: N_22  and  C_25 
REMARK    7  A    between atoms: C_25  and  C_26 
ROOT
HETATM    1  C   UNL     1       6.587  30.093  56.922  1.00  0.00     0.719 A 
HETATM    2  N   UNL     1       7.927  30.152  57.284  1.00  0.00    -0.154 N 
HETATM    3  C   UNL     1       8.614  29.441  56.292  1.00  0.00     0.083 A 
HETATM    4  C   UNL     1      10.036  29.382  56.362  1.00  0.00     0.033 A 
HETATM    5  C   UNL     1      10.670  29.958  57.400  1.00  0.00     0.004 A 
HETATM    6  C   UNL     1       9.936  30.619  58.461  1.00  0.00     0.018 A 
HETATM    7  C   UNL     1       8.597  30.701  58.382  1.00  0.00     0.115 A 
HETATM    8  C   UNL     1       7.654  28.908  55.463  1.00  0.00     0.107 A 
HETATM    9  N   UNL     1       6.398  29.313  55.863  1.00  0.00    -0.064 NA
ENDROOT
BRANCH   1  10
HETATM   10  N   UNL     1       5.513  30.748  57.539  1.00  0.00    -0.147 N 
HETATM   11  C   UNL     1       4.257  30.199  57.709  1.00  0.00     0.233 A 
HETATM   12  N   UNL     1       3.423  31.002  58.332  1.00  0.00    -0.236 NA
HETATM   13  C   UNL     1       4.128  32.165  58.553  1.00  0.00     0.142 A 
HETATM   14  C   UNL     1       5.412  32.019  58.051  1.00  0.00     0.153 A 
BRANCH  13  15
HETATM   15  C   UNL     1       3.645  33.366  59.258  1.00  0.00     0.273 C 
HETATM   16  N   UNL     1       4.286  33.797  60.439  1.00  0.00    -0.347 N 
HETATM   17  C   UNL     1       4.875  32.868  61.400  1.00  0.00     0.128 C 
HETATM   18  C   UNL     1       3.842  35.082  60.974  1.00  0.00     0.128 C 
HETATM   19  C   UNL     1       5.970  33.535  62.223  1.00  0.00     0.053 C 
HETATM   20  C   UNL     1       5.493  34.828  62.898  1.00  0.00     0.190 C 
HETATM   21  C   UNL     1       4.920  35.755  61.817  1.00  0.00     0.053 C 
HETATM   22  O   UNL     1       2.698  34.002  58.794  1.00  0.00    -0.266 OA
BRANCH  20  23
HETATM   23  N   UNL     1       4.473  34.564  64.021  1.00  0.00    -0.074 N 
HETATM   24  C   UNL     1       3.987  35.840  64.683  1.00  0.00     0.269 C 
HETATM   25  H   UNL     1       3.639  34.116  63.619  1.00  0.00     0.279 HD
HETATM   26  C   UNL     1       4.984  33.626  65.096  1.00  0.00     0.269 C 
ENDBRANCH  20  23
ENDBRANCH  13  15
ENDBRANCH   1  10
BRANCH   8  27
HETATM   27  C   UNL     1       7.814  28.022  54.275  1.00  0.00     0.294 C 
BRANCH  27  28
HETATM   28  N   UNL     1       6.800  26.942  54.294  1.00  0.00    -0.064 N 
HETATM   29  H   UNL     1       5.898  27.353  54.570  1.00  0.00     0.278 HD
HETATM   30  H   UNL     1       6.625  26.611  53.337  1.00  0.00     0.278 HD
BRANCH  28  31
HETATM   31  C   UNL     1       7.109  25.777  55.158  1.00  0.00     0.297 C 
BRANCH  31  32
HETATM   32  C   UNL     1       7.430  24.567  54.364  1.00  0.00     0.078 A 
HETATM   33  O   UNL     1       7.309  23.364  55.002  1.00  0.00    -0.325 OA
HETATM   34  C   UNL     1       7.637  22.403  54.099  1.00  0.00     0.142 A 
HETATM   35  C   UNL     1       7.961  22.972  52.889  1.00  0.00     0.027 A 
HETATM   36  C   UNL     1       7.827  24.371  53.059  1.00  0.00     0.036 A 
ENDBRANCH  31  32
ENDBRANCH  28  31
ENDBRANCH  27  28
ENDBRANCH   8  27
TORSDOF 7
ENDMDL
MODEL 6
REMARK VINA RESULT:      -8.7      2.125      3.462
REMARK  7 active torsions:
REMARK  status: ('A' for Active; 'I' for Inactive)
REMARK    1  A    between atoms: N_2  and  C_4 
REMARK       I    between atoms: N_7  and  C_8 
REMARK    2  A    between atoms: C_8  and  C_9 
REMARK    3  A    between atoms: N_12  and  C_13 
REMARK    4  A    between atoms: C_20  and  C_21 
REMARK    5  A    between atoms: C_21  and  N_22 
REMARK    6  A    between atoms: N_22  and  C_25 
REMARK    7  A    between atoms: C_25  and  C_26 
ROOT
HETATM    1  C   UNL     1       5.200  32.927  60.490  1.00  0.00     0.719 A 
HETATM    2  N   UNL     1       6.246  32.665  61.366  1.00  0.00    -0.154 N 
HETATM    3  C   UNL     1       6.138  33.627  62.377  1.00  0.00     0.083 A 
HETATM    4  C   UNL     1       7.052  33.571  63.468  1.00  0.00     0.033 A 
HETATM    5  C   UNL     1       8.021  32.636  63.469  1.00  0.00     0.004 A 
HETATM    6  C   UNL     1       8.167  31.699  62.373  1.00  0.00     0.018 A 
HETATM    7  C   UNL     1       7.288  31.732  61.357  1.00  0.00     0.115 A 
HETATM    8  C   UNL     1       5.117  34.471  62.001  1.00  0.00     0.107 A 
HETATM    9  N   UNL     1       4.543  34.032  60.826  1.00  0.00    -0.064 NA
ENDROOT
BRANCH   1  10
HETATM   10  N   UNL     1       4.816  32.168  59.376  1.00  0.00    -0.147 N 
HETATM   11  C   UNL     1       3.582  31.565  59.230  1.00  0.00     0.233 A 
HETATM   12  N   UNL     1       3.454  30.924  58.090  1.00  0.00    -0.236 NA
HETATM   13  C   UNL     1       4.669  31.056  57.454  1.00  0.00     0.142 A 
HETATM   14  C   UNL     1       5.517  31.809  58.251  1.00  0.00     0.153 A 
BRANCH  13  15
HETATM   15  C   UNL     1       5.023  30.544  56.118  1.00  0.00     0.273 C 
HETATM   16  N   UNL     1       5.197  29.157  55.917  1.00  0.00    -0.347 N 
HETATM   17  C   UNL     1       5.748  28.276  56.944  1.00  0.00     0.128 C 
HETATM   18  C   UNL     1       5.385  28.731  54.533  1.00  0.00     0.128 C 
HETATM   19  C   UNL     1       5.301  26.834  56.741  1.00  0.00     0.053 C 
HETATM   20  C   UNL     1       5.599  26.320  55.325  1.00  0.00     0.190 C 
HETATM   21  C   UNL     1       4.960  27.283  54.316  1.00  0.00     0.053 C 
HETATM   22  O   UNL     1       5.138  31.330  55.176  1.00  0.00    -0.266 OA
BRANCH  20  23
HETATM   23  N   UNL     1       7.108  26.144  55.069  1.00  0.00    -0.074 N 
HETATM   24  C   UNL     1       7.416  25.768  53.632  1.00  0.00     0.269 C 
HETATM   25  H   UNL     1       7.584  27.038  55.238  1.00  0.00     0.279 HD
HETATM   26  C   UNL     1       7.765  25.131  55.985  1.00  0.00     0.269 C 
ENDBRANCH  20  23
ENDBRANCH  13  15
ENDBRANCH   1  10
BRANCH   8  27
HETATM   27  C   UNL     1       4.606  35.698  62.674  1.00  0.00     0.294 C 
BRANCH  27  28
HETATM   28  N   UNL     1       3.187  35.521  63.066  1.00  0.00    -0.064 N 
HETATM   29  H   UNL     1       2.848  36.411  63.456  1.00  0.00     0.278 HD
HETATM   30  H   UNL     1       2.607  35.396  62.227  1.00  0.00     0.278 HD
BRANCH  28  31
HETATM   31  C   UNL     1       2.909  34.416  64.014  1.00  0.00     0.297 C 
BRANCH  31  32
HETATM   32  C   UNL     1       3.596  34.613  65.313  1.00  0.00     0.078 A 
HETATM   33  O   UNL     1       4.398  33.594  65.744  1.00  0.00    -0.325 OA
HETATM   34  C   UNL     1       4.929  33.985  66.933  1.00  0.00     0.142 A 
HETATM   35  C   UNL     1       4.483  35.242  67.268  1.00  0.00     0.027 A 
HETATM   36  C   UNL     1       3.620  35.649  66.222  1.00  0.00     0.036 A 
ENDBRANCH  31  32
ENDBRANCH  28  31
ENDBRANCH  27  28
ENDBRANCH   8  27
TORSDOF 7
ENDMDL
MODEL 7
REMARK VINA RESULT:      -8.6      2.424      9.037
REMARK  7 active torsions:
REMARK  status: ('A' for Active; 'I' for Inactive)
REMARK    1  A    between atoms: N_2  and  C_4 
REMARK       I    between atoms: N_7  and  C_8 
REMARK    2  A    between atoms: C_8  and  C_9 
REMARK    3  A    between atoms: N_12  and  C_13 
REMARK    4  A    between atoms: C_20  and  C_21 
REMARK    5  A    between atoms: C_21  and  N_22 
REMARK    6  A    between atoms: N_22  and  C_25 
REMARK    7  A    between atoms: C_25  and  C_26 
ROOT
HETATM    1  C   UNL     1       7.738  27.473  56.265  1.00  0.00     0.719 A 
HETATM    2  N   UNL     1       7.957  26.106  56.374  1.00  0.00    -0.154 N 
HETATM    3  C   UNL     1       7.380  25.541  55.230  1.00  0.00     0.083 A 
HETATM    4  C   UNL     1       7.504  24.136  55.031  1.00  0.00     0.033 A 
HETATM    5  C   UNL     1       8.118  23.389  55.967  1.00  0.00     0.004 A 
HETATM    6  C   UNL     1       8.637  23.980  57.184  1.00  0.00     0.018 A 
HETATM    7  C   UNL     1       8.547  25.309  57.361  1.00  0.00     0.115 A 
HETATM    8  C   UNL     1       6.759  26.571  54.562  1.00  0.00     0.107 A 
HETATM    9  N   UNL     1       6.981  27.767  55.212  1.00  0.00    -0.064 NA
ENDROOT
BRANCH   1  10
HETATM   10  N   UNL     1       8.224  28.480  57.109  1.00  0.00    -0.147 N 
HETATM   11  C   UNL     1       9.446  29.106  56.955  1.00  0.00     0.233 A 
HETATM   12  N   UNL     1       9.669  30.030  57.863  1.00  0.00    -0.236 NA
HETATM   13  C   UNL     1       8.573  30.000  58.697  1.00  0.00     0.142 A 
HETATM   14  C   UNL     1       7.687  29.034  58.246  1.00  0.00     0.153 A 
BRANCH  13  15
HETATM   15  C   UNL     1       8.325  30.877  59.856  1.00  0.00     0.273 C 
HETATM   16  N   UNL     1       7.071  31.508  60.008  1.00  0.00    -0.347 N 
HETATM   17  C   UNL     1       6.275  31.959  58.870  1.00  0.00     0.128 C 
HETATM   18  C   UNL     1       6.866  32.224  61.264  1.00  0.00     0.128 C 
HETATM   19  C   UNL     1       4.795  32.045  59.223  1.00  0.00     0.053 C 
HETATM   20  C   UNL     1       4.538  32.896  60.475  1.00  0.00     0.190 C 
HETATM   21  C   UNL     1       5.388  32.336  61.623  1.00  0.00     0.053 C 
HETATM   22  O   UNL     1       9.208  31.032  60.701  1.00  0.00    -0.266 OA
BRANCH  20  23
HETATM   23  N   UNL     1       4.817  34.392  60.237  1.00  0.00    -0.074 N 
HETATM   24  C   UNL     1       4.643  35.227  61.491  1.00  0.00     0.269 C 
HETATM   25  H   UNL     1       5.797  34.509  59.950  1.00  0.00     0.279 HD
HETATM   26  C   UNL     1       3.975  34.998  59.133  1.00  0.00     0.269 C 
ENDBRANCH  20  23
ENDBRANCH  13  15
ENDBRANCH   1  10
BRANCH   8  27
HETATM   27  C   UNL     1       5.946  26.537  53.312  1.00  0.00     0.294 C 
BRANCH  27  28
HETATM   28  N   UNL     1       4.506  26.692  53.626  1.00  0.00    -0.064 N 
HETATM   29  H   UNL     1       4.002  25.889  53.227  1.00  0.00     0.278 HD
HETATM   30  H   UNL     1       4.357  26.584  54.637  1.00  0.00     0.278 HD
BRANCH  28  31
HETATM   31  C   UNL     1       3.877  27.957  53.178  1.00  0.00     0.297 C 
BRANCH  31  32
HETATM   32  C   UNL     1       3.880  28.987  54.243  1.00  0.00     0.078 A 
HETATM   33  O   UNL     1       3.849  28.535  55.534  1.00  0.00    -0.325 OA
HETATM   34  C   UNL     1       3.869  29.632  56.337  1.00  0.00     0.142 A 
HETATM   35  C   UNL     1       3.917  30.780  55.580  1.00  0.00     0.027 A 
HETATM   36  C   UNL     1       3.924  30.365  54.227  1.00  0.00     0.036 A 
ENDBRANCH  31  32
ENDBRANCH  28  31
ENDBRANCH  27  28
ENDBRANCH   8  27
TORSDOF 7
ENDMDL
MODEL 8
REMARK VINA RESULT:      -8.5      2.886     10.304
REMARK  7 active torsions:
REMARK  status: ('A' for Active; 'I' for Inactive)
REMARK    1  A    between atoms: N_2  and  C_4 
REMARK       I    between atoms: N_7  and  C_8 
REMARK    2  A    between atoms: C_8  and  C_9 
REMARK    3  A    between atoms: N_12  and  C_13 
REMARK    4  A    between atoms: C_20  and  C_21 
REMARK    5  A    between atoms: C_21  and  N_22 
REMARK    6  A    between atoms: N_22  and  C_25 
REMARK    7  A    between atoms: C_25  and  C_26 
ROOT
HETATM    1  C   UNL     1       7.846  28.260  56.284  1.00  0.00     0.719 A 
HETATM    2  N   UNL     1       7.809  26.872  56.272  1.00  0.00    -0.154 N 
HETATM    3  C   UNL     1       7.342  26.521  54.999  1.00  0.00     0.083 A 
HETATM    4  C   UNL     1       7.256  25.139  54.665  1.00  0.00     0.033 A 
HETATM    5  C   UNL     1       7.572  24.216  55.592  1.00  0.00     0.004 A 
HETATM    6  C   UNL     1       7.976  24.597  56.931  1.00  0.00     0.018 A 
HETATM    7  C   UNL     1       8.085  25.900  57.239  1.00  0.00     0.115 A 
HETATM    8  C   UNL     1       7.023  27.700  54.366  1.00  0.00     0.107 A 
HETATM    9  N   UNL     1       7.334  28.776  55.171  1.00  0.00    -0.064 NA
ENDROOT
BRANCH   1  10
HETATM   10  N   UNL     1       8.351  29.086  57.298  1.00  0.00    -0.147 N 
HETATM   11  C   UNL     1       9.479  29.873  57.175  1.00  0.00     0.233 A 
HETATM   12  N   UNL     1       9.740  30.572  58.257  1.00  0.00    -0.236 NA
HETATM   13  C   UNL     1       8.776  30.210  59.171  1.00  0.00     0.142 A 
HETATM   14  C   UNL     1       7.926  29.281  58.590  1.00  0.00     0.153 A 
BRANCH  13  15
HETATM   15  C   UNL     1       8.610  30.746  60.534  1.00  0.00     0.273 C 
HETATM   16  N   UNL     1       7.436  31.454  60.877  1.00  0.00    -0.347 N 
HETATM   17  C   UNL     1       6.722  32.301  59.925  1.00  0.00     0.128 C 
HETATM   18  C   UNL     1       7.291  31.805  62.287  1.00  0.00     0.128 C 
HETATM   19  C   UNL     1       5.257  32.459  60.309  1.00  0.00     0.053 C 
HETATM   20  C   UNL     1       5.077  32.945  61.754  1.00  0.00     0.190 C 
HETATM   21  C   UNL     1       5.831  31.986  62.684  1.00  0.00     0.053 C 
HETATM   22  O   UNL     1       9.487  30.549  61.376  1.00  0.00    -0.266 OA
BRANCH  20  23
HETATM   23  N   UNL     1       5.536  34.403  61.946  1.00  0.00    -0.074 N 
HETATM   24  C   UNL     1       5.668  34.787  63.407  1.00  0.00     0.269 C 
HETATM   25  H   UNL     1       6.472  34.517  61.535  1.00  0.00     0.279 HD
HETATM   26  C   UNL     1       4.643  35.416  61.258  1.00  0.00     0.269 C 
ENDBRANCH  20  23
ENDBRANCH  13  15
ENDBRANCH   1  10
BRANCH   8  27
HETATM   27  C   UNL     1       6.433  27.921  53.015  1.00  0.00     0.294 C 
BRANCH  27  28
HETATM   28  N   UNL     1       5.737  29.228  52.961  1.00  0.00    -0.064 N 
HETATM   29  H   UNL     1       5.488  29.500  53.922  1.00  0.00     0.278 HD
HETATM   30  H   UNL     1       6.395  29.962  52.673  1.00  0.00     0.278 HD
BRANCH  28  31
HETATM   31  C   UNL     1       4.537  29.289  52.092  1.00  0.00     0.297 C 
BRANCH  31  32
HETATM   32  C   UNL     1       4.836  28.870  50.703  1.00  0.00     0.078 A 
HETATM   33  O   UNL     1       4.252  27.712  50.271  1.00  0.00    -0.325 OA
HETATM   34  C   UNL     1       4.648  27.525  48.984  1.00  0.00     0.142 A 
HETATM   35  C   UNL     1       5.473  28.550  48.582  1.00  0.00     0.027 A 
HETATM   36  C   UNL     1       5.596  29.420  49.692  1.00  0.00     0.036 A 
ENDBRANCH  31  32
ENDBRANCH  28  31
ENDBRANCH  27  28
ENDBRANCH   8  27
TORSDOF 7
ENDMDL
MODEL 9
REMARK VINA RESULT:      -8.4      5.165      8.932
REMARK  7 active torsions:
REMARK  status: ('A' for Active; 'I' for Inactive)
REMARK    1  A    between atoms: N_2  and  C_4 
REMARK       I    between atoms: N_7  and  C_8 
REMARK    2  A    between atoms: C_8  and  C_9 
REMARK    3  A    between atoms: N_12  and  C_13 
REMARK    4  A    between atoms: C_20  and  C_21 
REMARK    5  A    between atoms: C_21  and  N_22 
REMARK    6  A    between atoms: N_22  and  C_25 
REMARK    7  A    between atoms: C_25  and  C_26 
ROOT
HETATM    1  C   UNL     1       6.029  25.479  53.455  1.00  0.00     0.719 A 
HETATM    2  N   UNL     1       6.808  24.348  53.666  1.00  0.00    -0.154 N 
HETATM    3  C   UNL     1       6.818  24.153  55.053  1.00  0.00     0.083 A 
HETATM    4  C   UNL     1       7.496  23.014  55.573  1.00  0.00     0.033 A 
HETATM    5  C   UNL     1       8.150  22.194  54.730  1.00  0.00     0.004 A 
HETATM    6  C   UNL     1       8.198  22.457  53.305  1.00  0.00     0.018 A 
HETATM    7  C   UNL     1       7.534  23.514  52.809  1.00  0.00     0.115 A 
HETATM    8  C   UNL     1       6.147  25.224  55.598  1.00  0.00     0.107 A 
HETATM    9  N   UNL     1       5.665  26.045  54.601  1.00  0.00    -0.064 NA
ENDROOT
BRANCH   1  10
HETATM   10  N   UNL     1       5.627  26.014  52.224  1.00  0.00    -0.147 N 
HETATM   11  C   UNL     1       4.996  25.294  51.228  1.00  0.00     0.233 A 
HETATM   12  N   UNL     1       4.703  26.021  50.173  1.00  0.00    -0.236 NA
HETATM   13  C   UNL     1       5.197  27.278  50.444  1.00  0.00     0.142 A 
HETATM   14  C   UNL     1       5.782  27.274  51.700  1.00  0.00     0.153 A 
BRANCH  13  15
HETATM   15  C   UNL     1       5.086  28.470  49.584  1.00  0.00     0.273 C 
HETATM   16  N   UNL     1       3.817  28.912  49.149  1.00  0.00    -0.347 N 
HETATM   17  C   UNL     1       2.721  27.992  48.858  1.00  0.00     0.128 C 
HETATM   18  C   UNL     1       3.794  30.188  48.440  1.00  0.00     0.128 C 
HETATM   19  C   UNL     1       1.367  28.677  48.991  1.00  0.00     0.053 C 
HETATM   20  C   UNL     1       1.273  29.962  48.156  1.00  0.00     0.190 C 
HETATM   21  C   UNL     1       2.439  30.879  48.547  1.00  0.00     0.053 C 
HETATM   22  O   UNL     1       6.103  29.091  49.272  1.00  0.00    -0.266 OA
BRANCH  20  23
HETATM   23  N   UNL     1       1.253  29.680  46.642  1.00  0.00    -0.074 N 
HETATM   24  C   UNL     1       1.138  30.945  45.813  1.00  0.00     0.269 C 
HETATM   25  H   UNL     1       2.142  29.240  46.371  1.00  0.00     0.279 HD
HETATM   26  C   UNL     1       0.158  28.722  46.218  1.00  0.00     0.269 C 
ENDBRANCH  20  23
ENDBRANCH  13  15
ENDBRANCH   1  10
BRANCH   8  27
HETATM   27  C   UNL     1       5.902  25.559  57.030  1.00  0.00     0.294 C 
BRANCH  27  28
HETATM   28  N   UNL     1       6.554  26.843  57.381  1.00  0.00    -0.064 N 
HETATM   29  H   UNL     1       6.034  27.604  56.923  1.00  0.00     0.278 HD
HETATM   30  H   UNL     1       6.423  27.038  58.381  1.00  0.00     0.278 HD
BRANCH  28  31
HETATM   31  C   UNL     1       7.996  26.949  57.054  1.00  0.00     0.297 C 
BRANCH  31  32
HETATM   32  C   UNL     1       8.560  28.260  57.454  1.00  0.00     0.078 A 
HETATM   33  O   UNL     1       7.986  28.872  58.534  1.00  0.00    -0.325 OA
HETATM   34  C   UNL     1       8.656  30.039  58.729  1.00  0.00     0.142 A 
HETATM   35  C   UNL     1       9.655  30.181  57.795  1.00  0.00     0.027 A 
HETATM   36  C   UNL     1       9.594  29.032  56.970  1.00  0.00     0.036 A 
ENDBRANCH  31  32
ENDBRANCH  28  31
ENDBRANCH  27  28
ENDBRANCH   8  27
TORSDOF 7
ENDMDL
MODEL 10
REMARK VINA RESULT:      -8.2      2.579      5.076
REMARK  7 active torsions:
REMARK  status: ('A' for Active; 'I' for Inactive)
REMARK    1  A    between atoms: N_2  and  C_4 
REMARK       I    between atoms: N_7  and  C_8 
REMARK    2  A    between atoms: C_8  and  C_9 
REMARK    3  A    between atoms: N_12  and  C_13 
REMARK    4  A    between atoms: C_20  and  C_21 
REMARK    5  A    between atoms: C_21  and  N_22 
REMARK    6  A    between atoms: N_22  and  C_25 
REMARK    7  A    between atoms: C_25  and  C_26 
ROOT
HETATM    1  C   UNL     1       6.619  32.712  61.174  1.00  0.00     0.719 A 
HETATM    2  N   UNL     1       6.732  33.103  62.502  1.00  0.00    -0.154 N 
HETATM    3  C   UNL     1       5.611  33.904  62.753  1.00  0.00     0.083 A 
HETATM    4  C   UNL     1       5.419  34.407  64.072  1.00  0.00     0.033 A 
HETATM    5  C   UNL     1       6.341  34.147  65.018  1.00  0.00     0.004 A 
HETATM    6  C   UNL     1       7.536  33.384  64.719  1.00  0.00     0.018 A 
HETATM    7  C   UNL     1       7.705  32.884  63.483  1.00  0.00     0.115 A 
HETATM    8  C   UNL     1       4.956  34.040  61.551  1.00  0.00     0.107 A 
HETATM    9  N   UNL     1       5.589  33.302  60.574  1.00  0.00    -0.064 NA
ENDROOT
BRANCH   1  10
HETATM   10  N   UNL     1       7.439  31.811  60.482  1.00  0.00    -0.147 N 
HETATM   11  C   UNL     1       8.320  30.934  61.087  1.00  0.00     0.233 A 
HETATM   12  N   UNL     1       8.965  30.178  60.227  1.00  0.00    -0.236 NA
HETATM   13  C   UNL     1       8.540  30.589  58.983  1.00  0.00     0.142 A 
HETATM   14  C   UNL     1       7.612  31.607  59.135  1.00  0.00     0.153 A 
BRANCH  13  15
HETATM   15  C   UNL     1       8.943  30.021  57.684  1.00  0.00     0.273 C 
HETATM   16  N   UNL     1       8.091  29.116  57.014  1.00  0.00    -0.347 N 
HETATM   17  C   UNL     1       7.239  28.165  57.723  1.00  0.00     0.128 C 
HETATM   18  C   UNL     1       8.500  28.735  55.665  1.00  0.00     0.128 C 
HETATM   19  C   UNL     1       6.042  27.750  56.878  1.00  0.00     0.053 C 
HETATM   20  C   UNL     1       6.452  27.228  55.493  1.00  0.00     0.190 C 
HETATM   21  C   UNL     1       7.315  28.298  54.810  1.00  0.00     0.053 C 
HETATM   22  O   UNL     1      10.013  30.362  57.177  1.00  0.00    -0.266 OA
BRANCH  20  23
HETATM   23  N   UNL     1       7.179  25.872  55.567  1.00  0.00    -0.074 N 
HETATM   24  C   UNL     1       7.529  25.321  54.198  1.00  0.00     0.269 C 
HETATM   25  H   UNL     1       8.071  25.995  56.062  1.00  0.00     0.279 HD
HETATM   26  C   UNL     1       6.410  24.813  56.332  1.00  0.00     0.269 C 
ENDBRANCH  20  23
ENDBRANCH  13  15
ENDBRANCH   1  10
BRANCH   8  27
HETATM   27  C   UNL     1       3.734  34.828  61.222  1.00  0.00     0.294 C 
BRANCH  27  28
HETATM   28  N   UNL     1       2.894  34.096  60.244  1.00  0.00    -0.064 N 
HETATM   29  H   UNL     1       3.356  33.202  60.029  1.00  0.00     0.278 HD
HETATM   30  H   UNL     1       2.015  33.805  60.689  1.00  0.00     0.278 HD
BRANCH  28  31
HETATM   31  C   UNL     1       2.583  34.818  58.987  1.00  0.00     0.297 C 
BRANCH  31  32
HETATM   32  C   UNL     1       3.353  34.287  57.837  1.00  0.00     0.078 A 
HETATM   33  O   UNL     1       2.770  33.278  57.122  1.00  0.00    -0.325 OA
HETATM   34  C   UNL     1       3.632  32.954  56.121  1.00  0.00     0.142 A 
HETATM   35  C   UNL     1       4.756  33.744  56.182  1.00  0.00     0.027 A 
HETATM   36  C   UNL     1       4.577  34.606  57.290  1.00  0.00     0.036 A 
ENDBRANCH  31  32
ENDBRANCH  28  31
ENDBRANCH  27  28
ENDBRANCH   8  27
TORSDOF 7
ENDMDL
