MODEL 1
REMARK VINA RESULT:      -9.8      0.000      0.000
REMARK  8 active torsions:
REMARK  status: ('A' for Active; 'I' for Inactive)
REMARK    1  A    between atoms: C_2  and  N_3 
REMARK    2  A    between atoms: N_3  and  N_4 
REMARK       I    between atoms: N_4  and  C_5 
REMARK    3  A    between atoms: C_5  and  C_6 
REMARK       I    between atoms: C_6  and  N_7 
REMARK    4  A    between atoms: N_7  and  C_8 
REMARK    5  A    between atoms: C_8  and  C_9 
REMARK    6  A    between atoms: C_17  and  C_18 
REMARK       I    between atoms: C_18  and  N_19 
REMARK    7  A    between atoms: N_19  and  C_20 
REMARK    8  A    between atoms: C_21  and  O_22 
ROOT
HETATM    1  N   UNL     1       7.285  28.514  57.809  1.00  0.00    -0.302 N 
HETATM    2  H   UNL     1       6.302  28.789  57.697  1.00  0.00     0.186 HD
ENDROOT
BRANCH   1   3
HETATM    3  C   UNL     1       7.844  27.911  56.696  1.00  0.00     0.027 C 
HETATM    4  C   UNL     1       8.053  28.867  55.536  1.00  0.00     0.070 C 
HETATM    5  C   UNL     1       8.179  26.619  56.501  1.00  0.00     0.100 C 
BRANCH   5   6
HETATM    6  C   UNL     1       7.981  25.468  57.425  1.00  0.00     0.247 C 
HETATM    7  N   UNL     1       7.633  24.258  56.893  1.00  0.00    -0.321 N 
HETATM    8  H   UNL     1       7.207  23.642  57.580  1.00  0.00     0.169 HD
HETATM    9  O   UNL     1       7.985  25.596  58.649  1.00  0.00    -0.268 OA
BRANCH   7  10
HETATM   10  C   UNL     1       7.747  23.716  55.600  1.00  0.00     0.070 A 
HETATM   11  C   UNL     1       8.117  22.365  55.483  1.00  0.00     0.095 A 
HETATM   12  C   UNL     1       8.334  21.780  54.236  1.00  0.00     0.041 A 
HETATM   13  C   UNL     1       8.160  22.540  53.081  1.00  0.00     0.026 A 
HETATM   14  C   UNL     1       7.796  23.881  53.187  1.00  0.00     0.036 A 
HETATM   15 CL   UNL     1       7.612  24.825  51.759  1.00  0.00    -0.084 Cl
HETATM   16  C   UNL     1       7.597  24.475  54.437  1.00  0.00     0.056 A 
BRANCH  11  17
HETATM   17  O   UNL     1       8.295  21.572  56.590  1.00  0.00    -0.354 OA
HETATM   18  C   UNL     1       9.087  20.423  56.274  1.00  0.00     0.210 C 
ENDBRANCH  11  17
ENDBRANCH   7  10
ENDBRANCH   5   6
ENDBRANCH   1   3
BRANCH   1  19
HETATM   19  N   UNL     1       7.981  29.409  58.627  1.00  0.00    -0.262 N 
HETATM   20  C   UNL     1       7.479  30.689  58.734  1.00  0.00     0.327 C 
HETATM   21  O   UNL     1       6.601  31.172  58.024  1.00  0.00    -0.261 OA
HETATM   22  H   UNL     1       8.526  29.007  59.400  1.00  0.00     0.190 HD
BRANCH  20  23
HETATM   23  C   UNL     1       8.103  31.524  59.868  1.00  0.00     0.311 C 
HETATM   24  N   UNL     1       8.039  30.909  61.097  1.00  0.00    -0.349 N 
HETATM   25  H   UNL     1       7.669  29.962  61.128  1.00  0.00     0.163 HD
HETATM   26  O   UNL     1       8.599  32.619  59.649  1.00  0.00    -0.262 OA
BRANCH  24  27
HETATM   27  C   UNL     1       8.628  31.497  62.270  1.00  0.00     0.161 C 
BRANCH  27  28
HETATM   28  C   UNL     1       7.593  32.206  63.101  1.00  0.00    -0.041 A 
HETATM   29  C   UNL     1       6.227  32.029  62.848  1.00  0.00     0.009 A 
HETATM   30  C   UNL     1       5.272  32.699  63.617  1.00  0.00     0.001 A 
HETATM   31  C   UNL     1       5.675  33.555  64.640  1.00  0.00     0.000 A 
HETATM   32  C   UNL     1       7.031  33.745  64.896  1.00  0.00     0.001 A 
HETATM   33  C   UNL     1       7.986  33.074  64.130  1.00  0.00     0.009 A 
ENDBRANCH  27  28
ENDBRANCH  24  27
ENDBRANCH  20  23
ENDBRANCH   1  19
TORSDOF 8
ENDMDL
MODEL 2
REMARK VINA RESULT:      -9.8      1.900      2.613
REMARK  8 active torsions:
REMARK  status: ('A' for Active; 'I' for Inactive)
REMARK    1  A    between atoms: C_2  and  N_3 
REMARK    2  A    between atoms: N_3  and  N_4 
REMARK       I    between atoms: N_4  and  C_5 
REMARK    3  A    between atoms: C_5  and  C_6 
REMARK       I    between atoms: C_6  and  N_7 
REMARK    4  A    between atoms: N_7  and  C_8 
REMARK    5  A    between atoms: C_8  and  C_9 
REMARK    6  A    between atoms: C_17  and  C_18 
REMARK       I    between atoms: C_18  and  N_19 
REMARK    7  A    between atoms: N_19  and  C_20 
REMARK    8  A    between atoms: C_21  and  O_22 
ROOT
HETATM    1  N   UNL     1       6.959  29.039  57.466  1.00  0.00    -0.302 N 
HETATM    2  H   UNL     1       6.101  29.553  57.227  1.00  0.00     0.186 HD
ENDROOT
BRANCH   1   3
HETATM    3  C   UNL     1       7.501  28.309  56.422  1.00  0.00     0.027 C 
HETATM    4  C   UNL     1       8.715  28.970  55.794  1.00  0.00     0.070 C 
HETATM    5  C   UNL     1       7.081  27.146  55.882  1.00  0.00     0.100 C 
BRANCH   5   6
HETATM    6  C   UNL     1       5.871  26.353  56.235  1.00  0.00     0.247 C 
HETATM    7  N   UNL     1       5.685  25.144  55.625  1.00  0.00    -0.321 N 
HETATM    8  H   UNL     1       4.717  24.837  55.662  1.00  0.00     0.169 HD
HETATM    9  O   UNL     1       4.970  26.802  56.943  1.00  0.00    -0.268 OA
BRANCH   7  10
HETATM   10  C   UNL     1       6.562  24.263  54.966  1.00  0.00     0.070 A 
HETATM   11  C   UNL     1       6.558  24.262  53.561  1.00  0.00     0.095 A 
HETATM   12  C   UNL     1       7.335  23.358  52.836  1.00  0.00     0.041 A 
HETATM   13  C   UNL     1       8.147  22.452  53.515  1.00  0.00     0.026 A 
HETATM   14  C   UNL     1       8.155  22.444  54.908  1.00  0.00     0.036 A 
HETATM   15 CL   UNL     1       9.137  21.303  55.744  1.00  0.00    -0.084 Cl
HETATM   16  C   UNL     1       7.362  23.336  55.637  1.00  0.00     0.056 A 
BRANCH  11  17
HETATM   17  O   UNL     1       5.780  25.138  52.844  1.00  0.00    -0.354 OA
HETATM   18  C   UNL     1       6.560  25.833  51.866  1.00  0.00     0.210 C 
ENDBRANCH  11  17
ENDBRANCH   7  10
ENDBRANCH   5   6
ENDBRANCH   1   3
BRANCH   1  19
HETATM   19  N   UNL     1       7.733  29.732  58.399  1.00  0.00    -0.262 N 
HETATM   20  C   UNL     1       7.406  31.052  58.637  1.00  0.00     0.327 C 
HETATM   21  O   UNL     1       6.635  31.727  57.961  1.00  0.00    -0.261 OA
HETATM   22  H   UNL     1       8.183  29.176  59.138  1.00  0.00     0.190 HD
BRANCH  20  23
HETATM   23  C   UNL     1       8.087  31.662  59.877  1.00  0.00     0.311 C 
HETATM   24  N   UNL     1       7.812  30.982  61.040  1.00  0.00    -0.349 N 
HETATM   25  H   UNL     1       7.268  30.126  60.965  1.00  0.00     0.163 HD
HETATM   26  O   UNL     1       8.797  32.652  59.785  1.00  0.00    -0.262 OA
BRANCH  24  27
HETATM   27  C   UNL     1       8.409  31.355  62.294  1.00  0.00     0.161 C 
BRANCH  27  28
HETATM   28  C   UNL     1       7.450  32.151  63.137  1.00  0.00    -0.041 A 
HETATM   29  C   UNL     1       7.920  33.027  64.125  1.00  0.00     0.009 A 
HETATM   30  C   UNL     1       7.023  33.755  64.911  1.00  0.00     0.001 A 
HETATM   31  C   UNL     1       5.651  33.609  64.721  1.00  0.00     0.000 A 
HETATM   32  C   UNL     1       5.171  32.736  63.747  1.00  0.00     0.001 A 
HETATM   33  C   UNL     1       6.066  32.010  62.960  1.00  0.00     0.009 A 
ENDBRANCH  27  28
ENDBRANCH  24  27
ENDBRANCH  20  23
ENDBRANCH   1  19
TORSDOF 8
ENDMDL
MODEL 3
REMARK VINA RESULT:      -9.3      2.372      3.210
REMARK  8 active torsions:
REMARK  status: ('A' for Active; 'I' for Inactive)
REMARK    1  A    between atoms: C_2  and  N_3 
REMARK    2  A    between atoms: N_3  and  N_4 
REMARK       I    between atoms: N_4  and  C_5 
REMARK    3  A    between atoms: C_5  and  C_6 
REMARK       I    between atoms: C_6  and  N_7 
REMARK    4  A    between atoms: N_7  and  C_8 
REMARK    5  A    between atoms: C_8  and  C_9 
REMARK    6  A    between atoms: C_17  and  C_18 
REMARK       I    between atoms: C_18  and  N_19 
REMARK    7  A    between atoms: N_19  and  C_20 
REMARK    8  A    between atoms: C_21  and  O_22 
ROOT
HETATM    1  N   UNL     1       8.331  28.824  57.742  1.00  0.00    -0.302 N 
HETATM    2  H   UNL     1       8.404  27.908  58.202  1.00  0.00     0.186 HD
ENDROOT
BRANCH   1   3
HETATM    3  C   UNL     1       8.457  28.788  56.364  1.00  0.00     0.027 C 
HETATM    4  C   UNL     1       9.719  29.461  55.858  1.00  0.00     0.070 C 
HETATM    5  C   UNL     1       7.611  28.284  55.441  1.00  0.00     0.100 C 
BRANCH   5   6
HETATM    6  C   UNL     1       6.271  27.673  55.658  1.00  0.00     0.247 C 
HETATM    7  N   UNL     1       5.925  26.580  54.914  1.00  0.00    -0.321 N 
HETATM    8  H   UNL     1       4.920  26.438  54.880  1.00  0.00     0.169 HD
HETATM    9  O   UNL     1       5.417  28.192  56.377  1.00  0.00    -0.268 OA
BRANCH   7  10
HETATM   10  C   UNL     1       6.682  25.636  54.196  1.00  0.00     0.070 A 
HETATM   11  C   UNL     1       6.749  25.773  52.799  1.00  0.00     0.095 A 
HETATM   12  C   UNL     1       7.407  24.829  52.011  1.00  0.00     0.041 A 
HETATM   13  C   UNL     1       8.031  23.741  52.618  1.00  0.00     0.026 A 
HETATM   14  C   UNL     1       7.967  23.596  54.002  1.00  0.00     0.036 A 
HETATM   15 CL   UNL     1       8.713  22.234  54.747  1.00  0.00    -0.084 Cl
HETATM   16  C   UNL     1       7.290  24.530  54.793  1.00  0.00     0.056 A 
BRANCH  11  17
HETATM   17  O   UNL     1       6.157  26.830  52.152  1.00  0.00    -0.354 OA
HETATM   18  C   UNL     1       5.394  26.380  51.029  1.00  0.00     0.210 C 
ENDBRANCH  11  17
ENDBRANCH   7  10
ENDBRANCH   5   6
ENDBRANCH   1   3
BRANCH   1  19
HETATM   19  N   UNL     1       7.437  29.666  58.408  1.00  0.00    -0.262 N 
HETATM   20  C   UNL     1       7.905  30.906  58.792  1.00  0.00     0.327 C 
HETATM   21  O   UNL     1       9.082  31.257  58.786  1.00  0.00    -0.261 OA
HETATM   22  H   UNL     1       6.437  29.536  58.210  1.00  0.00     0.190 HD
BRANCH  20  23
HETATM   23  C   UNL     1       6.806  31.890  59.239  1.00  0.00     0.311 C 
HETATM   24  N   UNL     1       6.524  31.817  60.583  1.00  0.00    -0.349 N 
HETATM   25  H   UNL     1       7.098  31.198  61.151  1.00  0.00     0.163 HD
HETATM   26  O   UNL     1       6.270  32.645  58.442  1.00  0.00    -0.262 OA
BRANCH  24  27
HETATM   27  C   UNL     1       5.576  32.702  61.206  1.00  0.00     0.161 C 
BRANCH  27  28
HETATM   28  C   UNL     1       6.090  33.207  62.527  1.00  0.00    -0.041 A 
HETATM   29  C   UNL     1       7.188  32.598  63.149  1.00  0.00     0.009 A 
HETATM   30  C   UNL     1       7.653  33.066  64.381  1.00  0.00     0.001 A 
HETATM   31  C   UNL     1       7.022  34.140  65.004  1.00  0.00     0.000 A 
HETATM   32  C   UNL     1       5.924  34.749  64.399  1.00  0.00     0.001 A 
HETATM   33  C   UNL     1       5.460  34.284  63.167  1.00  0.00     0.009 A 
ENDBRANCH  27  28
ENDBRANCH  24  27
ENDBRANCH  20  23
ENDBRANCH   1  19
TORSDOF 8
ENDMDL
MODEL 4
REMARK VINA RESULT:      -9.3      3.677     10.847
REMARK  8 active torsions:
REMARK  status: ('A' for Active; 'I' for Inactive)
REMARK    1  A    between atoms: C_2  and  N_3 
REMARK    2  A    between atoms: N_3  and  N_4 
REMARK       I    between atoms: N_4  and  C_5 
REMARK    3  A    between atoms: C_5  and  C_6 
REMARK       I    between atoms: C_6  and  N_7 
REMARK    4  A    between atoms: N_7  and  C_8 
REMARK    5  A    between atoms: C_8  and  C_9 
REMARK    6  A    between atoms: C_17  and  C_18 
REMARK       I    between atoms: C_18  and  N_19 
REMARK    7  A    between atoms: N_19  and  C_20 
REMARK    8  A    between atoms: C_21  and  O_22 
ROOT
HETATM    1  N   UNL     1       7.872  29.794  59.110  1.00  0.00    -0.302 N 
HETATM    2  H   UNL     1       8.727  29.247  59.272  1.00  0.00     0.186 HD
ENDROOT
BRANCH   1   3
HETATM    3  C   UNL     1       8.051  31.165  59.143  1.00  0.00     0.027 C 
HETATM    4  C   UNL     1       9.498  31.587  58.959  1.00  0.00     0.070 C 
HETATM    5  C   UNL     1       7.144  32.142  59.352  1.00  0.00     0.100 C 
BRANCH   5   6
HETATM    6  C   UNL     1       5.694  31.999  59.662  1.00  0.00     0.247 C 
HETATM    7  N   UNL     1       5.275  32.246  60.939  1.00  0.00    -0.321 N 
HETATM    8  H   UNL     1       4.375  31.819  61.139  1.00  0.00     0.169 HD
HETATM    9  O   UNL     1       4.888  31.539  58.854  1.00  0.00    -0.268 OA
BRANCH   7  10
HETATM   10  C   UNL     1       5.843  32.961  62.009  1.00  0.00     0.070 A 
HETATM   11  C   UNL     1       6.728  32.277  62.859  1.00  0.00     0.095 A 
HETATM   12  C   UNL     1       7.265  32.892  63.991  1.00  0.00     0.041 A 
HETATM   13  C   UNL     1       6.937  34.217  64.273  1.00  0.00     0.026 A 
HETATM   14  C   UNL     1       6.058  34.902  63.437  1.00  0.00     0.036 A 
HETATM   15 CL   UNL     1       5.631  36.529  63.806  1.00  0.00    -0.084 Cl
HETATM   16  C   UNL     1       5.503  34.281  62.313  1.00  0.00     0.056 A 
BRANCH  11  17
HETATM   17  O   UNL     1       7.088  30.973  62.622  1.00  0.00    -0.354 OA
HETATM   18  C   UNL     1       8.511  30.827  62.624  1.00  0.00     0.210 C 
ENDBRANCH  11  17
ENDBRANCH   7  10
ENDBRANCH   5   6
ENDBRANCH   1   3
BRANCH   1  19
HETATM   19  N   UNL     1       7.014  29.155  58.211  1.00  0.00    -0.262 N 
HETATM   20  C   UNL     1       7.497  28.037  57.562  1.00  0.00     0.327 C 
HETATM   21  O   UNL     1       8.670  27.673  57.547  1.00  0.00    -0.261 OA
HETATM   22  H   UNL     1       6.005  29.251  58.380  1.00  0.00     0.190 HD
BRANCH  20  23
HETATM   23  C   UNL     1       6.421  27.213  56.830  1.00  0.00     0.311 C 
HETATM   24  N   UNL     1       6.921  26.090  56.212  1.00  0.00    -0.349 N 
HETATM   25  H   UNL     1       7.905  25.875  56.354  1.00  0.00     0.163 HD
HETATM   26  O   UNL     1       5.249  27.559  56.830  1.00  0.00    -0.262 OA
BRANCH  24  27
HETATM   27  C   UNL     1       6.064  25.155  55.534  1.00  0.00     0.161 C 
BRANCH  27  28
HETATM   28  C   UNL     1       6.866  24.093  54.831  1.00  0.00    -0.041 A 
HETATM   29  C   UNL     1       7.543  23.106  55.559  1.00  0.00     0.009 A 
HETATM   30  C   UNL     1       8.295  22.130  54.900  1.00  0.00     0.001 A 
HETATM   31  C   UNL     1       8.382  22.136  53.509  1.00  0.00     0.000 A 
HETATM   32  C   UNL     1       7.720  23.118  52.774  1.00  0.00     0.001 A 
HETATM   33  C   UNL     1       6.966  24.092  53.431  1.00  0.00     0.009 A 
ENDBRANCH  27  28
ENDBRANCH  24  27
ENDBRANCH  20  23
ENDBRANCH   1  19
TORSDOF 8
ENDMDL
MODEL 5
REMARK VINA RESULT:      -9.3      5.594      9.555
REMARK  8 active torsions:
REMARK  status: ('A' for Active; 'I' for Inactive)
REMARK    1  A    between atoms: C_2  and  N_3 
REMARK    2  A    between atoms: N_3  and  N_4 
REMARK       I    between atoms: N_4  and  C_5 
REMARK    3  A    between atoms: C_5  and  C_6 
REMARK       I    between atoms: C_6  and  N_7 
REMARK    4  A    between atoms: N_7  and  C_8 
REMARK    5  A    between atoms: C_8  and  C_9 
REMARK    6  A    between atoms: C_17  and  C_18 
REMARK       I    between atoms: C_18  and  N_19 
REMARK    7  A    between atoms: N_19  and  C_20 
REMARK    8  A    between atoms: C_21  and  O_22 
ROOT
HETATM    1  N   UNL     1       6.626  27.945  54.309  1.00  0.00    -0.302 N 
HETATM    2  H   UNL     1       7.256  28.567  53.788  1.00  0.00     0.186 HD
ENDROOT
BRANCH   1   3
HETATM    3  C   UNL     1       5.372  27.791  53.744  1.00  0.00     0.027 C 
HETATM    4  C   UNL     1       4.264  28.439  54.554  1.00  0.00     0.070 C 
HETATM    5  C   UNL     1       5.014  27.127  52.625  1.00  0.00     0.100 C 
BRANCH   5   6
HETATM    6  C   UNL     1       5.878  26.324  51.716  1.00  0.00     0.247 C 
HETATM    7  N   UNL     1       5.620  26.360  50.374  1.00  0.00    -0.321 N 
HETATM    8  H   UNL     1       6.016  25.562  49.884  1.00  0.00     0.169 HD
HETATM    9  O   UNL     1       6.719  25.530  52.135  1.00  0.00    -0.268 OA
BRANCH   7  10
HETATM   10  C   UNL     1       4.922  27.270  49.560  1.00  0.00     0.070 A 
HETATM   11  C   UNL     1       3.873  26.772  48.768  1.00  0.00     0.095 A 
HETATM   12  C   UNL     1       3.191  27.595  47.871  1.00  0.00     0.041 A 
HETATM   13  C   UNL     1       3.538  28.940  47.773  1.00  0.00     0.026 A 
HETATM   14  C   UNL     1       4.579  29.442  48.552  1.00  0.00     0.036 A 
HETATM   15 CL   UNL     1       5.026  31.098  48.406  1.00  0.00    -0.084 Cl
HETATM   16  C   UNL     1       5.278  28.614  49.437  1.00  0.00     0.056 A 
BRANCH  11  17
HETATM   17  O   UNL     1       3.488  25.455  48.832  1.00  0.00    -0.354 OA
HETATM   18  C   UNL     1       3.109  24.970  47.540  1.00  0.00     0.210 C 
ENDBRANCH  11  17
ENDBRANCH   7  10
ENDBRANCH   5   6
ENDBRANCH   1   3
BRANCH   1  19
HETATM   19  N   UNL     1       7.322  26.901  54.924  1.00  0.00    -0.262 N 
HETATM   20  C   UNL     1       7.420  26.930  56.300  1.00  0.00     0.327 C 
HETATM   21  O   UNL     1       7.131  27.886  57.014  1.00  0.00    -0.261 OA
HETATM   22  H   UNL     1       7.346  26.001  54.428  1.00  0.00     0.190 HD
BRANCH  20  23
HETATM   23  C   UNL     1       7.924  25.617  56.929  1.00  0.00     0.311 C 
HETATM   24  N   UNL     1       7.920  24.556  56.054  1.00  0.00    -0.349 N 
HETATM   25  H   UNL     1       7.666  24.746  55.088  1.00  0.00     0.163 HD
HETATM   26  O   UNL     1       8.287  25.573  58.095  1.00  0.00    -0.262 OA
BRANCH  24  27
HETATM   27  C   UNL     1       8.419  23.261  56.432  1.00  0.00     0.161 C 
BRANCH  27  28
HETATM   28  C   UNL     1       8.403  22.310  55.266  1.00  0.00    -0.041 A 
HETATM   29  C   UNL     1       8.008  22.743  53.993  1.00  0.00     0.009 A 
HETATM   30  C   UNL     1       7.986  21.851  52.918  1.00  0.00     0.001 A 
HETATM   31  C   UNL     1       8.349  20.520  53.106  1.00  0.00     0.000 A 
HETATM   32  C   UNL     1       8.735  20.075  54.370  1.00  0.00     0.001 A 
HETATM   33  C   UNL     1       8.761  20.965  55.444  1.00  0.00     0.009 A 
ENDBRANCH  27  28
ENDBRANCH  24  27
ENDBRANCH  20  23
ENDBRANCH   1  19
TORSDOF 8
ENDMDL
MODEL 6
REMARK VINA RESULT:      -9.2      5.674      9.642
REMARK  8 active torsions:
REMARK  status: ('A' for Active; 'I' for Inactive)
REMARK    1  A    between atoms: C_2  and  N_3 
REMARK    2  A    between atoms: N_3  and  N_4 
REMARK       I    between atoms: N_4  and  C_5 
REMARK    3  A    between atoms: C_5  and  C_6 
REMARK       I    between atoms: C_6  and  N_7 
REMARK    4  A    between atoms: N_7  and  C_8 
REMARK    5  A    between atoms: C_8  and  C_9 
REMARK    6  A    between atoms: C_17  and  C_18 
REMARK       I    between atoms: C_18  and  N_19 
REMARK    7  A    between atoms: N_19  and  C_20 
REMARK    8  A    between atoms: C_21  and  O_22 
ROOT
HETATM    1  N   UNL     1       6.295  28.431  53.758  1.00  0.00    -0.302 N 
HETATM    2  H   UNL     1       6.973  28.996  53.231  1.00  0.00     0.186 HD
ENDROOT
BRANCH   1   3
HETATM    3  C   UNL     1       5.055  28.310  53.154  1.00  0.00     0.027 C 
HETATM    4  C   UNL     1       3.953  29.050  53.891  1.00  0.00     0.070 C 
HETATM    5  C   UNL     1       4.704  27.610  52.056  1.00  0.00     0.100 C 
BRANCH   5   6
HETATM    6  C   UNL     1       5.558  26.723  51.218  1.00  0.00     0.247 C 
HETATM    7  N   UNL     1       5.208  26.528  49.911  1.00  0.00    -0.321 N 
HETATM    8  H   UNL     1       5.624  25.687  49.522  1.00  0.00     0.169 HD
HETATM    9  O   UNL     1       6.479  26.057  51.689  1.00  0.00    -0.268 OA
BRANCH   7  10
HETATM   10  C   UNL     1       4.395  27.254  49.022  1.00  0.00     0.070 A 
HETATM   11  C   UNL     1       4.839  28.523  48.612  1.00  0.00     0.095 A 
HETATM   12  C   UNL     1       4.049  29.338  47.802  1.00  0.00     0.041 A 
HETATM   13  C   UNL     1       2.805  28.881  47.371  1.00  0.00     0.026 A 
HETATM   14  C   UNL     1       2.355  27.625  47.775  1.00  0.00     0.036 A 
HETATM   15 CL   UNL     1       0.806  27.075  47.266  1.00  0.00    -0.084 Cl
HETATM   16  C   UNL     1       3.137  26.813  48.604  1.00  0.00     0.056 A 
BRANCH  11  17
HETATM   17  O   UNL     1       6.058  29.018  49.004  1.00  0.00    -0.354 OA
HETATM   18  C   UNL     1       5.912  30.283  49.654  1.00  0.00     0.210 C 
ENDBRANCH  11  17
ENDBRANCH   7  10
ENDBRANCH   5   6
ENDBRANCH   1   3
BRANCH   1  19
HETATM   19  N   UNL     1       6.917  27.387  54.447  1.00  0.00    -0.262 N 
HETATM   20  C   UNL     1       7.367  27.652  55.724  1.00  0.00     0.327 C 
HETATM   21  O   UNL     1       7.456  28.767  56.231  1.00  0.00    -0.261 OA
HETATM   22  H   UNL     1       6.643  26.430  54.190  1.00  0.00     0.190 HD
BRANCH  20  23
HETATM   23  C   UNL     1       7.760  26.400  56.532  1.00  0.00     0.311 C 
HETATM   24  N   UNL     1       7.676  25.234  55.807  1.00  0.00    -0.349 N 
HETATM   25  H   UNL     1       7.444  25.312  54.820  1.00  0.00     0.163 HD
HETATM   26  O   UNL     1       8.110  26.485  57.699  1.00  0.00    -0.262 OA
BRANCH  24  27
HETATM   27  C   UNL     1       8.066  23.967  56.364  1.00  0.00     0.161 C 
BRANCH  27  28
HETATM   28  C   UNL     1       8.001  22.876  55.331  1.00  0.00    -0.041 A 
HETATM   29  C   UNL     1       7.939  23.183  53.965  1.00  0.00     0.009 A 
HETATM   30  C   UNL     1       7.868  22.164  53.012  1.00  0.00     0.001 A 
HETATM   31  C   UNL     1       7.851  20.831  53.415  1.00  0.00     0.000 A 
HETATM   32  C   UNL     1       7.903  20.512  54.771  1.00  0.00     0.001 A 
HETATM   33  C   UNL     1       7.978  21.529  55.724  1.00  0.00     0.009 A 
ENDBRANCH  27  28
ENDBRANCH  24  27
ENDBRANCH  20  23
ENDBRANCH   1  19
TORSDOF 8
ENDMDL
MODEL 7
REMARK VINA RESULT:      -9.1      3.850      9.834
REMARK  8 active torsions:
REMARK  status: ('A' for Active; 'I' for Inactive)
REMARK    1  A    between atoms: C_2  and  N_3 
REMARK    2  A    between atoms: N_3  and  N_4 
REMARK       I    between atoms: N_4  and  C_5 
REMARK    3  A    between atoms: C_5  and  C_6 
REMARK       I    between atoms: C_6  and  N_7 
REMARK    4  A    between atoms: N_7  and  C_8 
REMARK    5  A    between atoms: C_8  and  C_9 
REMARK    6  A    between atoms: C_17  and  C_18 
REMARK       I    between atoms: C_18  and  N_19 
REMARK    7  A    between atoms: N_19  and  C_20 
REMARK    8  A    between atoms: C_21  and  O_22 
ROOT
HETATM    1  N   UNL     1       5.135  29.931  54.498  1.00  0.00    -0.302 N 
HETATM    2  H   UNL     1       4.237  29.550  54.175  1.00  0.00     0.186 HD
ENDROOT
BRANCH   1   3
HETATM    3  C   UNL     1       5.040  30.788  55.581  1.00  0.00     0.027 C 
HETATM    4  C   UNL     1       4.637  32.200  55.197  1.00  0.00     0.070 C 
HETATM    5  C   UNL     1       5.290  30.549  56.885  1.00  0.00     0.100 C 
BRANCH   5   6
HETATM    6  C   UNL     1       5.796  29.295  57.509  1.00  0.00     0.247 C 
HETATM    7  N   UNL     1       6.975  29.342  58.201  1.00  0.00    -0.321 N 
HETATM    8  H   UNL     1       7.401  28.425  58.300  1.00  0.00     0.169 HD
HETATM    9  O   UNL     1       5.270  28.200  57.313  1.00  0.00    -0.268 OA
BRANCH   7  10
HETATM   10  C   UNL     1       7.697  30.399  58.784  1.00  0.00     0.070 A 
HETATM   11  C   UNL     1       9.031  30.584  58.382  1.00  0.00     0.095 A 
HETATM   12  C   UNL     1       9.837  31.555  58.977  1.00  0.00     0.041 A 
HETATM   13  C   UNL     1       9.308  32.372  59.973  1.00  0.00     0.026 A 
HETATM   14  C   UNL     1       7.987  32.193  60.381  1.00  0.00     0.036 A 
HETATM   15 CL   UNL     1       7.344  33.184  61.634  1.00  0.00    -0.084 Cl
HETATM   16  C   UNL     1       7.182  31.207  59.800  1.00  0.00     0.056 A 
BRANCH  11  17
HETATM   17  O   UNL     1       9.598  29.810  57.400  1.00  0.00    -0.354 OA
HETATM   18  C   UNL     1      10.978  30.143  57.219  1.00  0.00     0.210 C 
ENDBRANCH  11  17
ENDBRANCH   7  10
ENDBRANCH   5   6
ENDBRANCH   1   3
BRANCH   1  19
HETATM   19  N   UNL     1       6.175  29.012  54.338  1.00  0.00    -0.262 N 
HETATM   20  C   UNL     1       5.832  27.730  53.960  1.00  0.00     0.327 C 
HETATM   21  O   UNL     1       4.693  27.271  53.949  1.00  0.00    -0.261 OA
HETATM   22  H   UNL     1       7.097  29.389  54.087  1.00  0.00     0.190 HD
BRANCH  20  23
HETATM   23  C   UNL     1       7.021  26.860  53.509  1.00  0.00     0.311 C 
HETATM   24  N   UNL     1       6.652  25.597  53.109  1.00  0.00    -0.349 N 
HETATM   25  H   UNL     1       5.657  25.387  53.076  1.00  0.00     0.163 HD
HETATM   26  O   UNL     1       8.162  27.296  53.518  1.00  0.00    -0.262 OA
BRANCH  24  27
HETATM   27  C   UNL     1       7.610  24.658  52.588  1.00  0.00     0.161 C 
BRANCH  27  28
HETATM   28  C   UNL     1       7.677  23.420  53.441  1.00  0.00    -0.041 A 
HETATM   29  C   UNL     1       7.544  23.501  54.834  1.00  0.00     0.009 A 
HETATM   30  C   UNL     1       7.618  22.348  55.619  1.00  0.00     0.001 A 
HETATM   31  C   UNL     1       7.832  21.108  55.023  1.00  0.00     0.000 A 
HETATM   32  C   UNL     1       7.974  21.016  53.639  1.00  0.00     0.001 A 
HETATM   33  C   UNL     1       7.897  22.166  52.853  1.00  0.00     0.009 A 
ENDBRANCH  27  28
ENDBRANCH  24  27
ENDBRANCH  20  23
ENDBRANCH   1  19
TORSDOF 8
ENDMDL
MODEL 8
REMARK VINA RESULT:      -9.0      2.670      3.575
REMARK  8 active torsions:
REMARK  status: ('A' for Active; 'I' for Inactive)
REMARK    1  A    between atoms: C_2  and  N_3 
REMARK    2  A    between atoms: N_3  and  N_4 
REMARK       I    between atoms: N_4  and  C_5 
REMARK    3  A    between atoms: C_5  and  C_6 
REMARK       I    between atoms: C_6  and  N_7 
REMARK    4  A    between atoms: N_7  and  C_8 
REMARK    5  A    between atoms: C_8  and  C_9 
REMARK    6  A    between atoms: C_17  and  C_18 
REMARK       I    between atoms: C_18  and  N_19 
REMARK    7  A    between atoms: N_19  and  C_20 
REMARK    8  A    between atoms: C_21  and  O_22 
ROOT
HETATM    1  N   UNL     1       6.282  29.405  55.453  1.00  0.00    -0.302 N 
HETATM    2  H   UNL     1       6.229  29.837  54.523  1.00  0.00     0.186 HD
ENDROOT
BRANCH   1   3
HETATM    3  C   UNL     1       7.276  28.452  55.589  1.00  0.00     0.027 C 
HETATM    4  C   UNL     1       8.660  28.975  55.254  1.00  0.00     0.070 C 
HETATM    5  C   UNL     1       7.172  27.150  55.930  1.00  0.00     0.100 C 
BRANCH   5   6
HETATM    6  C   UNL     1       5.935  26.367  56.202  1.00  0.00     0.247 C 
HETATM    7  N   UNL     1       5.761  25.178  55.550  1.00  0.00    -0.321 N 
HETATM    8  H   UNL     1       4.788  24.886  55.532  1.00  0.00     0.169 HD
HETATM    9  O   UNL     1       5.008  26.809  56.880  1.00  0.00    -0.268 OA
BRANCH   7  10
HETATM   10  C   UNL     1       6.655  24.302  54.908  1.00  0.00     0.070 A 
HETATM   11  C   UNL     1       6.784  24.403  53.512  1.00  0.00     0.095 A 
HETATM   12  C   UNL     1       7.584  23.514  52.794  1.00  0.00     0.041 A 
HETATM   13  C   UNL     1       8.287  22.520  53.472  1.00  0.00     0.026 A 
HETATM   14  C   UNL     1       8.163  22.411  54.856  1.00  0.00     0.036 A 
HETATM   15 CL   UNL     1       9.009  21.164  55.688  1.00  0.00    -0.084 Cl
HETATM   16  C   UNL     1       7.345  23.289  55.576  1.00  0.00     0.056 A 
BRANCH  11  17
HETATM   17  O   UNL     1       6.118  25.368  52.797  1.00  0.00    -0.354 OA
HETATM   18  C   UNL     1       4.938  24.832  52.191  1.00  0.00     0.210 C 
ENDBRANCH  11  17
ENDBRANCH   7  10
ENDBRANCH   5   6
ENDBRANCH   1   3
BRANCH   1  19
HETATM   19  N   UNL     1       5.947  30.311  56.463  1.00  0.00    -0.262 N 
HETATM   20  C   UNL     1       4.630  30.338  56.876  1.00  0.00     0.327 C 
HETATM   21  O   UNL     1       3.693  29.790  56.304  1.00  0.00    -0.261 OA
HETATM   22  H   UNL     1       6.693  30.579  57.117  1.00  0.00     0.190 HD
BRANCH  20  23
HETATM   23  C   UNL     1       4.389  31.124  58.179  1.00  0.00     0.311 C 
HETATM   24  N   UNL     1       5.551  31.532  58.793  1.00  0.00    -0.349 N 
HETATM   25  H   UNL     1       6.426  31.351  58.308  1.00  0.00     0.163 HD
HETATM   26  O   UNL     1       3.258  31.342  58.586  1.00  0.00    -0.262 OA
BRANCH  24  27
HETATM   27  C   UNL     1       5.534  32.338  59.984  1.00  0.00     0.161 C 
BRANCH  27  28
HETATM   28  C   UNL     1       6.834  32.228  60.733  1.00  0.00    -0.041 A 
HETATM   29  C   UNL     1       6.854  32.178  62.133  1.00  0.00     0.009 A 
HETATM   30  C   UNL     1       8.066  32.087  62.821  1.00  0.00     0.001 A 
HETATM   31  C   UNL     1       9.268  32.051  62.118  1.00  0.00     0.000 A 
HETATM   32  C   UNL     1       9.262  32.107  60.726  1.00  0.00     0.001 A 
HETATM   33  C   UNL     1       8.052  32.196  60.037  1.00  0.00     0.009 A 
ENDBRANCH  27  28
ENDBRANCH  24  27
ENDBRANCH  20  23
ENDBRANCH   1  19
TORSDOF 8
ENDMDL
MODEL 9
REMARK VINA RESULT:      -9.0      3.518     11.145
REMARK  8 active torsions:
REMARK  status: ('A' for Active; 'I' for Inactive)
REMARK    1  A    between atoms: C_2  and  N_3 
REMARK    2  A    between atoms: N_3  and  N_4 
REMARK       I    between atoms: N_4  and  C_5 
REMARK    3  A    between atoms: C_5  and  C_6 
REMARK       I    between atoms: C_6  and  N_7 
REMARK    4  A    between atoms: N_7  and  C_8 
REMARK    5  A    between atoms: C_8  and  C_9 
REMARK    6  A    between atoms: C_17  and  C_18 
REMARK       I    between atoms: C_18  and  N_19 
REMARK    7  A    between atoms: N_19  and  C_20 
REMARK    8  A    between atoms: C_21  and  O_22 
ROOT
HETATM    1  N   UNL     1       7.630  29.258  58.696  1.00  0.00    -0.302 N 
HETATM    2  H   UNL     1       8.354  28.664  59.118  1.00  0.00     0.186 HD
ENDROOT
BRANCH   1   3
HETATM    3  C   UNL     1       7.857  30.618  58.820  1.00  0.00     0.027 C 
HETATM    4  C   UNL     1       9.329  30.975  58.914  1.00  0.00     0.070 C 
HETATM    5  C   UNL     1       6.968  31.629  58.908  1.00  0.00     0.100 C 
BRANCH   5   6
HETATM    6  C   UNL     1       5.481  31.545  58.950  1.00  0.00     0.247 C 
HETATM    7  N   UNL     1       4.835  31.993  60.068  1.00  0.00    -0.321 N 
HETATM    8  H   UNL     1       3.899  31.608  60.153  1.00  0.00     0.169 HD
HETATM    9  O   UNL     1       4.828  30.968  58.082  1.00  0.00    -0.268 OA
BRANCH   7  10
HETATM   10  C   UNL     1       5.216  32.864  61.105  1.00  0.00     0.070 A 
HETATM   11  C   UNL     1       4.604  34.129  61.158  1.00  0.00     0.095 A 
HETATM   12  C   UNL     1       4.990  35.079  62.103  1.00  0.00     0.041 A 
HETATM   13  C   UNL     1       5.984  34.766  63.027  1.00  0.00     0.026 A 
HETATM   14  C   UNL     1       6.598  33.516  62.980  1.00  0.00     0.036 A 
HETATM   15 CL   UNL     1       7.848  33.142  64.104  1.00  0.00    -0.084 Cl
HETATM   16  C   UNL     1       6.227  32.568  62.020  1.00  0.00     0.056 A 
BRANCH  11  17
HETATM   17  O   UNL     1       3.615  34.485  60.274  1.00  0.00    -0.354 OA
HETATM   18  C   UNL     1       4.077  35.491  59.368  1.00  0.00     0.210 C 
ENDBRANCH  11  17
ENDBRANCH   7  10
ENDBRANCH   5   6
ENDBRANCH   1   3
BRANCH   1  19
HETATM   19  N   UNL     1       7.088  28.674  57.548  1.00  0.00    -0.262 N 
HETATM   20  C   UNL     1       7.360  27.339  57.330  1.00  0.00     0.327 C 
HETATM   21  O   UNL     1       8.194  26.673  57.937  1.00  0.00    -0.261 OA
HETATM   22  H   UNL     1       6.223  29.086  57.178  1.00  0.00     0.190 HD
BRANCH  20  23
HETATM   23  C   UNL     1       6.498  26.686  56.232  1.00  0.00     0.311 C 
HETATM   24  N   UNL     1       7.169  25.723  55.513  1.00  0.00    -0.349 N 
HETATM   25  H   UNL     1       8.112  25.487  55.812  1.00  0.00     0.163 HD
HETATM   26  O   UNL     1       5.336  27.019  56.058  1.00  0.00    -0.262 OA
BRANCH  24  27
HETATM   27  C   UNL     1       6.516  24.951  54.491  1.00  0.00     0.161 C 
BRANCH  27  28
HETATM   28  C   UNL     1       7.114  23.574  54.384  1.00  0.00    -0.041 A 
HETATM   29  C   UNL     1       7.394  22.823  55.533  1.00  0.00     0.009 A 
HETATM   30  C   UNL     1       7.959  21.550  55.425  1.00  0.00     0.001 A 
HETATM   31  C   UNL     1       8.256  21.020  54.172  1.00  0.00     0.000 A 
HETATM   32  C   UNL     1       7.990  21.761  53.022  1.00  0.00     0.001 A 
HETATM   33  C   UNL     1       7.422  23.032  53.127  1.00  0.00     0.009 A 
ENDBRANCH  27  28
ENDBRANCH  24  27
ENDBRANCH  20  23
ENDBRANCH   1  19
TORSDOF 8
ENDMDL
MODEL 10
REMARK VINA RESULT:      -8.9      5.566      9.597
REMARK  8 active torsions:
REMARK  status: ('A' for Active; 'I' for Inactive)
REMARK    1  A    between atoms: C_2  and  N_3 
REMARK    2  A    between atoms: N_3  and  N_4 
REMARK       I    between atoms: N_4  and  C_5 
REMARK    3  A    between atoms: C_5  and  C_6 
REMARK       I    between atoms: C_6  and  N_7 
REMARK    4  A    between atoms: N_7  and  C_8 
REMARK    5  A    between atoms: C_8  and  C_9 
REMARK    6  A    between atoms: C_17  and  C_18 
REMARK       I    between atoms: C_18  and  N_19 
REMARK    7  A    between atoms: N_19  and  C_20 
REMARK    8  A    between atoms: C_21  and  O_22 
ROOT
HETATM    1  N   UNL     1       6.165  29.025  54.775  1.00  0.00    -0.302 N 
HETATM    2  H   UNL     1       5.226  29.089  55.187  1.00  0.00     0.186 HD
ENDROOT
BRANCH   1   3
HETATM    3  C   UNL     1       7.082  28.324  55.538  1.00  0.00     0.027 C 
HETATM    4  C   UNL     1       8.464  28.950  55.542  1.00  0.00     0.070 C 
HETATM    5  C   UNL     1       6.922  27.172  56.223  1.00  0.00     0.100 C 
BRANCH   5   6
HETATM    6  C   UNL     1       5.713  26.306  56.297  1.00  0.00     0.247 C 
HETATM    7  N   UNL     1       5.601  25.268  55.414  1.00  0.00    -0.321 N 
HETATM    8  H   UNL     1       4.641  24.952  55.311  1.00  0.00     0.169 HD
HETATM    9  O   UNL     1       4.756  26.569  57.024  1.00  0.00    -0.268 OA
BRANCH   7  10
HETATM   10  C   UNL     1       6.542  24.574  54.633  1.00  0.00     0.070 A 
HETATM   11  C   UNL     1       6.720  24.983  53.301  1.00  0.00     0.095 A 
HETATM   12  C   UNL     1       7.571  24.290  52.439  1.00  0.00     0.041 A 
HETATM   13  C   UNL     1       8.276  23.185  52.912  1.00  0.00     0.026 A 
HETATM   14  C   UNL     1       8.104  22.771  54.231  1.00  0.00     0.036 A 
HETATM   15 CL   UNL     1       8.954  21.387  54.804  1.00  0.00    -0.084 Cl
HETATM   16  C   UNL     1       7.236  23.452  55.091  1.00  0.00     0.056 A 
BRANCH  11  17
HETATM   17  O   UNL     1       6.054  26.068  52.787  1.00  0.00    -0.354 OA
HETATM   18  C   UNL     1       5.732  25.866  51.408  1.00  0.00     0.210 C 
ENDBRANCH  11  17
ENDBRANCH   7  10
ENDBRANCH   5   6
ENDBRANCH   1   3
BRANCH   1  19
HETATM   19  N   UNL     1       6.112  28.949  53.380  1.00  0.00    -0.262 N 
HETATM   20  C   UNL     1       4.969  29.418  52.765  1.00  0.00     0.327 C 
HETATM   21  O   UNL     1       3.919  29.703  53.334  1.00  0.00    -0.261 OA
HETATM   22  H   UNL     1       7.008  28.970  52.878  1.00  0.00     0.190 HD
BRANCH  20  23
HETATM   23  C   UNL     1       5.093  29.589  51.239  1.00  0.00     0.311 C 
HETATM   24  N   UNL     1       3.968  29.197  50.553  1.00  0.00    -0.349 N 
HETATM   25  H   UNL     1       3.159  28.913  51.101  1.00  0.00     0.163 HD
HETATM   26  O   UNL     1       6.111  30.038  50.734  1.00  0.00    -0.262 OA
BRANCH  24  27
HETATM   27  C   UNL     1       3.862  29.344  49.126  1.00  0.00     0.161 C 
BRANCH  27  28
HETATM   28  C   UNL     1       3.390  28.068  48.482  1.00  0.00    -0.041 A 
HETATM   29  C   UNL     1       2.043  27.892  48.141  1.00  0.00     0.009 A 
HETATM   30  C   UNL     1       1.611  26.701  47.553  1.00  0.00     0.001 A 
HETATM   31  C   UNL     1       2.519  25.674  47.307  1.00  0.00     0.000 A 
HETATM   32  C   UNL     1       3.861  25.834  47.649  1.00  0.00     0.001 A 
HETATM   33  C   UNL     1       4.294  27.024  48.234  1.00  0.00     0.009 A 
ENDBRANCH  27  28
ENDBRANCH  24  27
ENDBRANCH  20  23
ENDBRANCH   1  19
TORSDOF 8
ENDMDL
