MODEL 1
REMARK VINA RESULT:      -9.6      0.000      0.000
REMARK  7 active torsions:
REMARK  status: ('A' for Active; 'I' for Inactive)
REMARK    1  A    between atoms: O_2  and  C_3 
REMARK    2  A    between atoms: C_5  and  C_6 
REMARK    3  A    between atoms: C_6  and  N_7 
REMARK    4  A    between atoms: C_6  and  C_13 
REMARK    5  A    between atoms: C_13  and  N_14 
REMARK       I    between atoms: N_14  and  C_15 
REMARK       I    between atoms: C_15  and  N_16 
REMARK    6  A    between atoms: N_16  and  C_17 
REMARK    7  A    between atoms: C_18  and  O_19 
ROOT
HETATM    1  N   UNL     1       8.053  26.066  57.100  1.00  0.00    -0.341 N 
HETATM    2  C   UNL     1       7.233  25.101  56.598  1.00  0.00     0.316 C 
HETATM    3  N   UNL     1       7.611  24.668  55.368  1.00  0.00    -0.332 N 
HETATM    4  O   UNL     1       6.262  24.676  57.218  1.00  0.00    -0.247 OA
HETATM    5  H   UNL     1       8.761  26.410  56.464  1.00  0.00     0.164 HD
HETATM    6  H   UNL     1       8.216  25.261  54.820  1.00  0.00     0.165 HD
ENDROOT
BRANCH   1   7
HETATM    7  C   UNL     1       7.665  26.965  58.184  1.00  0.00     0.162 C 
BRANCH   7   8
HETATM    8  C   UNL     1       7.337  28.442  57.783  1.00  0.00     0.238 C 
BRANCH   8   9
HETATM    9  C   UNL     1       8.566  29.339  57.771  1.00  0.00    -0.023 A 
HETATM   10  C   UNL     1       8.562  30.533  58.513  1.00  0.00     0.046 A 
HETATM   11  C   UNL     1       9.654  31.407  58.503  1.00  0.00     0.068 A 
HETATM   12  C   UNL     1      10.782  31.084  57.753  1.00  0.00     0.037 A 
HETATM   13  C   UNL     1      10.812  29.898  57.019  1.00  0.00     0.003 A 
HETATM   14  C   UNL     1       9.717  29.034  57.024  1.00  0.00     0.009 A 
BRANCH  11  15
HETATM   15  O   UNL     1       9.485  32.532  59.260  1.00  0.00    -0.356 OA
HETATM   16  C   UNL     1       8.675  32.410  60.425  1.00  0.00     0.210 C 
ENDBRANCH  11  15
ENDBRANCH   8   9
BRANCH   8  17
HETATM   17  N   UNL     1       6.524  28.491  56.490  1.00  0.00    -0.061 N 
HETATM   18  H   UNL     1       7.001  27.808  55.868  1.00  0.00     0.280 HD
HETATM   19  C   UNL     1       6.492  29.774  55.715  1.00  0.00     0.236 C 
HETATM   20  C   UNL     1       5.185  30.425  56.108  1.00  0.00     0.029 C 
HETATM   21  C   UNL     1       4.238  29.275  56.404  1.00  0.00     0.029 C 
HETATM   22  C   UNL     1       5.095  28.034  56.600  1.00  0.00     0.236 C 
ENDBRANCH   8  17
ENDBRANCH   7   8
ENDBRANCH   1   7
BRANCH   3  23
HETATM   23  C   UNL     1       6.793  23.743  54.595  1.00  0.00     0.149 C 
HETATM   24  C   UNL     1       6.734  24.064  53.063  1.00  0.00     0.149 C 
HETATM   25  C   UNL     1       7.931  23.333  52.425  1.00  0.00     0.073 C 
HETATM   26  C   UNL     1       8.094  22.167  53.350  1.00  0.00    -0.047 A 
HETATM   27  C   UNL     1       7.440  22.387  54.570  1.00  0.00    -0.026 A 
HETATM   28  C   UNL     1       8.813  21.005  53.124  1.00  0.00     0.008 A 
HETATM   29  C   UNL     1       7.487  21.444  55.584  1.00  0.00     0.010 A 
HETATM   30  C   UNL     1       8.198  20.263  55.358  1.00  0.00     0.001 A 
HETATM   31  C   UNL     1       8.857  20.046  54.138  1.00  0.00     0.001 A 
BRANCH  24  32
HETATM   32  O   UNL     1       6.771  25.455  52.755  1.00  0.00    -0.393 OA
HETATM   33  H   UNL     1       6.966  25.914  53.594  1.00  0.00     0.210 HD
ENDBRANCH  24  32
ENDBRANCH   3  23
TORSDOF 7
ENDMDL
MODEL 2
REMARK VINA RESULT:      -9.3      1.713      2.870
REMARK  7 active torsions:
REMARK  status: ('A' for Active; 'I' for Inactive)
REMARK    1  A    between atoms: O_2  and  C_3 
REMARK    2  A    between atoms: C_5  and  C_6 
REMARK    3  A    between atoms: C_6  and  N_7 
REMARK    4  A    between atoms: C_6  and  C_13 
REMARK    5  A    between atoms: C_13  and  N_14 
REMARK       I    between atoms: N_14  and  C_15 
REMARK       I    between atoms: C_15  and  N_16 
REMARK    6  A    between atoms: N_16  and  C_17 
REMARK    7  A    between atoms: C_18  and  O_19 
ROOT
HETATM    1  N   UNL     1       5.819  26.721  55.083  1.00  0.00    -0.341 N 
HETATM    2  C   UNL     1       6.970  26.048  54.801  1.00  0.00     0.316 C 
HETATM    3  N   UNL     1       7.204  25.014  55.649  1.00  0.00    -0.332 N 
HETATM    4  O   UNL     1       7.700  26.359  53.864  1.00  0.00    -0.247 OA
HETATM    5  H   UNL     1       5.349  26.442  55.935  1.00  0.00     0.164 HD
HETATM    6  H   UNL     1       6.734  25.016  56.542  1.00  0.00     0.165 HD
ENDROOT
BRANCH   1   7
HETATM    7  C   UNL     1       5.542  28.072  54.603  1.00  0.00     0.162 C 
BRANCH   7   8
HETATM    8  C   UNL     1       5.668  29.227  55.654  1.00  0.00     0.238 C 
BRANCH   8   9
HETATM    9  C   UNL     1       7.055  29.314  56.273  1.00  0.00    -0.023 A 
HETATM   10  C   UNL     1       7.186  29.490  57.662  1.00  0.00     0.046 A 
HETATM   11  C   UNL     1       8.439  29.612  58.272  1.00  0.00     0.068 A 
HETATM   12  C   UNL     1       9.589  29.544  57.490  1.00  0.00     0.037 A 
HETATM   13  C   UNL     1       9.483  29.358  56.111  1.00  0.00     0.003 A 
HETATM   14  C   UNL     1       8.230  29.246  55.506  1.00  0.00     0.009 A 
BRANCH  11  15
HETATM   15  O   UNL     1       8.393  29.796  59.625  1.00  0.00    -0.356 OA
HETATM   16  C   UNL     1       9.154  30.878  60.154  1.00  0.00     0.210 C 
ENDBRANCH  11  15
ENDBRANCH   8   9
BRANCH   8  17
HETATM   17  N   UNL     1       5.164  30.549  55.077  1.00  0.00    -0.061 N 
HETATM   18  H   UNL     1       5.886  30.807  54.375  1.00  0.00     0.280 HD
HETATM   19  C   UNL     1       5.064  31.734  55.991  1.00  0.00     0.236 C 
HETATM   20  C   UNL     1       3.604  31.792  56.381  1.00  0.00     0.029 C 
HETATM   21  C   UNL     1       2.849  31.235  55.188  1.00  0.00     0.029 C 
HETATM   22  C   UNL     1       3.859  30.482  54.334  1.00  0.00     0.236 C 
ENDBRANCH   8  17
ENDBRANCH   7   8
ENDBRANCH   1   7
BRANCH   3  23
HETATM   23  C   UNL     1       8.447  24.255  55.610  1.00  0.00     0.149 C 
HETATM   24  C   UNL     1       8.867  23.640  56.988  1.00  0.00     0.149 C 
HETATM   25  C   UNL     1       8.182  22.263  57.070  1.00  0.00     0.073 C 
HETATM   26  C   UNL     1       8.093  21.888  55.624  1.00  0.00    -0.047 A 
HETATM   27  C   UNL     1       8.258  23.007  54.795  1.00  0.00    -0.026 A 
HETATM   28  C   UNL     1       7.843  20.635  55.092  1.00  0.00     0.008 A 
HETATM   29  C   UNL     1       8.184  22.889  53.417  1.00  0.00     0.010 A 
HETATM   30  C   UNL     1       7.946  21.626  52.871  1.00  0.00     0.001 A 
HETATM   31  C   UNL     1       7.776  20.507  53.702  1.00  0.00     0.001 A 
BRANCH  24  32
HETATM   32  O   UNL     1       8.524  24.442  58.115  1.00  0.00    -0.393 OA
HETATM   33  H   UNL     1       9.350  24.875  58.403  1.00  0.00     0.210 HD
ENDBRANCH  24  32
ENDBRANCH   3  23
TORSDOF 7
ENDMDL
MODEL 3
REMARK VINA RESULT:      -9.1      2.286      8.519
REMARK  7 active torsions:
REMARK  status: ('A' for Active; 'I' for Inactive)
REMARK    1  A    between atoms: O_2  and  C_3 
REMARK    2  A    between atoms: C_5  and  C_6 
REMARK    3  A    between atoms: C_6  and  N_7 
REMARK    4  A    between atoms: C_6  and  C_13 
REMARK    5  A    between atoms: C_13  and  N_14 
REMARK       I    between atoms: N_14  and  C_15 
REMARK       I    between atoms: C_15  and  N_16 
REMARK    6  A    between atoms: N_16  and  C_17 
REMARK    7  A    between atoms: C_18  and  O_19 
ROOT
HETATM    1  N   UNL     1       7.394  27.030  57.774  1.00  0.00    -0.341 N 
HETATM    2  C   UNL     1       7.975  28.262  57.776  1.00  0.00     0.316 C 
HETATM    3  N   UNL     1       7.159  29.235  58.256  1.00  0.00    -0.332 N 
HETATM    4  O   UNL     1       9.124  28.446  57.386  1.00  0.00    -0.247 OA
HETATM    5  H   UNL     1       6.412  27.011  58.022  1.00  0.00     0.164 HD
HETATM    6  H   UNL     1       6.165  29.060  58.268  1.00  0.00     0.165 HD
ENDROOT
BRANCH   1   7
HETATM    7  C   UNL     1       7.878  25.915  56.964  1.00  0.00     0.162 C 
BRANCH   7   8
HETATM    8  C   UNL     1       7.436  25.898  55.462  1.00  0.00     0.238 C 
BRANCH   8   9
HETATM    9  C   UNL     1       7.631  24.541  54.803  1.00  0.00    -0.023 A 
HETATM   10  C   UNL     1       7.509  23.371  55.574  1.00  0.00     0.046 A 
HETATM   11  C   UNL     1       7.716  22.102  55.021  1.00  0.00     0.068 A 
HETATM   12  C   UNL     1       8.036  21.990  53.670  1.00  0.00     0.037 A 
HETATM   13  C   UNL     1       8.151  23.137  52.884  1.00  0.00     0.003 A 
HETATM   14  C   UNL     1       7.953  24.400  53.443  1.00  0.00     0.009 A 
BRANCH  11  15
HETATM   15  O   UNL     1       7.579  21.070  55.906  1.00  0.00    -0.356 OA
HETATM   16  C   UNL     1       8.736  20.700  56.649  1.00  0.00     0.210 C 
ENDBRANCH  11  15
ENDBRANCH   8   9
BRANCH   8  17
HETATM   17  N   UNL     1       6.026  26.466  55.301  1.00  0.00    -0.061 N 
HETATM   18  H   UNL     1       5.670  26.533  56.275  1.00  0.00     0.280 HD
HETATM   19  C   UNL     1       5.007  25.648  54.565  1.00  0.00     0.236 C 
HETATM   20  C   UNL     1       4.986  26.230  53.169  1.00  0.00     0.029 C 
HETATM   21  C   UNL     1       5.323  27.700  53.344  1.00  0.00     0.029 C 
HETATM   22  C   UNL     1       5.943  27.853  54.725  1.00  0.00     0.236 C 
ENDBRANCH   8  17
ENDBRANCH   7   8
ENDBRANCH   1   7
BRANCH   3  23
HETATM   23  C   UNL     1       7.535  30.642  58.214  1.00  0.00     0.149 C 
HETATM   24  C   UNL     1       6.335  31.620  57.970  1.00  0.00     0.149 C 
HETATM   25  C   UNL     1       5.761  31.950  59.361  1.00  0.00     0.073 C 
HETATM   26  C   UNL     1       6.977  31.815  60.224  1.00  0.00    -0.047 A 
HETATM   27  C   UNL     1       7.986  31.091  59.574  1.00  0.00    -0.026 A 
HETATM   28  C   UNL     1       7.148  32.279  61.517  1.00  0.00     0.008 A 
HETATM   29  C   UNL     1       9.191  30.825  60.206  1.00  0.00     0.010 A 
HETATM   30  C   UNL     1       9.377  31.301  61.506  1.00  0.00     0.001 A 
HETATM   31  C   UNL     1       8.363  32.021  62.157  1.00  0.00     0.001 A 
BRANCH  24  32
HETATM   32  O   UNL     1       5.320  31.098  57.116  1.00  0.00    -0.393 OA
HETATM   33  H   UNL     1       4.494  31.554  57.365  1.00  0.00     0.210 HD
ENDBRANCH  24  32
ENDBRANCH   3  23
TORSDOF 7
ENDMDL
MODEL 4
REMARK VINA RESULT:      -9.0      2.373      3.826
REMARK  7 active torsions:
REMARK  status: ('A' for Active; 'I' for Inactive)
REMARK    1  A    between atoms: O_2  and  C_3 
REMARK    2  A    between atoms: C_5  and  C_6 
REMARK    3  A    between atoms: C_6  and  N_7 
REMARK    4  A    between atoms: C_6  and  C_13 
REMARK    5  A    between atoms: C_13  and  N_14 
REMARK       I    between atoms: N_14  and  C_15 
REMARK       I    between atoms: C_15  and  N_16 
REMARK    6  A    between atoms: N_16  and  C_17 
REMARK    7  A    between atoms: C_18  and  O_19 
ROOT
HETATM    1  N   UNL     1       5.301  25.901  54.395  1.00  0.00    -0.341 N 
HETATM    2  C   UNL     1       6.564  25.408  54.260  1.00  0.00     0.316 C 
HETATM    3  N   UNL     1       6.939  24.612  55.293  1.00  0.00    -0.332 N 
HETATM    4  O   UNL     1       7.268  25.665  53.287  1.00  0.00    -0.247 OA
HETATM    5  H   UNL     1       4.850  25.706  55.281  1.00  0.00     0.164 HD
HETATM    6  H   UNL     1       6.437  24.696  56.165  1.00  0.00     0.165 HD
ENDROOT
BRANCH   1   7
HETATM    7  C   UNL     1       4.810  27.065  53.662  1.00  0.00     0.162 C 
BRANCH   7   8
HETATM    8  C   UNL     1       4.954  28.452  54.374  1.00  0.00     0.238 C 
BRANCH   8   9
HETATM    9  C   UNL     1       6.054  28.466  55.424  1.00  0.00    -0.023 A 
HETATM   10  C   UNL     1       7.338  28.924  55.080  1.00  0.00     0.046 A 
HETATM   11  C   UNL     1       8.391  28.922  56.001  1.00  0.00     0.068 A 
HETATM   12  C   UNL     1       8.163  28.468  57.298  1.00  0.00     0.037 A 
HETATM   13  C   UNL     1       6.893  28.020  57.665  1.00  0.00     0.003 A 
HETATM   14  C   UNL     1       5.849  28.016  56.740  1.00  0.00     0.009 A 
BRANCH  11  15
HETATM   15  O   UNL     1       9.578  29.380  55.505  1.00  0.00    -0.356 OA
HETATM   16  C   UNL     1      10.591  29.705  56.452  1.00  0.00     0.210 C 
ENDBRANCH  11  15
ENDBRANCH   8   9
BRANCH   8  17
HETATM   17  N   UNL     1       5.062  29.583  53.352  1.00  0.00    -0.061 N 
HETATM   18  H   UNL     1       5.886  30.132  53.670  1.00  0.00     0.280 HD
HETATM   19  C   UNL     1       3.940  30.575  53.265  1.00  0.00     0.236 C 
HETATM   20  C   UNL     1       3.110  30.109  52.089  1.00  0.00     0.029 C 
HETATM   21  C   UNL     1       4.096  29.452  51.139  1.00  0.00     0.029 C 
HETATM   22  C   UNL     1       5.357  29.161  51.939  1.00  0.00     0.236 C 
ENDBRANCH   8  17
ENDBRANCH   7   8
ENDBRANCH   1   7
BRANCH   3  23
HETATM   23  C   UNL     1       8.297  24.098  55.413  1.00  0.00     0.149 C 
HETATM   24  C   UNL     1       8.735  23.779  56.883  1.00  0.00     0.149 C 
HETATM   25  C   UNL     1       8.302  22.326  57.154  1.00  0.00     0.073 C 
HETATM   26  C   UNL     1       8.369  21.735  55.780  1.00  0.00    -0.047 A 
HETATM   27  C   UNL     1       8.382  22.732  54.795  1.00  0.00    -0.026 A 
HETATM   28  C   UNL     1       8.378  20.392  55.440  1.00  0.00     0.008 A 
HETATM   29  C   UNL     1       8.414  22.403  53.449  1.00  0.00     0.010 A 
HETATM   30  C   UNL     1       8.438  21.051  53.098  1.00  0.00     0.001 A 
HETATM   31  C   UNL     1       8.419  20.054  54.085  1.00  0.00     0.001 A 
BRANCH  24  32
HETATM   32  O   UNL     1       8.187  24.660  57.861  1.00  0.00    -0.393 OA
HETATM   33  H   UNL     1       7.217  24.598  57.769  1.00  0.00     0.210 HD
ENDBRANCH  24  32
ENDBRANCH   3  23
TORSDOF 7
ENDMDL
MODEL 5
REMARK VINA RESULT:      -8.9      2.279      8.574
REMARK  7 active torsions:
REMARK  status: ('A' for Active; 'I' for Inactive)
REMARK    1  A    between atoms: O_2  and  C_3 
REMARK    2  A    between atoms: C_5  and  C_6 
REMARK    3  A    between atoms: C_6  and  N_7 
REMARK    4  A    between atoms: C_6  and  C_13 
REMARK    5  A    between atoms: C_13  and  N_14 
REMARK       I    between atoms: N_14  and  C_15 
REMARK       I    between atoms: C_15  and  N_16 
REMARK    6  A    between atoms: N_16  and  C_17 
REMARK    7  A    between atoms: C_18  and  O_19 
ROOT
HETATM    1  N   UNL     1       7.462  27.822  57.713  1.00  0.00    -0.341 N 
HETATM    2  C   UNL     1       7.943  29.090  57.849  1.00  0.00     0.316 C 
HETATM    3  N   UNL     1       7.099  29.909  58.525  1.00  0.00    -0.332 N 
HETATM    4  O   UNL     1       9.036  29.429  57.404  1.00  0.00    -0.247 OA
HETATM    5  H   UNL     1       6.511  27.681  58.029  1.00  0.00     0.164 HD
HETATM    6  H   UNL     1       6.126  29.645  58.587  1.00  0.00     0.165 HD
ENDROOT
BRANCH   1   7
HETATM    7  C   UNL     1       7.960  26.877  56.716  1.00  0.00     0.162 C 
BRANCH   7   8
HETATM    8  C   UNL     1       7.361  27.002  55.275  1.00  0.00     0.238 C 
BRANCH   8   9
HETATM    9  C   UNL     1       7.538  25.737  54.449  1.00  0.00    -0.023 A 
HETATM   10  C   UNL     1       7.509  24.483  55.086  1.00  0.00     0.046 A 
HETATM   11  C   UNL     1       7.702  23.294  54.375  1.00  0.00     0.068 A 
HETATM   12  C   UNL     1       7.915  23.347  52.999  1.00  0.00     0.037 A 
HETATM   13  C   UNL     1       7.936  24.579  52.346  1.00  0.00     0.003 A 
HETATM   14  C   UNL     1       7.752  25.763  53.061  1.00  0.00     0.009 A 
BRANCH  11  15
HETATM   15  O   UNL     1       7.664  22.164  55.142  1.00  0.00    -0.356 OA
HETATM   16  C   UNL     1       8.260  22.240  56.433  1.00  0.00     0.210 C 
ENDBRANCH  11  15
ENDBRANCH   8   9
BRANCH   8  17
HETATM   17  N   UNL     1       5.922  27.513  55.323  1.00  0.00    -0.061 N 
HETATM   18  H   UNL     1       5.666  27.447  56.328  1.00  0.00     0.280 HD
HETATM   19  C   UNL     1       4.864  26.737  54.596  1.00  0.00     0.236 C 
HETATM   20  C   UNL     1       4.677  27.478  53.291  1.00  0.00     0.029 C 
HETATM   21  C   UNL     1       4.973  28.932  53.611  1.00  0.00     0.029 C 
HETATM   22  C   UNL     1       5.727  28.952  54.932  1.00  0.00     0.236 C 
ENDBRANCH   8  17
ENDBRANCH   7   8
ENDBRANCH   1   7
BRANCH   3  23
HETATM   23  C   UNL     1       7.357  31.337  58.658  1.00  0.00     0.149 C 
HETATM   24  C   UNL     1       6.069  32.228  58.635  1.00  0.00     0.149 C 
HETATM   25  C   UNL     1       5.580  32.314  60.093  1.00  0.00     0.073 C 
HETATM   26  C   UNL     1       6.865  32.172  60.846  1.00  0.00    -0.047 A 
HETATM   27  C   UNL     1       7.876  31.636  60.036  1.00  0.00    -0.026 A 
HETATM   28  C   UNL     1       7.098  32.469  62.179  1.00  0.00     0.008 A 
HETATM   29  C   UNL     1       9.142  31.395  60.544  1.00  0.00     0.010 A 
HETATM   30  C   UNL     1       9.390  31.705  61.883  1.00  0.00     0.001 A 
HETATM   31  C   UNL     1       8.375  32.236  62.695  1.00  0.00     0.001 A 
BRANCH  24  32
HETATM   32  O   UNL     1       5.035  31.738  57.784  1.00  0.00    -0.393 OA
HETATM   33  H   UNL     1       5.140  30.768  57.759  1.00  0.00     0.210 HD
ENDBRANCH  24  32
ENDBRANCH   3  23
TORSDOF 7
ENDMDL
MODEL 6
REMARK VINA RESULT:      -8.9      4.841      7.931
REMARK  7 active torsions:
REMARK  status: ('A' for Active; 'I' for Inactive)
REMARK    1  A    between atoms: O_2  and  C_3 
REMARK    2  A    between atoms: C_5  and  C_6 
REMARK    3  A    between atoms: C_6  and  N_7 
REMARK    4  A    between atoms: C_6  and  C_13 
REMARK    5  A    between atoms: C_13  and  N_14 
REMARK       I    between atoms: N_14  and  C_15 
REMARK       I    between atoms: C_15  and  N_16 
REMARK    6  A    between atoms: N_16  and  C_17 
REMARK    7  A    between atoms: C_18  and  O_19 
ROOT
HETATM    1  N   UNL     1       4.373  26.145  52.525  1.00  0.00    -0.341 N 
HETATM    2  C   UNL     1       4.899  26.060  51.270  1.00  0.00     0.316 C 
HETATM    3  N   UNL     1       4.105  26.618  50.321  1.00  0.00    -0.332 N 
HETATM    4  O   UNL     1       5.986  25.535  51.048  1.00  0.00    -0.247 OA
HETATM    5  H   UNL     1       3.429  26.507  52.577  1.00  0.00     0.164 HD
HETATM    6  H   UNL     1       3.127  26.749  50.536  1.00  0.00     0.165 HD
ENDROOT
BRANCH   1   7
HETATM    7  C   UNL     1       4.806  25.301  53.635  1.00  0.00     0.162 C 
BRANCH   7   8
HETATM    8  C   UNL     1       5.793  25.950  54.663  1.00  0.00     0.238 C 
BRANCH   8   9
HETATM    9  C   UNL     1       6.947  25.031  55.037  1.00  0.00    -0.023 A 
HETATM   10  C   UNL     1       7.434  24.110  54.094  1.00  0.00     0.046 A 
HETATM   11  C   UNL     1       8.468  23.219  54.403  1.00  0.00     0.068 A 
HETATM   12  C   UNL     1       9.042  23.253  55.671  1.00  0.00     0.037 A 
HETATM   13  C   UNL     1       8.582  24.167  56.619  1.00  0.00     0.003 A 
HETATM   14  C   UNL     1       7.544  25.047  56.309  1.00  0.00     0.009 A 
BRANCH  11  15
HETATM   15  O   UNL     1       8.812  22.376  53.384  1.00  0.00    -0.356 OA
HETATM   16  C   UNL     1       8.284  21.054  53.434  1.00  0.00     0.210 C 
ENDBRANCH  11  15
ENDBRANCH   8   9
BRANCH   8  17
HETATM   17  N   UNL     1       6.234  27.337  54.197  1.00  0.00    -0.061 N 
HETATM   18  H   UNL     1       5.869  27.404  53.226  1.00  0.00     0.280 HD
HETATM   19  C   UNL     1       7.703  27.619  54.084  1.00  0.00     0.236 C 
HETATM   20  C   UNL     1       8.048  28.359  55.357  1.00  0.00     0.029 C 
HETATM   21  C   UNL     1       6.790  29.123  55.729  1.00  0.00     0.029 C 
HETATM   22  C   UNL     1       5.643  28.497  54.950  1.00  0.00     0.236 C 
ENDBRANCH   8  17
ENDBRANCH   7   8
ENDBRANCH   1   7
BRANCH   3  23
HETATM   23  C   UNL     1       4.413  26.510  48.901  1.00  0.00     0.149 C 
HETATM   24  C   UNL     1       3.428  25.595  48.098  1.00  0.00     0.149 C 
HETATM   25  C   UNL     1       2.271  26.504  47.643  1.00  0.00     0.073 C 
HETATM   26  C   UNL     1       2.960  27.828  47.531  1.00  0.00    -0.047 A 
HETATM   27  C   UNL     1       4.178  27.831  48.226  1.00  0.00    -0.026 A 
HETATM   28  C   UNL     1       2.506  28.963  46.880  1.00  0.00     0.008 A 
HETATM   29  C   UNL     1       4.967  28.969  48.276  1.00  0.00     0.010 A 
HETATM   30  C   UNL     1       4.522  30.114  47.610  1.00  0.00     0.001 A 
HETATM   31  C   UNL     1       3.300  30.111  46.919  1.00  0.00     0.001 A 
BRANCH  24  32
HETATM   32  O   UNL     1       2.933  24.480  48.835  1.00  0.00    -0.393 OA
HETATM   33  H   UNL     1       2.212  24.823  49.396  1.00  0.00     0.210 HD
ENDBRANCH  24  32
ENDBRANCH   3  23
TORSDOF 7
ENDMDL
MODEL 7
REMARK VINA RESULT:      -8.9      4.054      7.171
REMARK  7 active torsions:
REMARK  status: ('A' for Active; 'I' for Inactive)
REMARK    1  A    between atoms: O_2  and  C_3 
REMARK    2  A    between atoms: C_5  and  C_6 
REMARK    3  A    between atoms: C_6  and  N_7 
REMARK    4  A    between atoms: C_6  and  C_13 
REMARK    5  A    between atoms: C_13  and  N_14 
REMARK       I    between atoms: N_14  and  C_15 
REMARK       I    between atoms: C_15  and  N_16 
REMARK    6  A    between atoms: N_16  and  C_17 
REMARK    7  A    between atoms: C_18  and  O_19 
ROOT
HETATM    1  N   UNL     1       5.425  24.906  52.713  1.00  0.00    -0.341 N 
HETATM    2  C   UNL     1       6.706  24.505  52.948  1.00  0.00     0.316 C 
HETATM    3  N   UNL     1       6.970  24.311  54.265  1.00  0.00    -0.332 N 
HETATM    4  O   UNL     1       7.517  24.334  52.043  1.00  0.00    -0.247 OA
HETATM    5  H   UNL     1       4.875  25.111  53.537  1.00  0.00     0.164 HD
HETATM    6  H   UNL     1       6.363  24.752  54.942  1.00  0.00     0.165 HD
ENDROOT
BRANCH   1   7
HETATM    7  C   UNL     1       5.002  25.554  51.474  1.00  0.00     0.162 C 
BRANCH   7   8
HETATM    8  C   UNL     1       4.954  27.119  51.485  1.00  0.00     0.238 C 
BRANCH   8   9
HETATM    9  C   UNL     1       4.854  27.718  50.091  1.00  0.00    -0.023 A 
HETATM   10  C   UNL     1       4.228  26.988  49.065  1.00  0.00     0.046 A 
HETATM   11  C   UNL     1       4.145  27.482  47.758  1.00  0.00     0.068 A 
HETATM   12  C   UNL     1       4.681  28.733  47.465  1.00  0.00     0.037 A 
HETATM   13  C   UNL     1       5.296  29.479  48.470  1.00  0.00     0.003 A 
HETATM   14  C   UNL     1       5.385  28.979  49.769  1.00  0.00     0.009 A 
BRANCH  11  15
HETATM   15  O   UNL     1       3.523  26.643  46.876  1.00  0.00    -0.356 OA
HETATM   16  C   UNL     1       2.962  25.447  47.409  1.00  0.00     0.210 C 
ENDBRANCH  11  15
ENDBRANCH   8   9
BRANCH   8  17
HETATM   17  N   UNL     1       3.886  27.627  52.454  1.00  0.00    -0.061 N 
HETATM   18  H   UNL     1       3.230  26.825  52.546  1.00  0.00     0.280 HD
HETATM   19  C   UNL     1       3.033  28.786  52.031  1.00  0.00     0.236 C 
HETATM   20  C   UNL     1       3.663  29.987  52.702  1.00  0.00     0.029 C 
HETATM   21  C   UNL     1       4.266  29.455  53.990  1.00  0.00     0.029 C 
HETATM   22  C   UNL     1       4.363  27.944  53.844  1.00  0.00     0.236 C 
ENDBRANCH   8  17
ENDBRANCH   7   8
ENDBRANCH   1   7
BRANCH   3  23
HETATM   23  C   UNL     1       8.314  24.018  54.745  1.00  0.00     0.149 C 
HETATM   24  C   UNL     1       8.607  24.538  56.193  1.00  0.00     0.149 C 
HETATM   25  C   UNL     1       8.163  23.415  57.150  1.00  0.00     0.073 C 
HETATM   26  C   UNL     1       8.372  22.200  56.300  1.00  0.00    -0.047 A 
HETATM   27  C   UNL     1       8.474  22.538  54.943  1.00  0.00    -0.026 A 
HETATM   28  C   UNL     1       8.428  20.881  56.715  1.00  0.00     0.008 A 
HETATM   29  C   UNL     1       8.642  21.559  53.977  1.00  0.00     0.010 A 
HETATM   30  C   UNL     1       8.714  20.226  54.389  1.00  0.00     0.001 A 
HETATM   31  C   UNL     1       8.606  19.890  55.747  1.00  0.00     0.001 A 
BRANCH  24  32
HETATM   32  O   UNL     1       7.956  25.764  56.517  1.00  0.00    -0.393 OA
HETATM   33  H   UNL     1       7.755  26.198  55.667  1.00  0.00     0.210 HD
ENDBRANCH  24  32
ENDBRANCH   3  23
TORSDOF 7
ENDMDL
MODEL 8
REMARK VINA RESULT:      -8.7      4.566      8.297
REMARK  7 active torsions:
REMARK  status: ('A' for Active; 'I' for Inactive)
REMARK    1  A    between atoms: O_2  and  C_3 
REMARK    2  A    between atoms: C_5  and  C_6 
REMARK    3  A    between atoms: C_6  and  N_7 
REMARK    4  A    between atoms: C_6  and  C_13 
REMARK    5  A    between atoms: C_13  and  N_14 
REMARK       I    between atoms: N_14  and  C_15 
REMARK       I    between atoms: C_15  and  N_16 
REMARK    6  A    between atoms: N_16  and  C_17 
REMARK    7  A    between atoms: C_18  and  O_19 
ROOT
HETATM    1  N   UNL     1       4.341  26.290  52.596  1.00  0.00    -0.341 N 
HETATM    2  C   UNL     1       4.817  26.548  51.346  1.00  0.00     0.316 C 
HETATM    3  N   UNL     1       4.179  27.579  50.736  1.00  0.00    -0.332 N 
HETATM    4  O   UNL     1       5.736  25.905  50.848  1.00  0.00    -0.247 OA
HETATM    5  H   UNL     1       3.517  26.814  52.866  1.00  0.00     0.164 HD
HETATM    6  H   UNL     1       3.267  27.845  51.079  1.00  0.00     0.165 HD
ENDROOT
BRANCH   1   7
HETATM    7  C   UNL     1       4.558  25.024  53.292  1.00  0.00     0.162 C 
BRANCH   7   8
HETATM    8  C   UNL     1       5.596  25.041  54.465  1.00  0.00     0.238 C 
BRANCH   8   9
HETATM    9  C   UNL     1       6.717  24.029  54.278  1.00  0.00    -0.023 A 
HETATM   10  C   UNL     1       7.179  23.293  55.383  1.00  0.00     0.046 A 
HETATM   11  C   UNL     1       8.232  22.378  55.267  1.00  0.00     0.068 A 
HETATM   12  C   UNL     1       8.830  22.178  54.026  1.00  0.00     0.037 A 
HETATM   13  C   UNL     1       8.379  22.890  52.913  1.00  0.00     0.003 A 
HETATM   14  C   UNL     1       7.335  23.808  53.036  1.00  0.00     0.009 A 
BRANCH  11  15
HETATM   15  O   UNL     1       8.574  21.759  56.436  1.00  0.00    -0.356 OA
HETATM   16  C   UNL     1       9.090  20.435  56.338  1.00  0.00     0.210 C 
ENDBRANCH  11  15
ENDBRANCH   8   9
BRANCH   8  17
HETATM   17  N   UNL     1       6.086  26.462  54.742  1.00  0.00    -0.061 N 
HETATM   18  H   UNL     1       5.960  26.952  53.834  1.00  0.00     0.280 HD
HETATM   19  C   UNL     1       7.528  26.662  55.100  1.00  0.00     0.236 C 
HETATM   20  C   UNL     1       7.533  26.779  56.608  1.00  0.00     0.029 C 
HETATM   21  C   UNL     1       6.196  27.404  56.966  1.00  0.00     0.029 C 
HETATM   22  C   UNL     1       5.292  27.241  55.754  1.00  0.00     0.236 C 
ENDBRANCH   8  17
ENDBRANCH   7   8
ENDBRANCH   1   7
BRANCH   3  23
HETATM   23  C   UNL     1       4.438  27.928  49.345  1.00  0.00     0.149 C 
HETATM   24  C   UNL     1       3.184  27.823  48.413  1.00  0.00     0.149 C 
HETATM   25  C   UNL     1       2.479  29.190  48.487  1.00  0.00     0.073 C 
HETATM   26  C   UNL     1       3.631  30.104  48.765  1.00  0.00    -0.047 A 
HETATM   27  C   UNL     1       4.744  29.394  49.235  1.00  0.00    -0.026 A 
HETATM   28  C   UNL     1       3.662  31.483  48.641  1.00  0.00     0.008 A 
HETATM   29  C   UNL     1       5.914  30.052  49.581  1.00  0.00     0.010 A 
HETATM   30  C   UNL     1       5.959  31.441  49.445  1.00  0.00     0.001 A 
HETATM   31  C   UNL     1       4.841  32.151  48.979  1.00  0.00     0.001 A 
BRANCH  24  32
HETATM   32  O   UNL     1       2.285  26.772  48.758  1.00  0.00    -0.393 OA
HETATM   33  H   UNL     1       1.865  27.039  49.598  1.00  0.00     0.210 HD
ENDBRANCH  24  32
ENDBRANCH   3  23
TORSDOF 7
ENDMDL
MODEL 9
REMARK VINA RESULT:      -8.7      1.781      2.641
REMARK  7 active torsions:
REMARK  status: ('A' for Active; 'I' for Inactive)
REMARK    1  A    between atoms: O_2  and  C_3 
REMARK    2  A    between atoms: C_5  and  C_6 
REMARK    3  A    between atoms: C_6  and  N_7 
REMARK    4  A    between atoms: C_6  and  C_13 
REMARK    5  A    between atoms: C_13  and  N_14 
REMARK       I    between atoms: N_14  and  C_15 
REMARK       I    between atoms: C_15  and  N_16 
REMARK    6  A    between atoms: N_16  and  C_17 
REMARK    7  A    between atoms: C_18  and  O_19 
ROOT
HETATM    1  N   UNL     1       7.045  28.597  56.179  1.00  0.00    -0.341 N 
HETATM    2  C   UNL     1       6.213  27.519  56.130  1.00  0.00     0.316 C 
HETATM    3  N   UNL     1       6.781  26.435  55.545  1.00  0.00    -0.332 N 
HETATM    4  O   UNL     1       5.073  27.549  56.584  1.00  0.00    -0.247 OA
HETATM    5  H   UNL     1       7.924  28.492  55.687  1.00  0.00     0.164 HD
HETATM    6  H   UNL     1       7.582  26.580  54.948  1.00  0.00     0.165 HD
ENDROOT
BRANCH   1   7
HETATM    7  C   UNL     1       6.575  29.966  56.378  1.00  0.00     0.162 C 
BRANCH   7   8
HETATM    8  C   UNL     1       6.191  30.367  57.842  1.00  0.00     0.238 C 
BRANCH   8   9
HETATM    9  C   UNL     1       7.366  30.929  58.629  1.00  0.00    -0.023 A 
HETATM   10  C   UNL     1       7.129  31.636  59.821  1.00  0.00     0.046 A 
HETATM   11  C   UNL     1       8.174  32.202  60.560  1.00  0.00     0.068 A 
HETATM   12  C   UNL     1       9.485  32.052  60.114  1.00  0.00     0.037 A 
HETATM   13  C   UNL     1       9.744  31.344  58.940  1.00  0.00     0.003 A 
HETATM   14  C   UNL     1       8.698  30.789  58.202  1.00  0.00     0.009 A 
BRANCH  11  15
HETATM   15  O   UNL     1       7.775  32.872  61.682  1.00  0.00    -0.356 OA
HETATM   16  C   UNL     1       8.126  32.295  62.936  1.00  0.00     0.210 C 
ENDBRANCH  11  15
ENDBRANCH   8   9
BRANCH   8  17
HETATM   17  N   UNL     1       4.953  31.262  57.858  1.00  0.00    -0.061 N 
HETATM   18  H   UNL     1       5.112  31.897  58.666  1.00  0.00     0.280 HD
HETATM   19  C   UNL     1       3.618  30.629  58.113  1.00  0.00     0.236 C 
HETATM   20  C   UNL     1       3.007  30.461  56.740  1.00  0.00     0.029 C 
HETATM   21  C   UNL     1       3.558  31.609  55.913  1.00  0.00     0.029 C 
HETATM   22  C   UNL     1       4.772  32.147  56.655  1.00  0.00     0.236 C 
ENDBRANCH   8  17
ENDBRANCH   7   8
ENDBRANCH   1   7
BRANCH   3  23
HETATM   23  C   UNL     1       6.018  25.225  55.266  1.00  0.00     0.149 C 
HETATM   24  C   UNL     1       5.145  25.301  53.968  1.00  0.00     0.149 C 
HETATM   25  C   UNL     1       6.053  24.838  52.813  1.00  0.00     0.073 C 
HETATM   26  C   UNL     1       6.980  23.900  53.521  1.00  0.00    -0.047 A 
HETATM   27  C   UNL     1       6.952  24.104  54.908  1.00  0.00    -0.026 A 
HETATM   28  C   UNL     1       7.819  22.955  52.954  1.00  0.00     0.008 A 
HETATM   29  C   UNL     1       7.758  23.359  55.753  1.00  0.00     0.010 A 
HETATM   30  C   UNL     1       8.596  22.394  55.191  1.00  0.00     0.001 A 
HETATM   31  C   UNL     1       8.627  22.194  53.801  1.00  0.00     0.001 A 
BRANCH  24  32
HETATM   32  O   UNL     1       4.608  26.594  53.700  1.00  0.00    -0.393 OA
HETATM   33  H   UNL     1       4.916  27.172  54.423  1.00  0.00     0.210 HD
ENDBRANCH  24  32
ENDBRANCH   3  23
TORSDOF 7
ENDMDL
MODEL 10
REMARK VINA RESULT:      -8.6      1.622      2.565
REMARK  7 active torsions:
REMARK  status: ('A' for Active; 'I' for Inactive)
REMARK    1  A    between atoms: O_2  and  C_3 
REMARK    2  A    between atoms: C_5  and  C_6 
REMARK    3  A    between atoms: C_6  and  N_7 
REMARK    4  A    between atoms: C_6  and  C_13 
REMARK    5  A    between atoms: C_13  and  N_14 
REMARK       I    between atoms: N_14  and  C_15 
REMARK       I    between atoms: C_15  and  N_16 
REMARK    6  A    between atoms: N_16  and  C_17 
REMARK    7  A    between atoms: C_18  and  O_19 
ROOT
HETATM    1  N   UNL     1       7.020  28.148  56.003  1.00  0.00    -0.341 N 
HETATM    2  C   UNL     1       6.219  27.223  55.401  1.00  0.00     0.316 C 
HETATM    3  N   UNL     1       6.863  26.063  55.121  1.00  0.00    -0.332 N 
HETATM    4  O   UNL     1       5.036  27.440  55.158  1.00  0.00    -0.247 OA
HETATM    5  H   UNL     1       8.000  27.900  56.064  1.00  0.00     0.164 HD
HETATM    6  H   UNL     1       7.872  26.077  55.076  1.00  0.00     0.165 HD
ENDROOT
BRANCH   1   7
HETATM    7  C   UNL     1       6.709  29.574  56.044  1.00  0.00     0.162 C 
BRANCH   7   8
HETATM    8  C   UNL     1       6.301  30.160  57.438  1.00  0.00     0.238 C 
BRANCH   8   9
HETATM    9  C   UNL     1       7.474  30.775  58.187  1.00  0.00    -0.023 A 
HETATM   10  C   UNL     1       8.786  30.528  57.746  1.00  0.00     0.046 A 
HETATM   11  C   UNL     1       9.897  31.041  58.423  1.00  0.00     0.068 A 
HETATM   12  C   UNL     1       9.704  31.828  59.555  1.00  0.00     0.037 A 
HETATM   13  C   UNL     1       8.410  32.096  60.004  1.00  0.00     0.003 A 
HETATM   14  C   UNL     1       7.305  31.574  59.331  1.00  0.00     0.009 A 
BRANCH  11  15
HETATM   15  O   UNL     1      11.101  30.695  57.877  1.00  0.00    -0.356 OA
HETATM   16  C   UNL     1      11.089  29.677  56.881  1.00  0.00     0.210 C 
ENDBRANCH  11  15
ENDBRANCH   8   9
BRANCH   8  17
HETATM   17  N   UNL     1       5.095  31.090  57.309  1.00  0.00    -0.061 N 
HETATM   18  H   UNL     1       5.376  31.940  57.837  1.00  0.00     0.280 HD
HETATM   19  C   UNL     1       3.794  30.660  57.920  1.00  0.00     0.236 C 
HETATM   20  C   UNL     1       2.998  30.097  56.764  1.00  0.00     0.029 C 
HETATM   21  C   UNL     1       3.455  30.879  55.545  1.00  0.00     0.029 C 
HETATM   22  C   UNL     1       4.770  31.548  55.914  1.00  0.00     0.236 C 
ENDBRANCH   8  17
ENDBRANCH   7   8
ENDBRANCH   1   7
BRANCH   3  23
HETATM   23  C   UNL     1       6.229  24.998  54.354  1.00  0.00     0.149 C 
HETATM   24  C   UNL     1       6.252  25.223  52.803  1.00  0.00     0.149 C 
HETATM   25  C   UNL     1       7.576  24.616  52.302  1.00  0.00     0.073 C 
HETATM   26  C   UNL     1       7.809  23.535  53.310  1.00  0.00    -0.047 A 
HETATM   27  C   UNL     1       7.039  23.738  54.464  1.00  0.00    -0.026 A 
HETATM   28  C   UNL     1       8.682  22.464  53.211  1.00  0.00     0.008 A 
HETATM   29  C   UNL     1       7.123  22.866  55.538  1.00  0.00     0.010 A 
HETATM   30  C   UNL     1       7.990  21.776  55.441  1.00  0.00     0.001 A 
HETATM   31  C   UNL     1       8.765  21.577  54.287  1.00  0.00     0.001 A 
BRANCH  24  32
HETATM   32  O   UNL     1       6.140  26.588  52.409  1.00  0.00    -0.393 OA
HETATM   33  H   UNL     1       6.650  27.102  53.063  1.00  0.00     0.210 HD
ENDBRANCH  24  32
ENDBRANCH   3  23
TORSDOF 7
ENDMDL
