MODEL 1
REMARK VINA RESULT:      -9.5      0.000      0.000
REMARK  7 active torsions:
REMARK  status: ('A' for Active; 'I' for Inactive)
REMARK    1  A    between atoms: N_3  and  C_4 
REMARK    2  A    between atoms: C_12  and  C_13 
REMARK       I    between atoms: C_13  and  N_14 
REMARK    3  A    between atoms: N_14  and  C_15 
REMARK    4  A    between atoms: C_15  and  C_16 
REMARK    5  A    between atoms: C_16  and  O_17 
REMARK    6  A    between atoms: C_16  and  C_18 
REMARK    7  A    between atoms: C_21  and  O_22 
ROOT
HETATM    1  C   UNL     1       8.479  29.557  58.340  1.00  0.00     0.255 C 
HETATM    2  N   UNL     1       7.677  28.500  57.994  1.00  0.00    -0.350 N 
HETATM    3  O   UNL     1       9.603  29.713  57.874  1.00  0.00    -0.268 OA
HETATM    4  H   UNL     1       6.732  28.441  58.341  1.00  0.00     0.163 HD
ENDROOT
BRANCH   2   5
HETATM    5  C   UNL     1       8.092  27.443  57.069  1.00  0.00     0.114 C 
HETATM    6  C   UNL     1       7.744  27.888  55.647  1.00  0.00     0.035 C 
BRANCH   5   7
HETATM    7  C   UNL     1       7.408  26.089  57.401  1.00  0.00     0.173 C 
BRANCH   7   8
HETATM    8  O   UNL     1       7.881  25.590  58.661  1.00  0.00    -0.389 OA
HETATM    9  H   UNL     1       7.566  26.213  59.340  1.00  0.00     0.210 HD
ENDBRANCH   7   8
BRANCH   7  10
HETATM   10  C   UNL     1       7.579  25.039  56.319  1.00  0.00    -0.028 A 
HETATM   11  C   UNL     1       8.703  24.202  56.327  1.00  0.00     0.012 A 
HETATM   12  C   UNL     1       8.859  23.214  55.349  1.00  0.00     0.037 A 
HETATM   13  C   UNL     1       7.898  23.035  54.355  1.00  0.00     0.068 A 
HETATM   14  C   UNL     1       6.779  23.867  54.334  1.00  0.00     0.037 A 
HETATM   15  C   UNL     1       6.623  24.860  55.309  1.00  0.00     0.012 A 
BRANCH  13  16
HETATM   16  O   UNL     1       8.168  22.029  53.469  1.00  0.00    -0.356 OA
HETATM   17  C   UNL     1       8.060  20.699  53.962  1.00  0.00     0.210 C 
ENDBRANCH  13  16
ENDBRANCH   7  10
ENDBRANCH   5   7
ENDBRANCH   2   5
BRANCH   1  18
HETATM   18  C   UNL     1       7.900  30.530  59.257  1.00  0.00     0.075 C 
HETATM   19  C   UNL     1       8.180  30.850  60.584  1.00  0.00     0.051 C 
HETATM   20  C   UNL     1       9.255  30.385  61.505  1.00  0.00     0.071 C 
HETATM   21  N   UNL     1       7.220  31.791  60.969  1.00  0.00    -0.220 N 
HETATM   22  N   UNL     1       6.491  32.218  59.901  1.00  0.00    -0.177 NA
HETATM   23  C   UNL     1       6.882  31.438  58.898  1.00  0.00     0.158 C 
BRANCH  21  24
HETATM   24  C   UNL     1       6.938  32.302  62.284  1.00  0.00     0.150 A 
HETATM   25  N   UNL     1       5.650  32.337  62.723  1.00  0.00    -0.241 NA
HETATM   26  C   UNL     1       5.423  32.852  63.951  1.00  0.00     0.119 A 
HETATM   27  C   UNL     1       6.418  33.337  64.782  1.00  0.00     0.019 A 
HETATM   28  C   UNL     1       7.728  33.296  64.326  1.00  0.00     0.005 A 
HETATM   29  C   UNL     1       7.997  32.777  63.061  1.00  0.00     0.052 A 
ENDBRANCH  21  24
ENDBRANCH   1  18
TORSDOF 7
ENDMDL
MODEL 2
REMARK VINA RESULT:      -9.4      2.957      9.824
REMARK  7 active torsions:
REMARK  status: ('A' for Active; 'I' for Inactive)
REMARK    1  A    between atoms: N_3  and  C_4 
REMARK    2  A    between atoms: C_12  and  C_13 
REMARK       I    between atoms: C_13  and  N_14 
REMARK    3  A    between atoms: N_14  and  C_15 
REMARK    4  A    between atoms: C_15  and  C_16 
REMARK    5  A    between atoms: C_16  and  O_17 
REMARK    6  A    between atoms: C_16  and  C_18 
REMARK    7  A    between atoms: C_21  and  O_22 
ROOT
HETATM    1  C   UNL     1       7.238  30.721  58.448  1.00  0.00     0.255 C 
HETATM    2  N   UNL     1       8.115  30.579  59.493  1.00  0.00    -0.350 N 
HETATM    3  O   UNL     1       6.791  31.810  58.104  1.00  0.00    -0.268 OA
HETATM    4  H   UNL     1       8.518  29.678  59.703  1.00  0.00     0.163 HD
ENDROOT
BRANCH   2   5
HETATM    5  C   UNL     1       8.575  31.699  60.316  1.00  0.00     0.114 C 
HETATM    6  C   UNL     1       9.926  32.170  59.773  1.00  0.00     0.035 C 
BRANCH   5   7
HETATM    7  C   UNL     1       8.696  31.300  61.812  1.00  0.00     0.173 C 
BRANCH   7   8
HETATM    8  O   UNL     1       8.697  29.871  61.946  1.00  0.00    -0.389 OA
HETATM    9  H   UNL     1       8.547  29.683  62.890  1.00  0.00     0.210 HD
ENDBRANCH   7   8
BRANCH   7  10
HETATM   10  C   UNL     1       7.623  31.912  62.694  1.00  0.00    -0.028 A 
HETATM   11  C   UNL     1       6.272  31.629  62.453  1.00  0.00     0.012 A 
HETATM   12  C   UNL     1       5.276  32.168  63.273  1.00  0.00     0.037 A 
HETATM   13  C   UNL     1       5.607  32.987  64.353  1.00  0.00     0.068 A 
HETATM   14  C   UNL     1       6.947  33.279  64.598  1.00  0.00     0.037 A 
HETATM   15  C   UNL     1       7.946  32.746  63.774  1.00  0.00     0.012 A 
BRANCH  13  16
HETATM   16  O   UNL     1       4.539  33.437  65.080  1.00  0.00    -0.356 OA
HETATM   17  C   UNL     1       4.820  33.944  66.378  1.00  0.00     0.210 C 
ENDBRANCH  13  16
ENDBRANCH   7  10
ENDBRANCH   5   7
ENDBRANCH   2   5
BRANCH   1  18
HETATM   18  C   UNL     1       6.902  29.504  57.720  1.00  0.00     0.075 C 
HETATM   19  C   UNL     1       7.688  28.529  57.109  1.00  0.00     0.051 C 
HETATM   20  C   UNL     1       9.164  28.326  57.082  1.00  0.00     0.071 C 
HETATM   21  N   UNL     1       6.801  27.655  56.472  1.00  0.00    -0.220 N 
HETATM   22  N   UNL     1       5.512  27.920  56.822  1.00  0.00    -0.177 NA
HETATM   23  C   UNL     1       5.583  29.039  57.537  1.00  0.00     0.158 C 
BRANCH  21  24
HETATM   24  C   UNL     1       7.092  26.596  55.543  1.00  0.00     0.150 A 
HETATM   25  N   UNL     1       7.350  26.904  54.242  1.00  0.00    -0.241 NA
HETATM   26  C   UNL     1       7.588  25.878  53.394  1.00  0.00     0.119 A 
HETATM   27  C   UNL     1       7.591  24.547  53.773  1.00  0.00     0.019 A 
HETATM   28  C   UNL     1       7.330  24.244  55.102  1.00  0.00     0.005 A 
HETATM   29  C   UNL     1       7.073  25.278  56.002  1.00  0.00     0.052 A 
ENDBRANCH  21  24
ENDBRANCH   1  18
TORSDOF 7
ENDMDL
MODEL 3
REMARK VINA RESULT:      -9.3      2.401      3.312
REMARK  7 active torsions:
REMARK  status: ('A' for Active; 'I' for Inactive)
REMARK    1  A    between atoms: N_3  and  C_4 
REMARK    2  A    between atoms: C_12  and  C_13 
REMARK       I    between atoms: C_13  and  N_14 
REMARK    3  A    between atoms: N_14  and  C_15 
REMARK    4  A    between atoms: C_15  and  C_16 
REMARK    5  A    between atoms: C_16  and  O_17 
REMARK    6  A    between atoms: C_16  and  C_18 
REMARK    7  A    between atoms: C_21  and  O_22 
ROOT
HETATM    1  C   UNL     1       7.628  28.492  55.125  1.00  0.00     0.255 C 
HETATM    2  N   UNL     1       6.575  27.660  54.841  1.00  0.00    -0.350 N 
HETATM    3  O   UNL     1       8.611  28.585  54.397  1.00  0.00    -0.268 OA
HETATM    4  H   UNL     1       5.752  27.661  55.424  1.00  0.00     0.163 HD
ENDROOT
BRANCH   2   5
HETATM    5  C   UNL     1       6.535  26.783  53.670  1.00  0.00     0.114 C 
HETATM    6  C   UNL     1       5.854  27.539  52.528  1.00  0.00     0.035 C 
BRANCH   5   7
HETATM    7  C   UNL     1       5.786  25.456  53.972  1.00  0.00     0.173 C 
BRANCH   7   8
HETATM    8  O   UNL     1       4.949  25.611  55.127  1.00  0.00    -0.389 OA
HETATM    9  H   UNL     1       4.073  25.262  54.882  1.00  0.00     0.210 HD
ENDBRANCH   7   8
BRANCH   7  10
HETATM   10  C   UNL     1       6.706  24.262  54.142  1.00  0.00    -0.028 A 
HETATM   11  C   UNL     1       7.011  23.790  55.426  1.00  0.00     0.012 A 
HETATM   12  C   UNL     1       7.838  22.675  55.595  1.00  0.00     0.037 A 
HETATM   13  C   UNL     1       8.367  22.005  54.493  1.00  0.00     0.068 A 
HETATM   14  C   UNL     1       8.075  22.470  53.212  1.00  0.00     0.037 A 
HETATM   15  C   UNL     1       7.252  23.590  53.040  1.00  0.00     0.012 A 
BRANCH  13  16
HETATM   16  O   UNL     1       9.150  20.926  54.798  1.00  0.00    -0.356 OA
HETATM   17  C   UNL     1       9.059  20.427  56.126  1.00  0.00     0.210 C 
ENDBRANCH  13  16
ENDBRANCH   7  10
ENDBRANCH   5   7
ENDBRANCH   2   5
BRANCH   1  18
HETATM   18  C   UNL     1       7.494  29.314  56.321  1.00  0.00     0.075 C 
HETATM   19  C   UNL     1       8.423  29.770  57.254  1.00  0.00     0.051 C 
HETATM   20  C   UNL     1       9.909  29.673  57.295  1.00  0.00     0.071 C 
HETATM   21  N   UNL     1       7.689  30.426  58.247  1.00  0.00    -0.220 N 
HETATM   22  N   UNL     1       6.386  30.575  57.879  1.00  0.00    -0.177 NA
HETATM   23  C   UNL     1       6.277  29.882  56.750  1.00  0.00     0.158 C 
BRANCH  21  24
HETATM   24  C   UNL     1       8.136  30.909  59.527  1.00  0.00     0.150 A 
HETATM   25  N   UNL     1       8.851  30.082  60.337  1.00  0.00    -0.241 NA
HETATM   26  C   UNL     1       9.226  30.562  61.544  1.00  0.00     0.119 A 
HETATM   27  C   UNL     1       8.930  31.837  61.993  1.00  0.00     0.019 A 
HETATM   28  C   UNL     1       8.202  32.673  61.159  1.00  0.00     0.005 A 
HETATM   29  C   UNL     1       7.793  32.207  59.910  1.00  0.00     0.052 A 
ENDBRANCH  21  24
ENDBRANCH   1  18
TORSDOF 7
ENDMDL
MODEL 4
REMARK VINA RESULT:      -8.8      2.526      4.046
REMARK  7 active torsions:
REMARK  status: ('A' for Active; 'I' for Inactive)
REMARK    1  A    between atoms: N_3  and  C_4 
REMARK    2  A    between atoms: C_12  and  C_13 
REMARK       I    between atoms: C_13  and  N_14 
REMARK    3  A    between atoms: N_14  and  C_15 
REMARK    4  A    between atoms: C_15  and  C_16 
REMARK    5  A    between atoms: C_16  and  O_17 
REMARK    6  A    between atoms: C_16  and  C_18 
REMARK    7  A    between atoms: C_21  and  O_22 
ROOT
HETATM    1  C   UNL     1       6.288  28.026  55.062  1.00  0.00     0.255 C 
HETATM    2  N   UNL     1       6.717  26.785  54.662  1.00  0.00    -0.350 N 
HETATM    3  O   UNL     1       5.484  28.688  54.413  1.00  0.00    -0.268 OA
HETATM    4  H   UNL     1       7.323  26.240  55.255  1.00  0.00     0.163 HD
ENDROOT
BRANCH   2   5
HETATM    5  C   UNL     1       6.286  26.147  53.417  1.00  0.00     0.114 C 
HETATM    6  C   UNL     1       5.170  25.153  53.750  1.00  0.00     0.035 C 
BRANCH   5   7
HETATM    7  C   UNL     1       7.463  25.429  52.703  1.00  0.00     0.173 C 
BRANCH   7   8
HETATM    8  O   UNL     1       7.162  25.246  51.312  1.00  0.00    -0.389 OA
HETATM    9  H   UNL     1       6.349  25.754  51.137  1.00  0.00     0.210 HD
ENDBRANCH   7   8
BRANCH   7  10
HETATM   10  C   UNL     1       7.846  24.106  53.340  1.00  0.00    -0.028 A 
HETATM   11  C   UNL     1       8.354  24.079  54.646  1.00  0.00     0.012 A 
HETATM   12  C   UNL     1       8.688  22.864  55.252  1.00  0.00     0.037 A 
HETATM   13  C   UNL     1       8.513  21.657  54.576  1.00  0.00     0.068 A 
HETATM   14  C   UNL     1       8.016  21.674  53.274  1.00  0.00     0.037 A 
HETATM   15  C   UNL     1       7.686  22.889  52.663  1.00  0.00     0.012 A 
BRANCH  13  16
HETATM   16  O   UNL     1       8.869  20.543  55.287  1.00  0.00    -0.356 OA
HETATM   17  C   UNL     1       8.481  20.509  56.654  1.00  0.00     0.210 C 
ENDBRANCH  13  16
ENDBRANCH   7  10
ENDBRANCH   5   7
ENDBRANCH   2   5
BRANCH   1  18
HETATM   18  C   UNL     1       6.800  28.503  56.339  1.00  0.00     0.075 C 
HETATM   19  C   UNL     1       6.661  29.715  57.013  1.00  0.00     0.051 C 
HETATM   20  C   UNL     1       5.837  30.920  56.714  1.00  0.00     0.071 C 
HETATM   21  N   UNL     1       7.472  29.626  58.148  1.00  0.00    -0.220 N 
HETATM   22  N   UNL     1       7.945  28.360  58.318  1.00  0.00    -0.177 NA
HETATM   23  C   UNL     1       7.567  27.712  57.222  1.00  0.00     0.158 C 
BRANCH  21  24
HETATM   24  C   UNL     1       7.841  30.663  59.074  1.00  0.00     0.150 A 
HETATM   25  N   UNL     1       6.865  31.343  59.736  1.00  0.00    -0.241 NA
HETATM   26  C   UNL     1       7.252  32.331  60.574  1.00  0.00     0.119 A 
HETATM   27  C   UNL     1       8.572  32.682  60.798  1.00  0.00     0.019 A 
HETATM   28  C   UNL     1       9.560  31.981  60.120  1.00  0.00     0.005 A 
HETATM   29  C   UNL     1       9.195  30.961  59.243  1.00  0.00     0.052 A 
ENDBRANCH  21  24
ENDBRANCH   1  18
TORSDOF 7
ENDMDL
MODEL 5
REMARK VINA RESULT:      -8.6      2.806      4.305
REMARK  7 active torsions:
REMARK  status: ('A' for Active; 'I' for Inactive)
REMARK    1  A    between atoms: N_3  and  C_4 
REMARK    2  A    between atoms: C_12  and  C_13 
REMARK       I    between atoms: C_13  and  N_14 
REMARK    3  A    between atoms: N_14  and  C_15 
REMARK    4  A    between atoms: C_15  and  C_16 
REMARK    5  A    between atoms: C_16  and  O_17 
REMARK    6  A    between atoms: C_16  and  C_18 
REMARK    7  A    between atoms: C_21  and  O_22 
ROOT
HETATM    1  C   UNL     1       5.985  28.624  54.992  1.00  0.00     0.255 C 
HETATM    2  N   UNL     1       6.594  28.401  53.783  1.00  0.00    -0.350 N 
HETATM    3  O   UNL     1       4.766  28.622  55.128  1.00  0.00    -0.268 OA
HETATM    4  H   UNL     1       7.599  28.339  53.722  1.00  0.00     0.163 HD
ENDROOT
BRANCH   2   5
HETATM    5  C   UNL     1       5.856  28.174  52.540  1.00  0.00     0.114 C 
HETATM    6  C   UNL     1       4.782  29.257  52.416  1.00  0.00     0.035 C 
BRANCH   5   7
HETATM    7  C   UNL     1       5.214  26.760  52.504  1.00  0.00     0.173 C 
BRANCH   7   8
HETATM    8  O   UNL     1       4.005  26.744  53.277  1.00  0.00    -0.389 OA
HETATM    9  H   UNL     1       3.270  26.706  52.638  1.00  0.00     0.210 HD
ENDBRANCH   7   8
BRANCH   7  10
HETATM   10  C   UNL     1       6.148  25.655  52.962  1.00  0.00    -0.028 A 
HETATM   11  C   UNL     1       5.931  25.020  54.192  1.00  0.00     0.012 A 
HETATM   12  C   UNL     1       6.770  23.984  54.614  1.00  0.00     0.037 A 
HETATM   13  C   UNL     1       7.832  23.555  53.816  1.00  0.00     0.068 A 
HETATM   14  C   UNL     1       8.060  24.185  52.595  1.00  0.00     0.037 A 
HETATM   15  C   UNL     1       7.225  25.227  52.173  1.00  0.00     0.012 A 
BRANCH  13  16
HETATM   16  O   UNL     1       8.567  22.528  54.342  1.00  0.00    -0.356 OA
HETATM   17  C   UNL     1       7.898  21.668  55.255  1.00  0.00     0.210 C 
ENDBRANCH  13  16
ENDBRANCH   7  10
ENDBRANCH   5   7
ENDBRANCH   2   5
BRANCH   1  18
HETATM   18  C   UNL     1       6.871  28.811  56.134  1.00  0.00     0.075 C 
HETATM   19  C   UNL     1       6.888  29.749  57.164  1.00  0.00     0.051 C 
HETATM   20  C   UNL     1       5.931  30.831  57.529  1.00  0.00     0.071 C 
HETATM   21  N   UNL     1       8.044  29.490  57.908  1.00  0.00    -0.220 N 
HETATM   22  N   UNL     1       8.632  28.326  57.516  1.00  0.00    -0.177 NA
HETATM   23  C   UNL     1       7.946  27.950  56.442  1.00  0.00     0.158 C 
BRANCH  21  24
HETATM   24  C   UNL     1       8.636  30.280  58.954  1.00  0.00     0.150 A 
HETATM   25  N   UNL     1       8.412  29.940  60.253  1.00  0.00    -0.241 NA
HETATM   26  C   UNL     1       8.961  30.725  61.207  1.00  0.00     0.119 A 
HETATM   27  C   UNL     1       9.735  31.841  60.938  1.00  0.00     0.019 A 
HETATM   28  C   UNL     1       9.959  32.178  59.611  1.00  0.00     0.005 A 
HETATM   29  C   UNL     1       9.402  31.394  58.602  1.00  0.00     0.052 A 
ENDBRANCH  21  24
ENDBRANCH   1  18
TORSDOF 7
ENDMDL
MODEL 6
REMARK VINA RESULT:      -8.6      8.007     11.359
REMARK  7 active torsions:
REMARK  status: ('A' for Active; 'I' for Inactive)
REMARK    1  A    between atoms: N_3  and  C_4 
REMARK    2  A    between atoms: C_12  and  C_13 
REMARK       I    between atoms: C_13  and  N_14 
REMARK    3  A    between atoms: N_14  and  C_15 
REMARK    4  A    between atoms: C_15  and  C_16 
REMARK    5  A    between atoms: C_16  and  O_17 
REMARK    6  A    between atoms: C_16  and  C_18 
REMARK    7  A    between atoms: C_21  and  O_22 
ROOT
HETATM    1  C   UNL     1       4.976  26.886  50.865  1.00  0.00     0.255 C 
HETATM    2  N   UNL     1       4.804  25.618  51.359  1.00  0.00    -0.350 N 
HETATM    3  O   UNL     1       5.675  27.724  51.426  1.00  0.00    -0.268 OA
HETATM    4  H   UNL     1       4.280  24.933  50.836  1.00  0.00     0.163 HD
ENDROOT
BRANCH   2   5
HETATM    5  C   UNL     1       5.405  25.152  52.610  1.00  0.00     0.114 C 
HETATM    6  C   UNL     1       4.912  26.055  53.744  1.00  0.00     0.035 C 
BRANCH   5   7
HETATM    7  C   UNL     1       6.957  25.162  52.539  1.00  0.00     0.173 C 
BRANCH   7   8
HETATM    8  O   UNL     1       7.391  25.107  51.172  1.00  0.00    -0.389 OA
HETATM    9  H   UNL     1       7.640  26.017  50.926  1.00  0.00     0.210 HD
ENDBRANCH   7   8
BRANCH   7  10
HETATM   10  C   UNL     1       7.610  24.055  53.346  1.00  0.00    -0.028 A 
HETATM   11  C   UNL     1       7.792  22.788  52.777  1.00  0.00     0.012 A 
HETATM   12  C   UNL     1       8.415  21.767  53.501  1.00  0.00     0.037 A 
HETATM   13  C   UNL     1       8.876  21.991  54.798  1.00  0.00     0.068 A 
HETATM   14  C   UNL     1       8.694  23.246  55.376  1.00  0.00     0.037 A 
HETATM   15  C   UNL     1       8.065  24.268  54.654  1.00  0.00     0.012 A 
BRANCH  13  16
HETATM   16  O   UNL     1       9.475  20.913  55.389  1.00  0.00    -0.356 OA
HETATM   17  C   UNL     1       8.910  20.461  56.613  1.00  0.00     0.210 C 
ENDBRANCH  13  16
ENDBRANCH   7  10
ENDBRANCH   5   7
ENDBRANCH   2   5
BRANCH   1  18
HETATM   18  C   UNL     1       4.323  27.176  49.596  1.00  0.00     0.075 C 
HETATM   19  C   UNL     1       3.234  27.980  49.263  1.00  0.00     0.051 C 
HETATM   20  C   UNL     1       2.420  28.924  50.078  1.00  0.00     0.071 C 
HETATM   21  N   UNL     1       3.001  27.775  47.899  1.00  0.00    -0.220 N 
HETATM   22  N   UNL     1       4.002  27.048  47.331  1.00  0.00    -0.177 NA
HETATM   23  C   UNL     1       4.763  26.671  48.354  1.00  0.00     0.158 C 
BRANCH  21  24
HETATM   24  C   UNL     1       1.884  28.209  47.102  1.00  0.00     0.150 A 
HETATM   25  N   UNL     1       1.824  29.505  46.690  1.00  0.00    -0.241 NA
HETATM   26  C   UNL     1       0.744  29.880  45.969  1.00  0.00     0.119 A 
HETATM   27  C   UNL     1      -0.290  29.028  45.626  1.00  0.00     0.019 A 
HETATM   28  C   UNL     1      -0.219  27.708  46.049  1.00  0.00     0.005 A 
HETATM   29  C   UNL     1       0.878  27.288  46.801  1.00  0.00     0.052 A 
ENDBRANCH  21  24
ENDBRANCH   1  18
TORSDOF 7
ENDMDL
MODEL 7
REMARK VINA RESULT:      -8.5      5.100      8.764
REMARK  7 active torsions:
REMARK  status: ('A' for Active; 'I' for Inactive)
REMARK    1  A    between atoms: N_3  and  C_4 
REMARK    2  A    between atoms: C_12  and  C_13 
REMARK       I    between atoms: C_13  and  N_14 
REMARK    3  A    between atoms: N_14  and  C_15 
REMARK    4  A    between atoms: C_15  and  C_16 
REMARK    5  A    between atoms: C_16  and  O_17 
REMARK    6  A    between atoms: C_16  and  C_18 
REMARK    7  A    between atoms: C_21  and  O_22 
ROOT
HETATM    1  C   UNL     1       5.175  27.719  55.275  1.00  0.00     0.255 C 
HETATM    2  N   UNL     1       6.431  27.224  55.515  1.00  0.00    -0.350 N 
HETATM    3  O   UNL     1       4.444  28.131  56.170  1.00  0.00    -0.268 OA
HETATM    4  H   UNL     1       7.031  26.960  54.749  1.00  0.00     0.163 HD
ENDROOT
BRANCH   2   5
HETATM    5  C   UNL     1       7.009  27.110  56.855  1.00  0.00     0.114 C 
HETATM    6  C   UNL     1       8.448  27.626  56.803  1.00  0.00     0.035 C 
BRANCH   5   7
HETATM    7  C   UNL     1       6.970  25.646  57.374  1.00  0.00     0.173 C 
BRANCH   7   8
HETATM    8  O   UNL     1       7.718  25.532  58.593  1.00  0.00    -0.389 OA
HETATM    9  H   UNL     1       8.618  25.847  58.395  1.00  0.00     0.210 HD
ENDBRANCH   7   8
BRANCH   7  10
HETATM   10  C   UNL     1       7.456  24.628  56.359  1.00  0.00    -0.028 A 
HETATM   11  C   UNL     1       6.637  24.269  55.279  1.00  0.00     0.012 A 
HETATM   12  C   UNL     1       7.083  23.351  54.325  1.00  0.00     0.037 A 
HETATM   13  C   UNL     1       8.352  22.781  54.420  1.00  0.00     0.068 A 
HETATM   14  C   UNL     1       9.172  23.125  55.493  1.00  0.00     0.037 A 
HETATM   15  C   UNL     1       8.725  24.041  56.454  1.00  0.00     0.012 A 
BRANCH  13  16
HETATM   16  O   UNL     1       8.667  21.907  53.416  1.00  0.00    -0.356 OA
HETATM   17  C   UNL     1       8.171  20.581  53.547  1.00  0.00     0.210 C 
ENDBRANCH  13  16
ENDBRANCH   7  10
ENDBRANCH   5   7
ENDBRANCH   2   5
BRANCH   1  18
HETATM   18  C   UNL     1       4.765  27.782  53.878  1.00  0.00     0.075 C 
HETATM   19  C   UNL     1       5.337  27.285  52.709  1.00  0.00     0.051 C 
HETATM   20  C   UNL     1       6.520  26.407  52.486  1.00  0.00     0.071 C 
HETATM   21  N   UNL     1       4.546  27.756  51.656  1.00  0.00    -0.220 N 
HETATM   22  N   UNL     1       3.409  28.345  52.120  1.00  0.00    -0.177 NA
HETATM   23  C   UNL     1       3.567  28.384  53.439  1.00  0.00     0.158 C 
BRANCH  21  24
HETATM   24  C   UNL     1       4.802  27.698  50.242  1.00  0.00     0.150 A 
HETATM   25  N   UNL     1       5.402  28.756  49.630  1.00  0.00    -0.241 NA
HETATM   26  C   UNL     1       5.597  28.675  48.295  1.00  0.00     0.119 A 
HETATM   27  C   UNL     1       5.230  27.586  47.525  1.00  0.00     0.019 A 
HETATM   28  C   UNL     1       4.622  26.511  48.158  1.00  0.00     0.005 A 
HETATM   29  C   UNL     1       4.399  26.564  49.533  1.00  0.00     0.052 A 
ENDBRANCH  21  24
ENDBRANCH   1  18
TORSDOF 7
ENDMDL
MODEL 8
REMARK VINA RESULT:      -8.5      6.530      9.851
REMARK  7 active torsions:
REMARK  status: ('A' for Active; 'I' for Inactive)
REMARK    1  A    between atoms: N_3  and  C_4 
REMARK    2  A    between atoms: C_12  and  C_13 
REMARK       I    between atoms: C_13  and  N_14 
REMARK    3  A    between atoms: N_14  and  C_15 
REMARK    4  A    between atoms: C_15  and  C_16 
REMARK    5  A    between atoms: C_16  and  O_17 
REMARK    6  A    between atoms: C_16  and  C_18 
REMARK    7  A    between atoms: C_21  and  O_22 
ROOT
HETATM    1  C   UNL     1       6.957  27.616  53.734  1.00  0.00     0.255 C 
HETATM    2  N   UNL     1       5.679  27.685  53.240  1.00  0.00    -0.350 N 
HETATM    3  O   UNL     1       7.707  28.586  53.766  1.00  0.00    -0.268 OA
HETATM    4  H   UNL     1       5.067  26.886  53.294  1.00  0.00     0.163 HD
ENDROOT
BRANCH   2   5
HETATM    5  C   UNL     1       5.100  28.906  52.675  1.00  0.00     0.114 C 
HETATM    6  C   UNL     1       3.586  28.711  52.566  1.00  0.00     0.035 C 
BRANCH   5   7
HETATM    7  C   UNL     1       5.711  29.242  51.287  1.00  0.00     0.173 C 
BRANCH   7   8
HETATM    8  O   UNL     1       5.645  30.655  51.045  1.00  0.00    -0.389 OA
HETATM    9  H   UNL     1       4.891  30.988  51.566  1.00  0.00     0.210 HD
ENDBRANCH   7   8
BRANCH   7  10
HETATM   10  C   UNL     1       5.074  28.479  50.141  1.00  0.00    -0.028 A 
HETATM   11  C   UNL     1       4.470  29.176  49.086  1.00  0.00     0.012 A 
HETATM   12  C   UNL     1       3.902  28.486  48.011  1.00  0.00     0.037 A 
HETATM   13  C   UNL     1       3.933  27.092  47.962  1.00  0.00     0.068 A 
HETATM   14  C   UNL     1       4.525  26.389  49.009  1.00  0.00     0.037 A 
HETATM   15  C   UNL     1       5.090  27.078  50.089  1.00  0.00     0.012 A 
BRANCH  13  16
HETATM   16  O   UNL     1       3.351  26.543  46.852  1.00  0.00    -0.356 OA
HETATM   17  C   UNL     1       2.740  25.270  47.016  1.00  0.00     0.210 C 
ENDBRANCH  13  16
ENDBRANCH   7  10
ENDBRANCH   5   7
ENDBRANCH   2   5
BRANCH   1  18
HETATM   18  C   UNL     1       7.367  26.328  54.278  1.00  0.00     0.075 C 
HETATM   19  C   UNL     1       7.730  25.126  53.673  1.00  0.00     0.051 C 
HETATM   20  C   UNL     1       7.940  24.766  52.243  1.00  0.00     0.071 C 
HETATM   21  N   UNL     1       7.915  24.207  54.711  1.00  0.00    -0.220 N 
HETATM   22  N   UNL     1       7.883  24.822  55.926  1.00  0.00    -0.177 NA
HETATM   23  C   UNL     1       7.524  26.073  55.657  1.00  0.00     0.158 C 
BRANCH  21  24
HETATM   24  C   UNL     1       8.105  22.783  54.629  1.00  0.00     0.150 A 
HETATM   25  N   UNL     1       8.703  22.254  53.527  1.00  0.00    -0.241 NA
HETATM   26  C   UNL     1       8.836  20.910  53.474  1.00  0.00     0.119 A 
HETATM   27  C   UNL     1       8.407  20.052  54.472  1.00  0.00     0.019 A 
HETATM   28  C   UNL     1       7.800  20.602  55.593  1.00  0.00     0.005 A 
HETATM   29  C   UNL     1       7.641  21.984  55.676  1.00  0.00     0.052 A 
ENDBRANCH  21  24
ENDBRANCH   1  18
TORSDOF 7
ENDMDL
MODEL 9
REMARK VINA RESULT:      -8.3      3.031      9.941
REMARK  7 active torsions:
REMARK  status: ('A' for Active; 'I' for Inactive)
REMARK    1  A    between atoms: N_3  and  C_4 
REMARK    2  A    between atoms: C_12  and  C_13 
REMARK       I    between atoms: C_13  and  N_14 
REMARK    3  A    between atoms: N_14  and  C_15 
REMARK    4  A    between atoms: C_15  and  C_16 
REMARK    5  A    between atoms: C_16  and  O_17 
REMARK    6  A    between atoms: C_16  and  C_18 
REMARK    7  A    between atoms: C_21  and  O_22 
ROOT
HETATM    1  C   UNL     1       7.181  27.082  57.316  1.00  0.00     0.255 C 
HETATM    2  N   UNL     1       6.134  27.641  56.629  1.00  0.00    -0.350 N 
HETATM    3  O   UNL     1       7.633  27.574  58.345  1.00  0.00    -0.268 OA
HETATM    4  H   UNL     1       5.742  27.172  55.826  1.00  0.00     0.163 HD
ENDROOT
BRANCH   2   5
HETATM    5  C   UNL     1       5.479  28.886  57.033  1.00  0.00     0.114 C 
HETATM    6  C   UNL     1       4.135  28.978  56.306  1.00  0.00     0.035 C 
BRANCH   5   7
HETATM    7  C   UNL     1       6.358  30.126  56.717  1.00  0.00     0.173 C 
BRANCH   7   8
HETATM    8  O   UNL     1       7.504  29.738  55.945  1.00  0.00    -0.389 OA
HETATM    9  H   UNL     1       7.380  28.798  55.721  1.00  0.00     0.210 HD
ENDBRANCH   7   8
BRANCH   7  10
HETATM   10  C   UNL     1       6.788  30.898  57.951  1.00  0.00    -0.028 A 
HETATM   11  C   UNL     1       5.841  31.614  58.694  1.00  0.00     0.012 A 
HETATM   12  C   UNL     1       6.221  32.309  59.847  1.00  0.00     0.037 A 
HETATM   13  C   UNL     1       7.545  32.296  60.284  1.00  0.00     0.068 A 
HETATM   14  C   UNL     1       8.496  31.593  59.548  1.00  0.00     0.037 A 
HETATM   15  C   UNL     1       8.119  30.900  58.391  1.00  0.00     0.012 A 
BRANCH  13  16
HETATM   16  O   UNL     1       7.779  33.007  61.429  1.00  0.00    -0.356 OA
HETATM   17  C   UNL     1       8.006  32.253  62.613  1.00  0.00     0.210 C 
ENDBRANCH  13  16
ENDBRANCH   7  10
ENDBRANCH   5   7
ENDBRANCH   2   5
BRANCH   1  18
HETATM   18  C   UNL     1       7.702  25.829  56.787  1.00  0.00     0.075 C 
HETATM   19  C   UNL     1       7.399  25.096  55.641  1.00  0.00     0.051 C 
HETATM   20  C   UNL     1       6.509  25.397  54.484  1.00  0.00     0.071 C 
HETATM   21  N   UNL     1       8.148  23.918  55.722  1.00  0.00    -0.220 N 
HETATM   22  N   UNL     1       9.043  23.971  56.747  1.00  0.00    -0.177 NA
HETATM   23  C   UNL     1       8.746  25.096  57.390  1.00  0.00     0.158 C 
BRANCH  21  24
HETATM   24  C   UNL     1       8.061  22.738  54.902  1.00  0.00     0.150 A 
HETATM   25  N   UNL     1       7.827  21.534  55.490  1.00  0.00    -0.241 NA
HETATM   26  C   UNL     1       7.783  20.446  54.690  1.00  0.00     0.119 A 
HETATM   27  C   UNL     1       7.957  20.490  53.317  1.00  0.00     0.019 A 
HETATM   28  C   UNL     1       8.193  21.723  52.726  1.00  0.00     0.005 A 
HETATM   29  C   UNL     1       8.251  22.865  53.524  1.00  0.00     0.052 A 
ENDBRANCH  21  24
ENDBRANCH   1  18
TORSDOF 7
ENDMDL
MODEL 10
REMARK VINA RESULT:      -8.2      2.875     10.237
REMARK  7 active torsions:
REMARK  status: ('A' for Active; 'I' for Inactive)
REMARK    1  A    between atoms: N_3  and  C_4 
REMARK    2  A    between atoms: C_12  and  C_13 
REMARK       I    between atoms: C_13  and  N_14 
REMARK    3  A    between atoms: N_14  and  C_15 
REMARK    4  A    between atoms: C_15  and  C_16 
REMARK    5  A    between atoms: C_16  and  O_17 
REMARK    6  A    between atoms: C_16  and  C_18 
REMARK    7  A    between atoms: C_21  and  O_22 
ROOT
HETATM    1  C   UNL     1       5.782  29.456  57.521  1.00  0.00     0.255 C 
HETATM    2  N   UNL     1       6.547  30.421  58.125  1.00  0.00    -0.350 N 
HETATM    3  O   UNL     1       4.557  29.510  57.485  1.00  0.00    -0.268 OA
HETATM    4  H   UNL     1       7.553  30.381  58.074  1.00  0.00     0.163 HD
ENDROOT
BRANCH   2   5
HETATM    5  C   UNL     1       5.981  31.585  58.810  1.00  0.00     0.114 C 
HETATM    6  C   UNL     1       5.506  32.580  57.749  1.00  0.00     0.035 C 
BRANCH   5   7
HETATM    7  C   UNL     1       7.014  32.249  59.761  1.00  0.00     0.173 C 
BRANCH   7   8
HETATM    8  O   UNL     1       8.229  31.486  59.785  1.00  0.00    -0.389 OA
HETATM    9  H   UNL     1       8.831  31.907  59.145  1.00  0.00     0.210 HD
ENDBRANCH   7   8
BRANCH   7  10
HETATM   10  C   UNL     1       6.495  32.461  61.171  1.00  0.00    -0.028 A 
HETATM   11  C   UNL     1       5.117  32.553  61.404  1.00  0.00     0.012 A 
HETATM   12  C   UNL     1       4.625  32.723  62.702  1.00  0.00     0.037 A 
HETATM   13  C   UNL     1       5.494  32.795  63.790  1.00  0.00     0.068 A 
HETATM   14  C   UNL     1       6.868  32.712  63.569  1.00  0.00     0.037 A 
HETATM   15  C   UNL     1       7.362  32.547  62.270  1.00  0.00     0.012 A 
BRANCH  13  16
HETATM   16  O   UNL     1       4.883  32.952  65.004  1.00  0.00    -0.356 OA
HETATM   17  C   UNL     1       5.161  34.156  65.706  1.00  0.00     0.210 C 
ENDBRANCH  13  16
ENDBRANCH   7  10
ENDBRANCH   5   7
ENDBRANCH   2   5
BRANCH   1  18
HETATM   18  C   UNL     1       6.509  28.376  56.867  1.00  0.00     0.075 C 
HETATM   19  C   UNL     1       6.389  27.793  55.606  1.00  0.00     0.051 C 
HETATM   20  C   UNL     1       5.546  28.150  54.431  1.00  0.00     0.071 C 
HETATM   21  N   UNL     1       7.289  26.723  55.584  1.00  0.00    -0.220 N 
HETATM   22  N   UNL     1       8.096  26.735  56.681  1.00  0.00    -0.177 NA
HETATM   23  C   UNL     1       7.602  27.700  57.449  1.00  0.00     0.158 C 
BRANCH  21  24
HETATM   24  C   UNL     1       7.424  25.681  54.601  1.00  0.00     0.150 A 
HETATM   25  N   UNL     1       7.861  25.998  53.351  1.00  0.00    -0.241 NA
HETATM   26  C   UNL     1       7.946  24.997  52.448  1.00  0.00     0.119 A 
HETATM   27  C   UNL     1       7.621  23.679  52.722  1.00  0.00     0.019 A 
HETATM   28  C   UNL     1       7.179  23.366  54.000  1.00  0.00     0.005 A 
HETATM   29  C   UNL     1       7.073  24.377  54.954  1.00  0.00     0.052 A 
ENDBRANCH  21  24
ENDBRANCH   1  18
TORSDOF 7
ENDMDL
