MODEL 1
REMARK VINA RESULT:     -10.5      0.000      0.000
REMARK  5 active torsions:
REMARK  status: ('A' for Active; 'I' for Inactive)
REMARK    1  A    between atoms: N_4  and  C_5 
REMARK    2  A    between atoms: C_14  and  C_15 
REMARK       I    between atoms: C_15  and  N_16 
REMARK    3  A    between atoms: N_16  and  N_17 
REMARK    4  A    between atoms: N_17  and  C_18 
REMARK    5  A    between atoms: N_19  and  C_20 
ROOT
HETATM    1  C   UNL     1       6.861  28.103  57.115  1.00  0.00     0.277 C 
HETATM    2  N   UNL     1       8.140  28.320  57.593  1.00  0.00    -0.263 N 
HETATM    3  O   UNL     1       5.906  28.770  57.513  1.00  0.00    -0.265 OA
HETATM    4  H   UNL     1       8.928  27.746  57.303  1.00  0.00     0.190 HD
ENDROOT
BRANCH   1   5
HETATM    5  C   UNL     1       6.737  27.044  56.121  1.00  0.00     0.077 A 
HETATM    6  S   UNL     1       7.390  25.448  56.407  1.00  0.00    -0.064 SA
HETATM    7  C   UNL     1       6.902  24.945  54.897  1.00  0.00     0.113 A 
HETATM    8  N   UNL     1       6.946  23.837  54.087  1.00  0.00    -0.226 N 
HETATM    9  C   UNL     1       6.273  25.908  54.217  1.00  0.00     0.027 A 
HETATM   10  N   UNL     1       6.305  24.121  52.890  1.00  0.00    -0.171 NA
HETATM   11  C   UNL     1       5.899  25.402  52.987  1.00  0.00     0.064 A 
HETATM   12  C   UNL     1       5.171  26.054  51.876  1.00  0.00     0.073 C 
HETATM   13  C   UNL     1       6.148  27.136  54.859  1.00  0.00     0.041 A 
BRANCH   8  14
HETATM   14  C   UNL     1       7.530  22.552  54.294  1.00  0.00     0.059 A 
HETATM   15  C   UNL     1       8.004  21.833  53.183  1.00  0.00     0.031 A 
HETATM   16  C   UNL     1       8.595  20.577  53.346  1.00  0.00     0.002 A 
HETATM   17  C   UNL     1       8.717  20.024  54.617  1.00  0.00     0.000 A 
HETATM   18  C   UNL     1       8.246  20.724  55.724  1.00  0.00     0.002 A 
HETATM   19  C   UNL     1       7.654  21.982  55.567  1.00  0.00     0.031 A 
ENDBRANCH   8  14
ENDBRANCH   1   5
BRANCH   2  20
HETATM   20  N   UNL     1       8.379  29.314  58.553  1.00  0.00    -0.273 N 
HETATM   21  H   UNL     1       7.581  29.513  59.154  1.00  0.00     0.189 HD
BRANCH  20  22
HETATM   22  C   UNL     1       9.294  30.303  58.310  1.00  0.00     0.191 C 
HETATM   23  N   UNL     1       9.238  31.438  59.059  1.00  0.00    -0.331 N 
HETATM   24  H   UNL     1       9.792  32.196  58.664  1.00  0.00     0.168 HD
HETATM   25  S   UNL     1      10.460  30.228  57.103  1.00  0.00    -0.039 SA
BRANCH  23  26
HETATM   26  C   UNL     1       8.575  31.773  60.262  1.00  0.00     0.056 A 
HETATM   27  C   UNL     1       7.217  32.142  60.187  1.00  0.00     0.060 A 
HETATM   28 CL   UNL     1       6.380  32.166  58.670  1.00  0.00    -0.082 Cl
HETATM   29  C   UNL     1       6.498  32.488  61.334  1.00  0.00     0.026 A 
HETATM   30  C   UNL     1       7.132  32.488  62.574  1.00  0.00     0.002 A 
HETATM   31  C   UNL     1       8.483  32.162  62.658  1.00  0.00     0.002 A 
HETATM   32  C   UNL     1       9.205  31.817  61.509  1.00  0.00     0.031 A 
ENDBRANCH  23  26
ENDBRANCH  20  22
ENDBRANCH   2  20
TORSDOF 5
ENDMDL
MODEL 2
REMARK VINA RESULT:     -10.5      1.610      1.809
REMARK  5 active torsions:
REMARK  status: ('A' for Active; 'I' for Inactive)
REMARK    1  A    between atoms: N_4  and  C_5 
REMARK    2  A    between atoms: C_14  and  C_15 
REMARK       I    between atoms: C_15  and  N_16 
REMARK    3  A    between atoms: N_16  and  N_17 
REMARK    4  A    between atoms: N_17  and  C_18 
REMARK    5  A    between atoms: N_19  and  C_20 
ROOT
HETATM    1  C   UNL     1       6.954  27.949  57.297  1.00  0.00     0.277 C 
HETATM    2  N   UNL     1       5.943  28.890  57.343  1.00  0.00    -0.263 N 
HETATM    3  O   UNL     1       7.898  27.983  58.087  1.00  0.00    -0.265 OA
HETATM    4  H   UNL     1       5.181  28.896  56.668  1.00  0.00     0.190 HD
ENDROOT
BRANCH   1   5
HETATM    5  C   UNL     1       6.815  26.932  56.262  1.00  0.00     0.077 A 
HETATM    6  S   UNL     1       7.455  25.319  56.481  1.00  0.00    -0.064 SA
HETATM    7  C   UNL     1       6.955  24.881  54.954  1.00  0.00     0.113 A 
HETATM    8  N   UNL     1       6.985  23.806  54.101  1.00  0.00    -0.226 N 
HETATM    9  C   UNL     1       6.332  25.877  54.318  1.00  0.00     0.027 A 
HETATM   10  N   UNL     1       6.340  24.143  52.920  1.00  0.00    -0.171 NA
HETATM   11  C   UNL     1       5.947  25.423  53.070  1.00  0.00     0.064 A 
HETATM   12  C   UNL     1       5.219  26.126  51.990  1.00  0.00     0.073 C 
HETATM   13  C   UNL     1       6.221  27.080  55.008  1.00  0.00     0.041 A 
BRANCH   8  14
HETATM   14  C   UNL     1       7.557  22.508  54.254  1.00  0.00     0.059 A 
HETATM   15  C   UNL     1       8.021  21.831  53.113  1.00  0.00     0.031 A 
HETATM   16  C   UNL     1       8.601  20.564  53.222  1.00  0.00     0.002 A 
HETATM   17  C   UNL     1       8.722  19.959  54.470  1.00  0.00     0.000 A 
HETATM   18  C   UNL     1       8.262  20.618  55.606  1.00  0.00     0.002 A 
HETATM   19  C   UNL     1       7.681  21.887  55.502  1.00  0.00     0.031 A 
ENDBRANCH   8  14
ENDBRANCH   1   5
BRANCH   2  20
HETATM   20  N   UNL     1       5.971  29.915  58.299  1.00  0.00    -0.273 N 
HETATM   21  H   UNL     1       5.596  29.647  59.208  1.00  0.00     0.189 HD
BRANCH  20  22
HETATM   22  C   UNL     1       5.900  31.226  57.909  1.00  0.00     0.191 C 
HETATM   23  N   UNL     1       6.452  32.174  58.714  1.00  0.00    -0.331 N 
HETATM   24  H   UNL     1       6.155  33.117  58.469  1.00  0.00     0.168 HD
HETATM   25  S   UNL     1       5.125  31.750  56.514  1.00  0.00    -0.039 SA
BRANCH  23  26
HETATM   26  C   UNL     1       7.345  32.115  59.809  1.00  0.00     0.056 A 
HETATM   27  C   UNL     1       6.806  32.219  61.108  1.00  0.00     0.060 A 
HETATM   28 CL   UNL     1       5.101  32.395  61.356  1.00  0.00    -0.082 Cl
HETATM   29  C   UNL     1       7.628  32.171  62.236  1.00  0.00     0.026 A 
HETATM   30  C   UNL     1       9.005  32.036  62.084  1.00  0.00     0.002 A 
HETATM   31  C   UNL     1       9.555  31.969  60.807  1.00  0.00     0.002 A 
HETATM   32  C   UNL     1       8.733  32.019  59.674  1.00  0.00     0.031 A 
ENDBRANCH  23  26
ENDBRANCH  20  22
ENDBRANCH   2  20
TORSDOF 5
ENDMDL
MODEL 3
REMARK VINA RESULT:     -10.3      1.531      2.025
REMARK  5 active torsions:
REMARK  status: ('A' for Active; 'I' for Inactive)
REMARK    1  A    between atoms: N_4  and  C_5 
REMARK    2  A    between atoms: C_14  and  C_15 
REMARK       I    between atoms: C_15  and  N_16 
REMARK    3  A    between atoms: N_16  and  N_17 
REMARK    4  A    between atoms: N_17  and  C_18 
REMARK    5  A    between atoms: N_19  and  C_20 
ROOT
HETATM    1  C   UNL     1       7.101  27.910  57.366  1.00  0.00     0.277 C 
HETATM    2  N   UNL     1       6.122  28.884  57.424  1.00  0.00    -0.263 N 
HETATM    3  O   UNL     1       8.050  27.907  58.151  1.00  0.00    -0.265 OA
HETATM    4  H   UNL     1       5.358  28.920  56.753  1.00  0.00     0.190 HD
ENDROOT
BRANCH   1   5
HETATM    5  C   UNL     1       6.922  26.905  56.326  1.00  0.00     0.077 A 
HETATM    6  S   UNL     1       7.575  25.292  56.498  1.00  0.00    -0.064 SA
HETATM    7  C   UNL     1       7.013  24.871  54.988  1.00  0.00     0.113 A 
HETATM    8  N   UNL     1       7.011  23.806  54.121  1.00  0.00    -0.226 N 
HETATM    9  C   UNL     1       6.361  25.872  54.390  1.00  0.00     0.027 A 
HETATM   10  N   UNL     1       6.317  24.156  52.972  1.00  0.00    -0.171 NA
HETATM   11  C   UNL     1       5.926  25.432  53.154  1.00  0.00     0.064 A 
HETATM   12  C   UNL     1       5.152  26.146  52.113  1.00  0.00     0.073 C 
HETATM   13  C   UNL     1       6.276  27.066  55.099  1.00  0.00     0.041 A 
BRANCH   8  14
HETATM   14  C   UNL     1       7.592  22.509  54.235  1.00  0.00     0.059 A 
HETATM   15  C   UNL     1       7.677  21.910  55.504  1.00  0.00     0.031 A 
HETATM   16  C   UNL     1       8.227  20.634  55.655  1.00  0.00     0.002 A 
HETATM   17  C   UNL     1       8.700  19.943  54.543  1.00  0.00     0.000 A 
HETATM   18  C   UNL     1       8.627  20.528  53.282  1.00  0.00     0.002 A 
HETATM   19  C   UNL     1       8.076  21.805  53.125  1.00  0.00     0.031 A 
ENDBRANCH   8  14
ENDBRANCH   1   5
BRANCH   2  20
HETATM   20  N   UNL     1       6.190  29.902  58.386  1.00  0.00    -0.273 N 
HETATM   21  H   UNL     1       5.875  29.620  59.313  1.00  0.00     0.189 HD
BRANCH  20  22
HETATM   22  C   UNL     1       6.075  31.214  58.014  1.00  0.00     0.191 C 
HETATM   23  N   UNL     1       6.419  32.177  58.911  1.00  0.00    -0.331 N 
HETATM   24  H   UNL     1       6.089  33.101  58.640  1.00  0.00     0.168 HD
HETATM   25  S   UNL     1       5.482  31.719  56.525  1.00  0.00    -0.039 SA
BRANCH  23  26
HETATM   26  C   UNL     1       7.137  32.154  60.130  1.00  0.00     0.056 A 
HETATM   27  C   UNL     1       8.515  31.863  60.079  1.00  0.00     0.060 A 
HETATM   28 CL   UNL     1       9.310  31.562  58.569  1.00  0.00    -0.082 Cl
HETATM   29  C   UNL     1       9.287  31.820  61.243  1.00  0.00     0.026 A 
HETATM   30  C   UNL     1       8.689  32.050  62.478  1.00  0.00     0.002 A 
HETATM   31  C   UNL     1       7.321  32.302  62.547  1.00  0.00     0.002 A 
HETATM   32  C   UNL     1       6.546  32.343  61.382  1.00  0.00     0.031 A 
ENDBRANCH  23  26
ENDBRANCH  20  22
ENDBRANCH   2  20
TORSDOF 5
ENDMDL
MODEL 4
REMARK VINA RESULT:     -10.2      4.424      8.567
REMARK  5 active torsions:
REMARK  status: ('A' for Active; 'I' for Inactive)
REMARK    1  A    between atoms: N_4  and  C_5 
REMARK    2  A    between atoms: C_14  and  C_15 
REMARK       I    between atoms: C_15  and  N_16 
REMARK    3  A    between atoms: N_16  and  N_17 
REMARK    4  A    between atoms: N_17  and  C_18 
REMARK    5  A    between atoms: N_19  and  C_20 
ROOT
HETATM    1  C   UNL     1       3.880  28.317  53.675  1.00  0.00     0.277 C 
HETATM    2  N   UNL     1       3.343  27.897  52.472  1.00  0.00    -0.263 N 
HETATM    3  O   UNL     1       3.478  29.337  54.235  1.00  0.00    -0.265 OA
HETATM    4  H   UNL     1       3.698  27.079  51.981  1.00  0.00     0.190 HD
ENDROOT
BRANCH   1   5
HETATM    5  C   UNL     1       4.935  27.471  54.218  1.00  0.00     0.077 A 
HETATM    6  S   UNL     1       5.235  25.871  53.580  1.00  0.00    -0.064 SA
HETATM    7  C   UNL     1       6.443  25.619  54.698  1.00  0.00     0.113 A 
HETATM    8  N   UNL     1       7.333  24.650  55.092  1.00  0.00    -0.226 N 
HETATM    9  C   UNL     1       6.626  26.674  55.497  1.00  0.00     0.027 A 
HETATM   10  N   UNL     1       8.097  25.133  56.144  1.00  0.00    -0.171 NA
HETATM   11  C   UNL     1       7.647  26.380  56.382  1.00  0.00     0.064 A 
HETATM   12  C   UNL     1       8.238  27.211  57.455  1.00  0.00     0.073 C 
HETATM   13  C   UNL     1       5.793  27.767  55.279  1.00  0.00     0.041 A 
BRANCH   8  14
HETATM   14  C   UNL     1       7.541  23.323  54.612  1.00  0.00     0.059 A 
HETATM   15  C   UNL     1       7.579  22.264  55.536  1.00  0.00     0.031 A 
HETATM   16  C   UNL     1       7.767  20.948  55.105  1.00  0.00     0.002 A 
HETATM   17  C   UNL     1       7.919  20.674  53.749  1.00  0.00     0.000 A 
HETATM   18  C   UNL     1       7.887  21.715  52.825  1.00  0.00     0.002 A 
HETATM   19  C   UNL     1       7.699  23.034  53.252  1.00  0.00     0.031 A 
ENDBRANCH   8  14
ENDBRANCH   1   5
BRANCH   2  20
HETATM   20  N   UNL     1       2.321  28.632  51.856  1.00  0.00    -0.273 N 
HETATM   21  H   UNL     1       1.448  28.118  51.743  1.00  0.00     0.189 HD
BRANCH  20  22
HETATM   22  C   UNL     1       2.625  29.632  50.972  1.00  0.00     0.191 C 
HETATM   23  N   UNL     1       2.972  29.292  49.700  1.00  0.00    -0.331 N 
HETATM   24  H   UNL     1       3.398  30.064  49.191  1.00  0.00     0.168 HD
HETATM   25  S   UNL     1       2.649  31.264  51.371  1.00  0.00    -0.039 SA
BRANCH  23  26
HETATM   26  C   UNL     1       2.860  28.097  48.952  1.00  0.00     0.056 A 
HETATM   27  C   UNL     1       3.984  27.250  48.888  1.00  0.00     0.060 A 
HETATM   28 CL   UNL     1       5.452  27.650  49.716  1.00  0.00    -0.082 Cl
HETATM   29  C   UNL     1       3.947  26.054  48.166  1.00  0.00     0.026 A 
HETATM   30  C   UNL     1       2.790  25.695  47.481  1.00  0.00     0.002 A 
HETATM   31  C   UNL     1       1.684  26.541  47.505  1.00  0.00     0.002 A 
HETATM   32  C   UNL     1       1.720  27.740  48.226  1.00  0.00     0.031 A 
ENDBRANCH  23  26
ENDBRANCH  20  22
ENDBRANCH   2  20
TORSDOF 5
ENDMDL
MODEL 5
REMARK VINA RESULT:      -9.9      4.653      8.695
REMARK  5 active torsions:
REMARK  status: ('A' for Active; 'I' for Inactive)
REMARK    1  A    between atoms: N_4  and  C_5 
REMARK    2  A    between atoms: C_14  and  C_15 
REMARK       I    between atoms: C_15  and  N_16 
REMARK    3  A    between atoms: N_16  and  N_17 
REMARK    4  A    between atoms: N_17  and  C_18 
REMARK    5  A    between atoms: N_19  and  C_20 
ROOT
HETATM    1  C   UNL     1       3.908  28.320  53.535  1.00  0.00     0.277 C 
HETATM    2  N   UNL     1       3.404  27.897  52.319  1.00  0.00    -0.263 N 
HETATM    3  O   UNL     1       3.493  29.343  54.080  1.00  0.00    -0.265 OA
HETATM    4  H   UNL     1       3.771  27.077  51.840  1.00  0.00     0.190 HD
ENDROOT
BRANCH   1   5
HETATM    5  C   UNL     1       4.945  27.474  54.110  1.00  0.00     0.077 A 
HETATM    6  S   UNL     1       5.256  25.868  53.491  1.00  0.00    -0.064 SA
HETATM    7  C   UNL     1       6.434  25.620  54.641  1.00  0.00     0.113 A 
HETATM    8  N   UNL     1       7.309  24.650  55.064  1.00  0.00    -0.226 N 
HETATM    9  C   UNL     1       6.600  26.679  55.437  1.00  0.00     0.027 A 
HETATM   10  N   UNL     1       8.049  25.138  56.131  1.00  0.00    -0.171 NA
HETATM   11  C   UNL     1       7.597  26.388  56.349  1.00  0.00     0.064 A 
HETATM   12  C   UNL     1       8.165  27.224  57.431  1.00  0.00     0.073 C 
HETATM   13  C   UNL     1       5.778  27.774  55.190  1.00  0.00     0.041 A 
BRANCH   8  14
HETATM   14  C   UNL     1       7.524  23.319  54.599  1.00  0.00     0.059 A 
HETATM   15  C   UNL     1       7.548  22.268  55.532  1.00  0.00     0.031 A 
HETATM   16  C   UNL     1       7.741  20.948  55.115  1.00  0.00     0.002 A 
HETATM   17  C   UNL     1       7.914  20.662  53.764  1.00  0.00     0.000 A 
HETATM   18  C   UNL     1       7.897  21.695  52.831  1.00  0.00     0.002 A 
HETATM   19  C   UNL     1       7.703  23.019  53.243  1.00  0.00     0.031 A 
ENDBRANCH   8  14
ENDBRANCH   1   5
BRANCH   2  20
HETATM   20  N   UNL     1       2.401  28.632  51.672  1.00  0.00    -0.273 N 
HETATM   21  H   UNL     1       1.530  28.121  51.540  1.00  0.00     0.189 HD
BRANCH  20  22
HETATM   22  C   UNL     1       2.732  29.624  50.789  1.00  0.00     0.191 C 
HETATM   23  N   UNL     1       3.139  29.273  49.538  1.00  0.00    -0.331 N 
HETATM   24  H   UNL     1       3.578  30.043  49.038  1.00  0.00     0.168 HD
HETATM   25  S   UNL     1       2.719  31.262  51.167  1.00  0.00    -0.039 SA
BRANCH  23  26
HETATM   26  C   UNL     1       3.074  28.068  48.802  1.00  0.00     0.056 A 
HETATM   27  C   UNL     1       2.004  27.902  47.898  1.00  0.00     0.060 A 
HETATM   28 CL   UNL     1       0.817  29.145  47.683  1.00  0.00    -0.082 Cl
HETATM   29  C   UNL     1       1.875  26.736  47.139  1.00  0.00     0.026 A 
HETATM   30  C   UNL     1       2.803  25.709  47.284  1.00  0.00     0.002 A 
HETATM   31  C   UNL     1       3.843  25.843  48.200  1.00  0.00     0.002 A 
HETATM   32  C   UNL     1       3.974  27.010  48.963  1.00  0.00     0.031 A 
ENDBRANCH  23  26
ENDBRANCH  20  22
ENDBRANCH   2  20
TORSDOF 5
ENDMDL
MODEL 6
REMARK VINA RESULT:      -9.5      3.186      9.564
REMARK  5 active torsions:
REMARK  status: ('A' for Active; 'I' for Inactive)
REMARK    1  A    between atoms: N_4  and  C_5 
REMARK    2  A    between atoms: C_14  and  C_15 
REMARK       I    between atoms: C_15  and  N_16 
REMARK    3  A    between atoms: N_16  and  N_17 
REMARK    4  A    between atoms: N_17  and  C_18 
REMARK    5  A    between atoms: N_19  and  C_20 
ROOT
HETATM    1  C   UNL     1       7.087  26.547  56.004  1.00  0.00     0.277 C 
HETATM    2  N   UNL     1       6.097  26.115  55.141  1.00  0.00    -0.263 N 
HETATM    3  O   UNL     1       8.037  25.824  56.303  1.00  0.00    -0.265 OA
HETATM    4  H   UNL     1       5.285  26.689  54.922  1.00  0.00     0.190 HD
ENDROOT
BRANCH   1   5
HETATM    5  C   UNL     1       6.920  27.901  56.518  1.00  0.00     0.077 A 
HETATM    6  S   UNL     1       7.769  28.440  57.948  1.00  0.00    -0.064 SA
HETATM    7  C   UNL     1       7.030  29.930  57.862  1.00  0.00     0.113 A 
HETATM    8  N   UNL     1       6.976  31.123  58.539  1.00  0.00    -0.226 N 
HETATM    9  C   UNL     1       6.205  30.029  56.816  1.00  0.00     0.027 A 
HETATM   10  N   UNL     1       6.115  31.985  57.876  1.00  0.00    -0.171 NA
HETATM   11  C   UNL     1       5.647  31.294  56.818  1.00  0.00     0.064 A 
HETATM   12  C   UNL     1       4.686  31.907  55.874  1.00  0.00     0.073 C 
HETATM   13  C   UNL     1       6.092  28.902  56.008  1.00  0.00     0.041 A 
BRANCH   8  14
HETATM   14  C   UNL     1       7.622  31.546  59.738  1.00  0.00     0.059 A 
HETATM   15  C   UNL     1       6.840  32.065  60.784  1.00  0.00     0.031 A 
HETATM   16  C   UNL     1       7.433  32.477  61.981  1.00  0.00     0.002 A 
HETATM   17  C   UNL     1       8.812  32.378  62.146  1.00  0.00     0.000 A 
HETATM   18  C   UNL     1       9.597  31.870  61.115  1.00  0.00     0.002 A 
HETATM   19  C   UNL     1       9.008  31.455  59.915  1.00  0.00     0.031 A 
ENDBRANCH   8  14
ENDBRANCH   1   5
BRANCH   2  20
HETATM   20  N   UNL     1       6.153  24.830  54.584  1.00  0.00    -0.273 N 
HETATM   21  H   UNL     1       5.891  24.085  55.228  1.00  0.00     0.189 HD
BRANCH  20  22
HETATM   22  C   UNL     1       7.028  24.555  53.568  1.00  0.00     0.191 C 
HETATM   23  N   UNL     1       7.965  23.587  53.760  1.00  0.00    -0.331 N 
HETATM   24  H   UNL     1       8.703  23.611  53.058  1.00  0.00     0.168 HD
HETATM   25  S   UNL     1       7.054  25.377  52.102  1.00  0.00    -0.039 SA
BRANCH  23  26
HETATM   26  C   UNL     1       8.119  22.566  54.726  1.00  0.00     0.056 A 
HETATM   27  C   UNL     1       8.078  21.228  54.284  1.00  0.00     0.060 A 
HETATM   28 CL   UNL     1       7.866  20.846  52.608  1.00  0.00    -0.082 Cl
HETATM   29  C   UNL     1       8.220  20.167  55.182  1.00  0.00     0.026 A 
HETATM   30  C   UNL     1       8.387  20.427  56.540  1.00  0.00     0.002 A 
HETATM   31  C   UNL     1       8.392  21.743  56.995  1.00  0.00     0.002 A 
HETATM   32  C   UNL     1       8.248  22.807  56.097  1.00  0.00     0.031 A 
ENDBRANCH  23  26
ENDBRANCH  20  22
ENDBRANCH   2  20
TORSDOF 5
ENDMDL
MODEL 7
REMARK VINA RESULT:      -9.2      4.227      9.585
REMARK  5 active torsions:
REMARK  status: ('A' for Active; 'I' for Inactive)
REMARK    1  A    between atoms: N_4  and  C_5 
REMARK    2  A    between atoms: C_14  and  C_15 
REMARK       I    between atoms: C_15  and  N_16 
REMARK    3  A    between atoms: N_16  and  N_17 
REMARK    4  A    between atoms: N_17  and  C_18 
REMARK    5  A    between atoms: N_19  and  C_20 
ROOT
HETATM    1  C   UNL     1       4.600  27.359  53.018  1.00  0.00     0.277 C 
HETATM    2  N   UNL     1       3.659  28.366  53.135  1.00  0.00    -0.263 N 
HETATM    3  O   UNL     1       4.636  26.627  52.028  1.00  0.00    -0.265 OA
HETATM    4  H   UNL     1       3.595  28.948  53.967  1.00  0.00     0.190 HD
ENDROOT
BRANCH   1   5
HETATM    5  C   UNL     1       5.528  27.239  54.134  1.00  0.00     0.077 A 
HETATM    6  S   UNL     1       6.285  28.647  54.844  1.00  0.00    -0.064 SA
HETATM    7  C   UNL     1       7.140  27.690  55.905  1.00  0.00     0.113 A 
HETATM    8  N   UNL     1       8.072  27.797  56.908  1.00  0.00    -0.226 N 
HETATM    9  C   UNL     1       6.868  26.391  55.752  1.00  0.00     0.027 A 
HETATM   10  N   UNL     1       8.360  26.532  57.399  1.00  0.00    -0.171 NA
HETATM   11  C   UNL     1       7.612  25.678  56.674  1.00  0.00     0.064 A 
HETATM   12  C   UNL     1       7.665  24.220  56.924  1.00  0.00     0.073 C 
HETATM   13  C   UNL     1       5.957  26.063  54.753  1.00  0.00     0.041 A 
BRANCH   8  14
HETATM   14  C   UNL     1       8.735  28.938  57.449  1.00  0.00     0.059 A 
HETATM   15  C   UNL     1       9.971  29.327  56.905  1.00  0.00     0.031 A 
HETATM   16  C   UNL     1      10.645  30.448  57.397  1.00  0.00     0.002 A 
HETATM   17  C   UNL     1      10.095  31.191  58.438  1.00  0.00     0.000 A 
HETATM   18  C   UNL     1       8.873  30.812  58.987  1.00  0.00     0.002 A 
HETATM   19  C   UNL     1       8.194  29.692  58.497  1.00  0.00     0.031 A 
ENDBRANCH   8  14
ENDBRANCH   1   5
BRANCH   2  20
HETATM   20  N   UNL     1       2.715  28.576  52.120  1.00  0.00    -0.273 N 
HETATM   21  H   UNL     1       2.292  27.721  51.762  1.00  0.00     0.189 HD
BRANCH  20  22
HETATM   22  C   UNL     1       2.815  29.666  51.298  1.00  0.00     0.191 C 
HETATM   23  N   UNL     1       3.004  29.460  49.966  1.00  0.00    -0.331 N 
HETATM   24  H   UNL     1       3.294  30.305  49.476  1.00  0.00     0.168 HD
HETATM   25  S   UNL     1       2.770  31.257  51.837  1.00  0.00    -0.039 SA
BRANCH  23  26
HETATM   26  C   UNL     1       2.879  28.324  49.134  1.00  0.00     0.056 A 
HETATM   27  C   UNL     1       4.061  27.692  48.695  1.00  0.00     0.060 A 
HETATM   28 CL   UNL     1       5.618  28.279  49.177  1.00  0.00    -0.082 Cl
HETATM   29  C   UNL     1       4.014  26.566  47.870  1.00  0.00     0.026 A 
HETATM   30  C   UNL     1       2.784  26.063  47.454  1.00  0.00     0.002 A 
HETATM   31  C   UNL     1       1.610  26.699  47.849  1.00  0.00     0.002 A 
HETATM   32  C   UNL     1       1.655  27.829  48.675  1.00  0.00     0.031 A 
ENDBRANCH  23  26
ENDBRANCH  20  22
ENDBRANCH   2  20
TORSDOF 5
ENDMDL
MODEL 8
REMARK VINA RESULT:      -9.2      5.187      8.604
REMARK  5 active torsions:
REMARK  status: ('A' for Active; 'I' for Inactive)
REMARK    1  A    between atoms: N_4  and  C_5 
REMARK    2  A    between atoms: C_14  and  C_15 
REMARK       I    between atoms: C_15  and  N_16 
REMARK    3  A    between atoms: N_16  and  N_17 
REMARK    4  A    between atoms: N_17  and  C_18 
REMARK    5  A    between atoms: N_19  and  C_20 
ROOT
HETATM    1  C   UNL     1       5.303  26.840  55.460  1.00  0.00     0.277 C 
HETATM    2  N   UNL     1       5.802  25.570  55.234  1.00  0.00    -0.263 N 
HETATM    3  O   UNL     1       5.269  27.324  56.592  1.00  0.00    -0.265 OA
HETATM    4  H   UNL     1       5.794  25.146  54.309  1.00  0.00     0.190 HD
ENDROOT
BRANCH   1   5
HETATM    5  C   UNL     1       4.832  27.546  54.275  1.00  0.00     0.077 A 
HETATM    6  S   UNL     1       4.516  26.700  52.778  1.00  0.00    -0.064 SA
HETATM    7  C   UNL     1       4.113  28.127  52.021  1.00  0.00     0.113 A 
HETATM    8  N   UNL     1       3.725  28.597  50.790  1.00  0.00    -0.226 N 
HETATM    9  C   UNL     1       4.193  29.179  52.841  1.00  0.00     0.027 A 
HETATM   10  N   UNL     1       3.539  29.970  50.865  1.00  0.00    -0.171 NA
HETATM   11  C   UNL     1       3.835  30.311  52.135  1.00  0.00     0.064 A 
HETATM   12  C   UNL     1       3.748  31.719  52.583  1.00  0.00     0.073 C 
HETATM   13  C   UNL     1       4.603  28.917  54.145  1.00  0.00     0.041 A 
BRANCH   8  14
HETATM   14  C   UNL     1       3.524  27.918  49.552  1.00  0.00     0.059 A 
HETATM   15  C   UNL     1       2.300  28.077  48.881  1.00  0.00     0.031 A 
HETATM   16  C   UNL     1       2.069  27.440  47.659  1.00  0.00     0.002 A 
HETATM   17  C   UNL     1       3.055  26.636  47.095  1.00  0.00     0.000 A 
HETATM   18  C   UNL     1       4.270  26.467  47.753  1.00  0.00     0.002 A 
HETATM   19  C   UNL     1       4.507  27.104  48.977  1.00  0.00     0.031 A 
ENDBRANCH   8  14
ENDBRANCH   1   5
BRANCH   2  20
HETATM   20  N   UNL     1       6.284  24.798  56.299  1.00  0.00    -0.273 N 
HETATM   21  H   UNL     1       5.601  24.635  57.038  1.00  0.00     0.189 HD
BRANCH  20  22
HETATM   22  C   UNL     1       7.616  24.809  56.614  1.00  0.00     0.191 C 
HETATM   23  N   UNL     1       8.403  23.800  56.151  1.00  0.00    -0.331 N 
HETATM   24  H   UNL     1       9.308  23.763  56.616  1.00  0.00     0.168 HD
HETATM   25  S   UNL     1       8.341  25.971  57.588  1.00  0.00    -0.039 SA
BRANCH  23  26
HETATM   26  C   UNL     1       8.219  22.804  55.164  1.00  0.00     0.056 A 
HETATM   27  C   UNL     1       8.172  21.459  55.583  1.00  0.00     0.060 A 
HETATM   28 CL   UNL     1       8.316  21.040  57.258  1.00  0.00    -0.082 Cl
HETATM   29  C   UNL     1       7.996  20.422  54.664  1.00  0.00     0.026 A 
HETATM   30  C   UNL     1       7.881  20.712  53.307  1.00  0.00     0.002 A 
HETATM   31  C   UNL     1       7.964  22.033  52.874  1.00  0.00     0.002 A 
HETATM   32  C   UNL     1       8.142  23.074  53.794  1.00  0.00     0.031 A 
ENDBRANCH  23  26
ENDBRANCH  20  22
ENDBRANCH   2  20
TORSDOF 5
ENDMDL
MODEL 9
REMARK VINA RESULT:      -9.2      4.985      9.195
REMARK  5 active torsions:
REMARK  status: ('A' for Active; 'I' for Inactive)
REMARK    1  A    between atoms: N_4  and  C_5 
REMARK    2  A    between atoms: C_14  and  C_15 
REMARK       I    between atoms: C_15  and  N_16 
REMARK    3  A    between atoms: N_16  and  N_17 
REMARK    4  A    between atoms: N_17  and  C_18 
REMARK    5  A    between atoms: N_19  and  C_20 
ROOT
HETATM    1  C   UNL     1       4.973  26.576  51.392  1.00  0.00     0.277 C 
HETATM    2  N   UNL     1       4.272  27.758  51.540  1.00  0.00    -0.263 N 
HETATM    3  O   UNL     1       4.982  25.966  50.323  1.00  0.00    -0.265 OA
HETATM    4  H   UNL     1       4.223  28.247  52.432  1.00  0.00     0.190 HD
ENDROOT
BRANCH   1   5
HETATM    5  C   UNL     1       5.688  26.121  52.577  1.00  0.00     0.077 A 
HETATM    6  S   UNL     1       6.194  24.456  52.750  1.00  0.00    -0.064 SA
HETATM    7  C   UNL     1       6.821  24.771  54.260  1.00  0.00     0.113 A 
HETATM    8  N   UNL     1       7.445  24.128  55.300  1.00  0.00    -0.226 N 
HETATM    9  C   UNL     1       6.677  26.051  54.614  1.00  0.00     0.027 A 
HETATM   10  N   UNL     1       7.713  25.043  56.307  1.00  0.00    -0.171 NA
HETATM   11  C   UNL     1       7.230  26.222  55.869  1.00  0.00     0.064 A 
HETATM   12  C   UNL     1       7.339  27.443  56.698  1.00  0.00     0.073 C 
HETATM   13  C   UNL     1       6.033  26.878  53.698  1.00  0.00     0.041 A 
BRANCH   8  14
HETATM   14  C   UNL     1       7.806  22.758  55.468  1.00  0.00     0.059 A 
HETATM   15  C   UNL     1       7.742  21.897  54.359  1.00  0.00     0.031 A 
HETATM   16  C   UNL     1       8.101  20.551  54.480  1.00  0.00     0.002 A 
HETATM   17  C   UNL     1       8.524  20.050  55.707  1.00  0.00     0.000 A 
HETATM   18  C   UNL     1       8.587  20.892  56.813  1.00  0.00     0.002 A 
HETATM   19  C   UNL     1       8.230  22.241  56.698  1.00  0.00     0.031 A 
ENDBRANCH   8  14
ENDBRANCH   1   5
BRANCH   2  20
HETATM   20  N   UNL     1       3.547  28.293  50.466  1.00  0.00    -0.273 N 
HETATM   21  H   UNL     1       2.754  27.723  50.175  1.00  0.00     0.189 HD
BRANCH  20  22
HETATM   22  C   UNL     1       4.165  29.095  49.546  1.00  0.00     0.191 C 
HETATM   23  N   UNL     1       3.659  29.147  48.283  1.00  0.00    -0.331 N 
HETATM   24  H   UNL     1       4.303  29.575  47.621  1.00  0.00     0.168 HD
HETATM   25  S   UNL     1       5.553  29.989  49.861  1.00  0.00    -0.039 SA
BRANCH  23  26
HETATM   26  C   UNL     1       2.433  28.732  47.714  1.00  0.00     0.056 A 
HETATM   27  C   UNL     1       2.341  27.410  47.233  1.00  0.00     0.060 A 
HETATM   28 CL   UNL     1       3.683  26.321  47.354  1.00  0.00    -0.082 Cl
HETATM   29  C   UNL     1       1.162  26.932  46.656  1.00  0.00     0.026 A 
HETATM   30  C   UNL     1       0.061  27.774  46.534  1.00  0.00     0.002 A 
HETATM   31  C   UNL     1       0.149  29.094  46.971  1.00  0.00     0.002 A 
HETATM   32  C   UNL     1       1.330  29.575  47.547  1.00  0.00     0.031 A 
ENDBRANCH  23  26
ENDBRANCH  20  22
ENDBRANCH   2  20
TORSDOF 5
ENDMDL
MODEL 10
REMARK VINA RESULT:      -9.1      3.260      9.674
REMARK  5 active torsions:
REMARK  status: ('A' for Active; 'I' for Inactive)
REMARK    1  A    between atoms: N_4  and  C_5 
REMARK    2  A    between atoms: C_14  and  C_15 
REMARK       I    between atoms: C_15  and  N_16 
REMARK    3  A    between atoms: N_16  and  N_17 
REMARK    4  A    between atoms: N_17  and  C_18 
REMARK    5  A    between atoms: N_19  and  C_20 
ROOT
HETATM    1  C   UNL     1       6.910  29.269  55.908  1.00  0.00     0.277 C 
HETATM    2  N   UNL     1       6.255  29.323  54.692  1.00  0.00    -0.263 N 
HETATM    3  O   UNL     1       7.772  28.420  56.135  1.00  0.00    -0.265 OA
HETATM    4  H   UNL     1       5.511  29.994  54.510  1.00  0.00     0.190 HD
ENDROOT
BRANCH   1   5
HETATM    5  C   UNL     1       6.510  30.280  56.879  1.00  0.00     0.077 A 
HETATM    6  S   UNL     1       7.323  30.433  58.419  1.00  0.00    -0.064 SA
HETATM    7  C   UNL     1       6.298  31.664  58.872  1.00  0.00     0.113 A 
HETATM    8  N   UNL     1       6.050  32.494  59.938  1.00  0.00    -0.226 N 
HETATM    9  C   UNL     1       5.405  31.958  57.923  1.00  0.00     0.027 A 
HETATM   10  N   UNL     1       4.993  33.336  59.623  1.00  0.00    -0.171 NA
HETATM   11  C   UNL     1       4.607  32.990  58.380  1.00  0.00     0.064 A 
HETATM   12  C   UNL     1       3.485  33.687  57.711  1.00  0.00     0.073 C 
HETATM   13  C   UNL     1       5.468  31.201  56.758  1.00  0.00     0.041 A 
BRANCH   8  14
HETATM   14  C   UNL     1       6.673  32.582  61.218  1.00  0.00     0.059 A 
HETATM   15  C   UNL     1       7.828  31.820  61.464  1.00  0.00     0.031 A 
HETATM   16  C   UNL     1       8.477  31.889  62.701  1.00  0.00     0.002 A 
HETATM   17  C   UNL     1       7.979  32.716  63.704  1.00  0.00     0.000 A 
HETATM   18  C   UNL     1       6.833  33.471  63.472  1.00  0.00     0.002 A 
HETATM   19  C   UNL     1       6.180  33.406  62.236  1.00  0.00     0.031 A 
ENDBRANCH   8  14
ENDBRANCH   1   5
BRANCH   2  20
HETATM   20  N   UNL     1       6.559  28.400  53.681  1.00  0.00    -0.273 N 
HETATM   21  H   UNL     1       7.376  28.648  53.123  1.00  0.00     0.189 HD
BRANCH  20  22
HETATM   22  C   UNL     1       5.569  27.644  53.114  1.00  0.00     0.191 C 
HETATM   23  N   UNL     1       5.554  26.305  53.356  1.00  0.00    -0.331 N 
HETATM   24  H   UNL     1       4.938  25.799  52.722  1.00  0.00     0.168 HD
HETATM   25  S   UNL     1       4.390  28.259  52.087  1.00  0.00    -0.039 SA
BRANCH  23  26
HETATM   26  C   UNL     1       6.213  25.484  54.300  1.00  0.00     0.056 A 
HETATM   27  C   UNL     1       7.298  24.703  53.854  1.00  0.00     0.060 A 
HETATM   28 CL   UNL     1       7.822  24.762  52.204  1.00  0.00    -0.082 Cl
HETATM   29  C   UNL     1       7.995  23.867  54.730  1.00  0.00     0.026 A 
HETATM   30  C   UNL     1       7.606  23.785  56.064  1.00  0.00     0.002 A 
HETATM   31  C   UNL     1       6.512  24.521  56.511  1.00  0.00     0.002 A 
HETATM   32  C   UNL     1       5.811  25.359  55.634  1.00  0.00     0.031 A 
ENDBRANCH  23  26
ENDBRANCH  20  22
ENDBRANCH   2  20
TORSDOF 5
ENDMDL
