MODEL 1
REMARK VINA RESULT:     -10.1      0.000      0.000
REMARK  5 active torsions:
REMARK  status: ('A' for Active; 'I' for Inactive)
REMARK    1  A    between atoms: C_3  and  C_4 
REMARK       I    between atoms: C_4  and  N_5 
REMARK    2  A    between atoms: N_5  and  C_6 
REMARK    3  A    between atoms: C_6  and  C_7 
REMARK    4  A    between atoms: C_10  and  O_11 
REMARK    5  A    between atoms: O_11  and  C_12 
ROOT
HETATM    1  C   UNL     1       9.194  28.871  57.248  1.00  0.00     0.052 C 
HETATM    2  C   UNL     1       7.791  29.362  57.314  1.00  0.00    -0.009 A 
HETATM    3  C   UNL     1       7.282  30.328  58.183  1.00  0.00     0.150 A 
HETATM    4  O   UNL     1       5.934  30.438  58.001  1.00  0.00    -0.304 OA
HETATM    5  C   UNL     1       5.569  29.593  57.012  1.00  0.00     0.088 A 
HETATM    6  C   UNL     1       6.671  28.897  56.524  1.00  0.00     0.020 A 
HETATM    7  C   UNL     1       6.426  27.975  55.471  1.00  0.00     0.011 A 
HETATM    8  C   UNL     1       5.113  27.819  54.987  1.00  0.00     0.081 A 
HETATM    9  O   UNL     1       4.780  26.946  53.986  1.00  0.00    -0.336 OA
HETATM   10  C   UNL     1       5.840  26.392  53.182  1.00  0.00     0.078 C 
HETATM   11  C   UNL     1       5.849  27.153  51.851  1.00  0.00     0.051 C 
HETATM   12  C   UNL     1       5.452  24.929  52.935  1.00  0.00     0.051 C 
HETATM   13  C   UNL     1       7.214  26.447  53.810  1.00  0.00     0.012 C 
HETATM   14  C   UNL     1       7.499  27.186  54.888  1.00  0.00     0.014 C 
HETATM   15  C   UNL     1       4.049  28.535  55.531  1.00  0.00     0.040 A 
HETATM   16  C   UNL     1       4.259  29.450  56.560  1.00  0.00     0.041 A 
ENDROOT
BRANCH   3  17
HETATM   17  C   UNL     1       7.854  31.187  59.205  1.00  0.00     0.276 C 
HETATM   18  N   UNL     1       7.685  30.765  60.511  1.00  0.00    -0.351 N 
HETATM   19  H   UNL     1       7.422  29.802  60.667  1.00  0.00     0.163 HD
HETATM   20  O   UNL     1       8.494  32.205  58.948  1.00  0.00    -0.265 OA
BRANCH  18  21
HETATM   21  C   UNL     1       8.387  31.451  61.570  1.00  0.00     0.161 C 
BRANCH  21  22
HETATM   22  C   UNL     1       7.451  32.069  62.574  1.00  0.00    -0.040 A 
HETATM   23  C   UNL     1       6.066  31.916  62.444  1.00  0.00     0.011 A 
HETATM   24  C   UNL     1       5.204  32.419  63.422  1.00  0.00     0.037 A 
HETATM   25  C   UNL     1       5.706  33.071  64.549  1.00  0.00     0.069 A 
HETATM   26  C   UNL     1       7.083  33.257  64.670  1.00  0.00     0.037 A 
HETATM   27  C   UNL     1       7.950  32.750  63.694  1.00  0.00     0.011 A 
BRANCH  25  28
HETATM   28  O   UNL     1       4.758  33.495  65.437  1.00  0.00    -0.347 OA
BRANCH  28  29
HETATM   29  C   UNL     1       5.117  34.513  66.378  1.00  0.00     0.120 C 
HETATM   30  C   UNL     1       4.519  35.841  65.928  1.00  0.00     0.040 C 
HETATM   31  C   UNL     1       4.533  34.099  67.727  1.00  0.00     0.040 C 
ENDBRANCH  28  29
ENDBRANCH  25  28
ENDBRANCH  21  22
ENDBRANCH  18  21
ENDBRANCH   3  17
TORSDOF 5
ENDMDL
MODEL 2
REMARK VINA RESULT:      -9.8      2.152     10.613
REMARK  5 active torsions:
REMARK  status: ('A' for Active; 'I' for Inactive)
REMARK    1  A    between atoms: C_3  and  C_4 
REMARK       I    between atoms: C_4  and  N_5 
REMARK    2  A    between atoms: N_5  and  C_6 
REMARK    3  A    between atoms: C_6  and  C_7 
REMARK    4  A    between atoms: C_10  and  O_11 
REMARK    5  A    between atoms: O_11  and  C_12 
ROOT
HETATM    1  C   UNL     1       4.482  32.942  60.142  1.00  0.00     0.052 C 
HETATM    2  C   UNL     1       5.749  32.739  60.895  1.00  0.00    -0.009 A 
HETATM    3  C   UNL     1       6.894  32.080  60.446  1.00  0.00     0.150 A 
HETATM    4  O   UNL     1       7.809  32.018  61.456  1.00  0.00    -0.304 OA
HETATM    5  C   UNL     1       7.296  32.653  62.532  1.00  0.00     0.088 A 
HETATM    6  C   UNL     1       6.022  33.141  62.258  1.00  0.00     0.020 A 
HETATM    7  C   UNL     1       5.368  33.839  63.309  1.00  0.00     0.011 A 
HETATM    8  C   UNL     1       6.028  33.998  64.542  1.00  0.00     0.081 A 
HETATM    9  O   UNL     1       5.473  34.643  65.615  1.00  0.00    -0.336 OA
HETATM   10  C   UNL     1       4.306  35.459  65.391  1.00  0.00     0.078 C 
HETATM   11  C   UNL     1       4.769  36.921  65.372  1.00  0.00     0.051 C 
HETATM   12  C   UNL     1       3.397  35.224  66.604  1.00  0.00     0.051 C 
HETATM   13  C   UNL     1       3.542  35.149  64.124  1.00  0.00     0.012 C 
HETATM   14  C   UNL     1       4.032  34.386  63.141  1.00  0.00     0.014 C 
HETATM   15  C   UNL     1       7.300  33.471  64.759  1.00  0.00     0.040 A 
HETATM   16  C   UNL     1       7.968  32.786  63.745  1.00  0.00     0.041 A 
ENDROOT
BRANCH   3  17
HETATM   17  C   UNL     1       7.291  31.458  59.194  1.00  0.00     0.276 C 
HETATM   18  N   UNL     1       6.379  30.576  58.644  1.00  0.00    -0.351 N 
HETATM   19  H   UNL     1       5.426  30.609  58.978  1.00  0.00     0.163 HD
HETATM   20  O   UNL     1       8.344  31.720  58.617  1.00  0.00    -0.265 OA
BRANCH  18  21
HETATM   21  C   UNL     1       6.606  30.068  57.311  1.00  0.00     0.161 C 
BRANCH  21  22
HETATM   22  C   UNL     1       6.705  28.566  57.278  1.00  0.00    -0.040 A 
HETATM   23  C   UNL     1       5.586  27.786  56.964  1.00  0.00     0.011 A 
HETATM   24  C   UNL     1       5.701  26.397  56.853  1.00  0.00     0.037 A 
HETATM   25  C   UNL     1       6.931  25.766  57.040  1.00  0.00     0.069 A 
HETATM   26  C   UNL     1       8.043  26.533  57.386  1.00  0.00     0.037 A 
HETATM   27  C   UNL     1       7.933  27.924  57.494  1.00  0.00     0.011 A 
BRANCH  25  28
HETATM   28  O   UNL     1       6.909  24.409  56.882  1.00  0.00    -0.347 OA
BRANCH  28  29
HETATM   29  C   UNL     1       7.872  23.813  56.006  1.00  0.00     0.120 C 
HETATM   30  C   UNL     1       8.416  22.544  56.652  1.00  0.00     0.040 C 
HETATM   31  C   UNL     1       7.144  23.475  54.706  1.00  0.00     0.040 C 
ENDBRANCH  28  29
ENDBRANCH  25  28
ENDBRANCH  21  22
ENDBRANCH  18  21
ENDBRANCH   3  17
TORSDOF 5
ENDMDL
MODEL 3
REMARK VINA RESULT:      -9.7      2.669     10.436
REMARK  5 active torsions:
REMARK  status: ('A' for Active; 'I' for Inactive)
REMARK    1  A    between atoms: C_3  and  C_4 
REMARK       I    between atoms: C_4  and  N_5 
REMARK    2  A    between atoms: N_5  and  C_6 
REMARK    3  A    between atoms: C_6  and  C_7 
REMARK    4  A    between atoms: C_10  and  O_11 
REMARK    5  A    between atoms: O_11  and  C_12 
ROOT
HETATM    1  C   UNL     1       5.943  31.874  58.321  1.00  0.00     0.052 C 
HETATM    2  C   UNL     1       6.983  31.548  59.333  1.00  0.00    -0.009 A 
HETATM    3  C   UNL     1       8.088  30.714  59.160  1.00  0.00     0.150 A 
HETATM    4  O   UNL     1       8.756  30.592  60.344  1.00  0.00    -0.304 OA
HETATM    5  C   UNL     1       8.130  31.356  61.265  1.00  0.00     0.088 A 
HETATM    6  C   UNL     1       7.024  31.994  60.710  1.00  0.00     0.020 A 
HETATM    7  C   UNL     1       6.276  32.838  61.574  1.00  0.00     0.011 A 
HETATM    8  C   UNL     1       6.683  32.983  62.914  1.00  0.00     0.081 A 
HETATM    9  O   UNL     1       6.018  33.762  63.822  1.00  0.00    -0.336 OA
HETATM   10  C   UNL     1       5.053  34.713  63.328  1.00  0.00     0.078 C 
HETATM   11  C   UNL     1       5.717  36.095  63.361  1.00  0.00     0.051 C 
HETATM   12  C   UNL     1       3.888  34.679  64.326  1.00  0.00     0.051 C 
HETATM   13  C   UNL     1       4.531  34.431  61.938  1.00  0.00     0.012 C 
HETATM   14  C   UNL     1       5.098  33.549  61.107  1.00  0.00     0.014 C 
HETATM   15  C   UNL     1       7.791  32.303  63.413  1.00  0.00     0.040 A 
HETATM   16  C   UNL     1       8.548  31.473  62.589  1.00  0.00     0.041 A 
ENDROOT
BRANCH   3  17
HETATM   17  C   UNL     1       8.641  29.968  58.043  1.00  0.00     0.276 C 
HETATM   18  N   UNL     1       7.765  29.115  57.397  1.00  0.00    -0.351 N 
HETATM   19  H   UNL     1       6.775  29.244  57.552  1.00  0.00     0.163 HD
HETATM   20  O   UNL     1       9.797  30.104  57.649  1.00  0.00    -0.265 OA
BRANCH  18  21
HETATM   21  C   UNL     1       8.175  28.487  56.162  1.00  0.00     0.161 C 
BRANCH  21  22
HETATM   22  C   UNL     1       7.855  27.016  56.131  1.00  0.00    -0.040 A 
HETATM   23  C   UNL     1       7.167  26.459  55.047  1.00  0.00     0.011 A 
HETATM   24  C   UNL     1       6.944  25.081  54.983  1.00  0.00     0.037 A 
HETATM   25  C   UNL     1       7.414  24.235  55.988  1.00  0.00     0.069 A 
HETATM   26  C   UNL     1       8.072  24.785  57.088  1.00  0.00     0.037 A 
HETATM   27  C   UNL     1       8.299  26.165  57.154  1.00  0.00     0.011 A 
BRANCH  25  28
HETATM   28  O   UNL     1       7.148  22.910  55.792  1.00  0.00    -0.347 OA
BRANCH  28  29
HETATM   29  C   UNL     1       8.249  21.994  55.771  1.00  0.00     0.120 C 
HETATM   30  C   UNL     1       7.739  20.593  56.091  1.00  0.00     0.040 C 
HETATM   31  C   UNL     1       8.836  22.034  54.362  1.00  0.00     0.040 C 
ENDBRANCH  28  29
ENDBRANCH  25  28
ENDBRANCH  21  22
ENDBRANCH  18  21
ENDBRANCH   3  17
TORSDOF 5
ENDMDL
MODEL 4
REMARK VINA RESULT:      -9.7      1.986      2.248
REMARK  5 active torsions:
REMARK  status: ('A' for Active; 'I' for Inactive)
REMARK    1  A    between atoms: C_3  and  C_4 
REMARK       I    between atoms: C_4  and  N_5 
REMARK    2  A    between atoms: N_5  and  C_6 
REMARK    3  A    between atoms: C_6  and  C_7 
REMARK    4  A    between atoms: C_10  and  O_11 
REMARK    5  A    between atoms: O_11  and  C_12 
ROOT
HETATM    1  C   UNL     1       9.401  29.328  55.146  1.00  0.00     0.052 C 
HETATM    2  C   UNL     1       8.683  28.661  56.265  1.00  0.00    -0.009 A 
HETATM    3  C   UNL     1       8.609  29.094  57.589  1.00  0.00     0.150 A 
HETATM    4  O   UNL     1       7.939  28.167  58.334  1.00  0.00    -0.304 OA
HETATM    5  C   UNL     1       7.549  27.167  57.515  1.00  0.00     0.088 A 
HETATM    6  C   UNL     1       7.962  27.407  56.208  1.00  0.00     0.020 A 
HETATM    7  C   UNL     1       7.608  26.430  55.239  1.00  0.00     0.011 A 
HETATM    8  C   UNL     1       6.875  25.298  55.641  1.00  0.00     0.081 A 
HETATM    9  O   UNL     1       6.502  24.299  54.782  1.00  0.00    -0.336 OA
HETATM   10  C   UNL     1       6.585  24.551  53.365  1.00  0.00     0.078 C 
HETATM   11  C   UNL     1       5.163  24.842  52.871  1.00  0.00     0.051 C 
HETATM   12  C   UNL     1       7.090  23.244  52.740  1.00  0.00     0.051 C 
HETATM   13  C   UNL     1       7.504  25.684  52.970  1.00  0.00     0.012 C 
HETATM   14  C   UNL     1       7.993  26.571  53.844  1.00  0.00     0.014 C 
HETATM   15  C   UNL     1       6.506  25.107  56.971  1.00  0.00     0.040 A 
HETATM   16  C   UNL     1       6.833  26.051  57.942  1.00  0.00     0.041 A 
ENDROOT
BRANCH   3  17
HETATM   17  C   UNL     1       9.089  30.259  58.312  1.00  0.00     0.276 C 
HETATM   18  N   UNL     1       8.300  30.681  59.366  1.00  0.00    -0.351 N 
HETATM   19  H   UNL     1       7.610  30.038  59.729  1.00  0.00     0.163 HD
HETATM   20  O   UNL     1      10.150  30.822  58.053  1.00  0.00    -0.265 OA
BRANCH  18  21
HETATM   21  C   UNL     1       8.799  31.704  60.256  1.00  0.00     0.161 C 
BRANCH  21  22
HETATM   22  C   UNL     1       7.820  32.044  61.348  1.00  0.00    -0.040 A 
HETATM   23  C   UNL     1       6.446  32.082  61.086  1.00  0.00     0.011 A 
HETATM   24  C   UNL     1       5.535  32.316  62.119  1.00  0.00     0.037 A 
HETATM   25  C   UNL     1       5.975  32.503  63.430  1.00  0.00     0.069 A 
HETATM   26  C   UNL     1       7.344  32.500  63.694  1.00  0.00     0.037 A 
HETATM   27  C   UNL     1       8.260  32.262  62.661  1.00  0.00     0.011 A 
BRANCH  25  28
HETATM   28  O   UNL     1       4.981  32.701  64.345  1.00  0.00    -0.347 OA
BRANCH  28  29
HETATM   29  C   UNL     1       4.799  34.018  64.875  1.00  0.00     0.120 C 
HETATM   30  C   UNL     1       3.391  34.500  64.545  1.00  0.00     0.040 C 
HETATM   31  C   UNL     1       4.983  33.921  66.388  1.00  0.00     0.040 C 
ENDBRANCH  28  29
ENDBRANCH  25  28
ENDBRANCH  21  22
ENDBRANCH  18  21
ENDBRANCH   3  17
TORSDOF 5
ENDMDL
MODEL 5
REMARK VINA RESULT:      -9.7      3.022     10.516
REMARK  5 active torsions:
REMARK  status: ('A' for Active; 'I' for Inactive)
REMARK    1  A    between atoms: C_3  and  C_4 
REMARK       I    between atoms: C_4  and  N_5 
REMARK    2  A    between atoms: N_5  and  C_6 
REMARK    3  A    between atoms: C_6  and  C_7 
REMARK    4  A    between atoms: C_10  and  O_11 
REMARK    5  A    between atoms: O_11  and  C_12 
ROOT
HETATM    1  C   UNL     1       9.435  30.437  58.538  1.00  0.00     0.052 C 
HETATM    2  C   UNL     1       8.033  30.532  58.052  1.00  0.00    -0.009 A 
HETATM    3  C   UNL     1       7.522  30.014  56.862  1.00  0.00     0.150 A 
HETATM    4  O   UNL     1       6.216  30.386  56.726  1.00  0.00    -0.304 OA
HETATM    5  C   UNL     1       5.864  31.100  57.817  1.00  0.00     0.088 A 
HETATM    6  C   UNL     1       6.936  31.224  58.696  1.00  0.00     0.020 A 
HETATM    7  C   UNL     1       6.697  31.950  59.893  1.00  0.00     0.011 A 
HETATM    8  C   UNL     1       5.419  32.493  60.124  1.00  0.00     0.081 A 
HETATM    9  O   UNL     1       5.099  33.218  61.240  1.00  0.00    -0.336 OA
HETATM   10  C   UNL     1       5.998  33.168  62.366  1.00  0.00     0.078 C 
HETATM   11  C   UNL     1       5.380  32.220  63.401  1.00  0.00     0.051 C 
HETATM   12  C   UNL     1       6.034  34.593  62.932  1.00  0.00     0.051 C 
HETATM   13  C   UNL     1       7.405  32.721  62.042  1.00  0.00     0.012 C 
HETATM   14  C   UNL     1       7.744  32.150  60.881  1.00  0.00     0.014 C 
HETATM   15  C   UNL     1       4.390  32.347  59.195  1.00  0.00     0.040 A 
HETATM   16  C   UNL     1       4.593  31.636  58.014  1.00  0.00     0.041 A 
ENDROOT
BRANCH   3  17
HETATM   17  C   UNL     1       8.067  29.215  55.777  1.00  0.00     0.276 C 
HETATM   18  N   UNL     1       7.167  28.396  55.121  1.00  0.00    -0.351 N 
HETATM   19  H   UNL     1       6.181  28.580  55.244  1.00  0.00     0.163 HD
HETATM   20  O   UNL     1       9.240  29.282  55.416  1.00  0.00    -0.265 OA
BRANCH  18  21
HETATM   21  C   UNL     1       7.579  27.721  53.912  1.00  0.00     0.161 C 
BRANCH  21  22
HETATM   22  C   UNL     1       7.464  26.224  54.022  1.00  0.00    -0.040 A 
HETATM   23  C   UNL     1       7.837  25.400  52.954  1.00  0.00     0.011 A 
HETATM   24  C   UNL     1       7.808  24.010  53.088  1.00  0.00     0.037 A 
HETATM   25  C   UNL     1       7.419  23.417  54.290  1.00  0.00     0.069 A 
HETATM   26  C   UNL     1       7.014  24.230  55.349  1.00  0.00     0.037 A 
HETATM   27  C   UNL     1       7.046  25.624  55.218  1.00  0.00     0.011 A 
BRANCH  25  28
HETATM   28  O   UNL     1       7.455  22.052  54.295  1.00  0.00    -0.347 OA
BRANCH  28  29
HETATM   29  C   UNL     1       8.733  21.408  54.246  1.00  0.00     0.120 C 
HETATM   30  C   UNL     1       9.027  20.777  55.602  1.00  0.00     0.040 C 
HETATM   31  C   UNL     1       8.649  20.329  53.168  1.00  0.00     0.040 C 
ENDBRANCH  28  29
ENDBRANCH  25  28
ENDBRANCH  21  22
ENDBRANCH  18  21
ENDBRANCH   3  17
TORSDOF 5
ENDMDL
MODEL 6
REMARK VINA RESULT:      -9.6      2.186     10.301
REMARK  5 active torsions:
REMARK  status: ('A' for Active; 'I' for Inactive)
REMARK    1  A    between atoms: C_3  and  C_4 
REMARK       I    between atoms: C_4  and  N_5 
REMARK    2  A    between atoms: N_5  and  C_6 
REMARK    3  A    between atoms: C_6  and  C_7 
REMARK    4  A    between atoms: C_10  and  O_11 
REMARK    5  A    between atoms: O_11  and  C_12 
ROOT
HETATM    1  C   UNL     1       6.105  32.350  58.926  1.00  0.00     0.052 C 
HETATM    2  C   UNL     1       7.110  32.326  60.023  1.00  0.00    -0.009 A 
HETATM    3  C   UNL     1       8.419  31.850  59.949  1.00  0.00     0.150 A 
HETATM    4  O   UNL     1       8.996  31.911  61.184  1.00  0.00    -0.304 OA
HETATM    5  C   UNL     1       8.103  32.448  62.043  1.00  0.00     0.088 A 
HETATM    6  C   UNL     1       6.908  32.746  61.393  1.00  0.00     0.020 A 
HETATM    7  C   UNL     1       5.881  33.326  62.184  1.00  0.00     0.011 A 
HETATM    8  C   UNL     1       6.118  33.564  63.552  1.00  0.00     0.081 A 
HETATM    9  O   UNL     1       5.185  34.105  64.395  1.00  0.00    -0.336 OA
HETATM   10  C   UNL     1       4.030  34.742  63.814  1.00  0.00     0.078 C 
HETATM   11  C   UNL     1       4.260  36.256  63.886  1.00  0.00     0.051 C 
HETATM   12  C   UNL     1       2.848  34.359  64.714  1.00  0.00     0.051 C 
HETATM   13  C   UNL     1       3.726  34.340  62.389  1.00  0.00     0.012 C 
HETATM   14  C   UNL     1       4.588  33.671  61.616  1.00  0.00     0.014 C 
HETATM   15  C   UNL     1       7.332  33.227  64.146  1.00  0.00     0.040 A 
HETATM   16  C   UNL     1       8.361  32.663  63.395  1.00  0.00     0.041 A 
ENDROOT
BRANCH   3  17
HETATM   17  C   UNL     1       9.252  31.310  58.888  1.00  0.00     0.276 C 
HETATM   18  N   UNL     1       8.897  30.058  58.421  1.00  0.00    -0.351 N 
HETATM   19  H   UNL     1       7.972  29.716  58.639  1.00  0.00     0.163 HD
HETATM   20  O   UNL     1      10.190  31.929  58.388  1.00  0.00    -0.265 OA
BRANCH  18  21
HETATM   21  C   UNL     1       9.547  29.536  57.241  1.00  0.00     0.161 C 
BRANCH  21  22
HETATM   22  C   UNL     1       8.730  28.470  56.560  1.00  0.00    -0.040 A 
HETATM   23  C   UNL     1       8.363  27.307  57.246  1.00  0.00     0.011 A 
HETATM   24  C   UNL     1       7.536  26.358  56.639  1.00  0.00     0.037 A 
HETATM   25  C   UNL     1       7.051  26.558  55.346  1.00  0.00     0.069 A 
HETATM   26  C   UNL     1       7.439  27.698  54.643  1.00  0.00     0.037 A 
HETATM   27  C   UNL     1       8.265  28.652  55.250  1.00  0.00     0.011 A 
BRANCH  25  28
HETATM   28  O   UNL     1       6.236  25.565  54.879  1.00  0.00    -0.347 OA
BRANCH  28  29
HETATM   29  C   UNL     1       6.488  25.039  53.572  1.00  0.00     0.120 C 
HETATM   30  C   UNL     1       7.212  23.704  53.702  1.00  0.00     0.040 C 
HETATM   31  C   UNL     1       5.130  24.842  52.901  1.00  0.00     0.040 C 
ENDBRANCH  28  29
ENDBRANCH  25  28
ENDBRANCH  21  22
ENDBRANCH  18  21
ENDBRANCH   3  17
TORSDOF 5
ENDMDL
MODEL 7
REMARK VINA RESULT:      -9.5      2.869      5.102
REMARK  5 active torsions:
REMARK  status: ('A' for Active; 'I' for Inactive)
REMARK    1  A    between atoms: C_3  and  C_4 
REMARK       I    between atoms: C_4  and  N_5 
REMARK    2  A    between atoms: N_5  and  C_6 
REMARK    3  A    between atoms: C_6  and  C_7 
REMARK    4  A    between atoms: C_10  and  O_11 
REMARK    5  A    between atoms: O_11  and  C_12 
ROOT
HETATM    1  C   UNL     1       5.289  25.704  57.032  1.00  0.00     0.052 C 
HETATM    2  C   UNL     1       5.754  26.265  55.735  1.00  0.00    -0.009 A 
HETATM    3  C   UNL     1       5.553  27.562  55.264  1.00  0.00     0.150 A 
HETATM    4  O   UNL     1       6.047  27.667  53.996  1.00  0.00    -0.304 OA
HETATM    5  C   UNL     1       6.593  26.480  53.654  1.00  0.00     0.088 A 
HETATM    6  C   UNL     1       6.463  25.559  54.689  1.00  0.00     0.020 A 
HETATM    7  C   UNL     1       7.005  24.265  54.462  1.00  0.00     0.011 A 
HETATM    8  C   UNL     1       7.631  23.990  53.232  1.00  0.00     0.081 A 
HETATM    9  O   UNL     1       8.169  22.770  52.918  1.00  0.00    -0.336 OA
HETATM   10  C   UNL     1       8.385  21.825  53.985  1.00  0.00     0.078 C 
HETATM   11  C   UNL     1       9.881  21.852  54.322  1.00  0.00     0.051 C 
HETATM   12  C   UNL     1       8.014  20.454  53.405  1.00  0.00     0.051 C 
HETATM   13  C   UNL     1       7.576  22.077  55.236  1.00  0.00     0.012 C 
HETATM   14  C   UNL     1       6.921  23.220  55.468  1.00  0.00     0.014 C 
HETATM   15  C   UNL     1       7.715  24.952  52.228  1.00  0.00     0.040 A 
HETATM   16  C   UNL     1       7.198  26.231  52.424  1.00  0.00     0.041 A 
ENDROOT
BRANCH   3  17
HETATM   17  C   UNL     1       4.940  28.763  55.804  1.00  0.00     0.276 C 
HETATM   18  N   UNL     1       5.783  29.845  55.976  1.00  0.00    -0.351 N 
HETATM   19  H   UNL     1       6.672  29.834  55.496  1.00  0.00     0.163 HD
HETATM   20  O   UNL     1       3.740  28.851  56.055  1.00  0.00    -0.265 OA
BRANCH  18  21
HETATM   21  C   UNL     1       5.221  31.130  56.320  1.00  0.00     0.161 C 
BRANCH  21  22
HETATM   22  C   UNL     1       5.728  31.645  57.640  1.00  0.00    -0.040 A 
HETATM   23  C   UNL     1       5.035  32.648  58.327  1.00  0.00     0.011 A 
HETATM   24  C   UNL     1       5.463  33.066  59.591  1.00  0.00     0.037 A 
HETATM   25  C   UNL     1       6.578  32.483  60.195  1.00  0.00     0.069 A 
HETATM   26  C   UNL     1       7.293  31.506  59.503  1.00  0.00     0.037 A 
HETATM   27  C   UNL     1       6.865  31.084  58.239  1.00  0.00     0.011 A 
BRANCH  25  28
HETATM   28  O   UNL     1       6.874  32.967  61.437  1.00  0.00    -0.347 OA
BRANCH  28  29
HETATM   29  C   UNL     1       6.872  32.052  62.539  1.00  0.00     0.120 C 
HETATM   30  C   UNL     1       7.885  32.520  63.578  1.00  0.00     0.040 C 
HETATM   31  C   UNL     1       5.464  32.067  63.130  1.00  0.00     0.040 C 
ENDBRANCH  28  29
ENDBRANCH  25  28
ENDBRANCH  21  22
ENDBRANCH  18  21
ENDBRANCH   3  17
TORSDOF 5
ENDMDL
MODEL 8
REMARK VINA RESULT:      -9.4      1.991     10.350
REMARK  5 active torsions:
REMARK  status: ('A' for Active; 'I' for Inactive)
REMARK    1  A    between atoms: C_3  and  C_4 
REMARK       I    between atoms: C_4  and  N_5 
REMARK    2  A    between atoms: N_5  and  C_6 
REMARK    3  A    between atoms: C_6  and  C_7 
REMARK    4  A    between atoms: C_10  and  O_11 
REMARK    5  A    between atoms: O_11  and  C_12 
ROOT
HETATM    1  C   UNL     1       9.498  31.980  61.751  1.00  0.00     0.052 C 
HETATM    2  C   UNL     1       8.310  32.136  60.869  1.00  0.00    -0.009 A 
HETATM    3  C   UNL     1       8.174  31.677  59.559  1.00  0.00     0.150 A 
HETATM    4  O   UNL     1       6.978  32.096  59.052  1.00  0.00    -0.304 OA
HETATM    5  C   UNL     1       6.326  32.781  60.016  1.00  0.00     0.088 A 
HETATM    6  C   UNL     1       7.084  32.839  61.182  1.00  0.00     0.020 A 
HETATM    7  C   UNL     1       6.508  33.529  62.282  1.00  0.00     0.011 A 
HETATM    8  C   UNL     1       5.231  34.104  62.139  1.00  0.00     0.081 A 
HETATM    9  O   UNL     1       4.602  34.798  63.138  1.00  0.00    -0.336 OA
HETATM   10  C   UNL     1       5.117  34.679  64.480  1.00  0.00     0.078 C 
HETATM   11  C   UNL     1       4.196  33.715  65.237  1.00  0.00     0.051 C 
HETATM   12  C   UNL     1       5.008  36.082  65.092  1.00  0.00     0.051 C 
HETATM   13  C   UNL     1       6.547  34.200  64.576  1.00  0.00     0.012 C 
HETATM   14  C   UNL     1       7.211  33.661  63.547  1.00  0.00     0.014 C 
HETATM   15  C   UNL     1       4.529  34.024  60.938  1.00  0.00     0.040 A 
HETATM   16  C   UNL     1       5.066  33.349  59.844  1.00  0.00     0.041 A 
ENDROOT
BRANCH   3  17
HETATM   17  C   UNL     1       9.006  30.901  58.656  1.00  0.00     0.276 C 
HETATM   18  N   UNL     1       8.485  29.686  58.250  1.00  0.00    -0.351 N 
HETATM   19  H   UNL     1       7.496  29.528  58.380  1.00  0.00     0.163 HD
HETATM   20  O   UNL     1      10.087  31.299  58.226  1.00  0.00    -0.265 OA
BRANCH  18  21
HETATM   21  C   UNL     1       9.152  28.946  57.205  1.00  0.00     0.161 C 
BRANCH  21  22
HETATM   22  C   UNL     1       8.264  27.901  56.584  1.00  0.00    -0.040 A 
HETATM   23  C   UNL     1       7.806  28.046  55.270  1.00  0.00     0.011 A 
HETATM   24  C   UNL     1       7.050  27.036  54.669  1.00  0.00     0.037 A 
HETATM   25  C   UNL     1       6.750  25.861  55.360  1.00  0.00     0.069 A 
HETATM   26  C   UNL     1       7.176  25.723  56.681  1.00  0.00     0.037 A 
HETATM   27  C   UNL     1       7.935  26.732  57.285  1.00  0.00     0.011 A 
BRANCH  25  28
HETATM   28  O   UNL     1       6.025  24.947  54.650  1.00  0.00    -0.347 OA
BRANCH  28  29
HETATM   29  C   UNL     1       6.303  24.798  53.253  1.00  0.00     0.120 C 
HETATM   30  C   UNL     1       7.101  23.518  53.037  1.00  0.00     0.040 C 
HETATM   31  C   UNL     1       4.956  24.710  52.537  1.00  0.00     0.040 C 
ENDBRANCH  28  29
ENDBRANCH  25  28
ENDBRANCH  21  22
ENDBRANCH  18  21
ENDBRANCH   3  17
TORSDOF 5
ENDMDL
MODEL 9
REMARK VINA RESULT:      -9.3      3.002      4.945
REMARK  5 active torsions:
REMARK  status: ('A' for Active; 'I' for Inactive)
REMARK    1  A    between atoms: C_3  and  C_4 
REMARK       I    between atoms: C_4  and  N_5 
REMARK    2  A    between atoms: N_5  and  C_6 
REMARK    3  A    between atoms: C_6  and  C_7 
REMARK    4  A    between atoms: C_10  and  O_11 
REMARK    5  A    between atoms: O_11  and  C_12 
ROOT
HETATM    1  C   UNL     1       5.125  26.625  53.620  1.00  0.00     0.052 C 
HETATM    2  C   UNL     1       5.874  26.705  54.903  1.00  0.00    -0.009 A 
HETATM    3  C   UNL     1       5.816  27.734  55.843  1.00  0.00     0.150 A 
HETATM    4  O   UNL     1       6.716  27.491  56.839  1.00  0.00    -0.304 OA
HETATM    5  C   UNL     1       7.325  26.313  56.582  1.00  0.00     0.088 A 
HETATM    6  C   UNL     1       6.845  25.755  55.401  1.00  0.00     0.020 A 
HETATM    7  C   UNL     1       7.400  24.505  55.016  1.00  0.00     0.011 A 
HETATM    8  C   UNL     1       8.382  23.909  55.831  1.00  0.00     0.081 A 
HETATM    9  O   UNL     1       8.982  22.715  55.534  1.00  0.00    -0.336 OA
HETATM   10  C   UNL     1       8.379  21.880  54.525  1.00  0.00     0.078 C 
HETATM   11  C   UNL     1       7.622  20.762  55.251  1.00  0.00     0.051 C 
HETATM   12  C   UNL     1       9.547  21.279  53.732  1.00  0.00     0.051 C 
HETATM   13  C   UNL     1       7.445  22.597  53.577  1.00  0.00     0.012 C 
HETATM   14  C   UNL     1       6.982  23.832  53.797  1.00  0.00     0.014 C 
HETATM   15  C   UNL     1       8.832  24.528  56.995  1.00  0.00     0.040 A 
HETATM   16  C   UNL     1       8.302  25.751  57.401  1.00  0.00     0.041 A 
ENDROOT
BRANCH   3  17
HETATM   17  C   UNL     1       5.051  28.962  55.969  1.00  0.00     0.276 C 
HETATM   18  N   UNL     1       4.594  29.260  57.240  1.00  0.00    -0.351 N 
HETATM   19  H   UNL     1       5.018  28.778  58.021  1.00  0.00     0.163 HD
HETATM   20  O   UNL     1       4.849  29.729  55.030  1.00  0.00    -0.265 OA
BRANCH  18  21
HETATM   21  C   UNL     1       3.999  30.552  57.491  1.00  0.00     0.161 C 
BRANCH  21  22
HETATM   22  C   UNL     1       4.747  31.336  58.536  1.00  0.00    -0.040 A 
HETATM   23  C   UNL     1       4.070  31.903  59.621  1.00  0.00     0.011 A 
HETATM   24  C   UNL     1       4.778  32.560  60.631  1.00  0.00     0.037 A 
HETATM   25  C   UNL     1       6.170  32.652  60.584  1.00  0.00     0.069 A 
HETATM   26  C   UNL     1       6.849  32.118  59.489  1.00  0.00     0.037 A 
HETATM   27  C   UNL     1       6.143  31.456  58.477  1.00  0.00     0.011 A 
BRANCH  25  28
HETATM   28  O   UNL     1       6.738  33.299  61.644  1.00  0.00    -0.347 OA
BRANCH  28  29
HETATM   29  C   UNL     1       7.050  32.537  62.815  1.00  0.00     0.120 C 
HETATM   30  C   UNL     1       8.381  31.823  62.607  1.00  0.00     0.040 C 
HETATM   31  C   UNL     1       7.157  33.526  63.975  1.00  0.00     0.040 C 
ENDBRANCH  28  29
ENDBRANCH  25  28
ENDBRANCH  21  22
ENDBRANCH  18  21
ENDBRANCH   3  17
TORSDOF 5
ENDMDL
MODEL 10
REMARK VINA RESULT:      -9.3      2.927     10.599
REMARK  5 active torsions:
REMARK  status: ('A' for Active; 'I' for Inactive)
REMARK    1  A    between atoms: C_3  and  C_4 
REMARK       I    between atoms: C_4  and  N_5 
REMARK    2  A    between atoms: N_5  and  C_6 
REMARK    3  A    between atoms: C_6  and  C_7 
REMARK    4  A    between atoms: C_10  and  O_11 
REMARK    5  A    between atoms: O_11  and  C_12 
ROOT
HETATM    1  C   UNL     1       8.226  28.270  56.947  1.00  0.00     0.052 C 
HETATM    2  C   UNL     1       7.141  29.280  56.823  1.00  0.00    -0.009 A 
HETATM    3  C   UNL     1       6.224  29.400  55.778  1.00  0.00     0.150 A 
HETATM    4  O   UNL     1       5.447  30.504  55.979  1.00  0.00    -0.304 OA
HETATM    5  C   UNL     1       5.818  31.076  57.145  1.00  0.00     0.088 A 
HETATM    6  C   UNL     1       6.858  30.365  57.738  1.00  0.00     0.020 A 
HETATM    7  C   UNL     1       7.340  30.859  58.979  1.00  0.00     0.011 A 
HETATM    8  C   UNL     1       6.755  32.013  59.533  1.00  0.00     0.081 A 
HETATM    9  O   UNL     1       7.162  32.570  60.716  1.00  0.00    -0.336 OA
HETATM   10  C   UNL     1       8.003  31.785  61.585  1.00  0.00     0.078 C 
HETATM   11  C   UNL     1       7.114  31.240  62.709  1.00  0.00     0.051 C 
HETATM   12  C   UNL     1       9.027  32.767  62.170  1.00  0.00     0.051 C 
HETATM   13  C   UNL     1       8.731  30.644  60.911  1.00  0.00     0.012 C 
HETATM   14  C   UNL     1       8.428  30.204  59.685  1.00  0.00     0.014 C 
HETATM   15  C   UNL     1       5.726  32.690  58.881  1.00  0.00     0.040 A 
HETATM   16  C   UNL     1       5.228  32.226  57.665  1.00  0.00     0.041 A 
ENDROOT
BRANCH   3  17
HETATM   17  C   UNL     1       5.947  28.644  54.569  1.00  0.00     0.276 C 
HETATM   18  N   UNL     1       7.053  28.203  53.867  1.00  0.00    -0.351 N 
HETATM   19  H   UNL     1       7.945  28.197  54.343  1.00  0.00     0.163 HD
HETATM   20  O   UNL     1       4.809  28.361  54.198  1.00  0.00    -0.265 OA
BRANCH  18  21
HETATM   21  C   UNL     1       6.871  27.283  52.769  1.00  0.00     0.161 C 
BRANCH  21  22
HETATM   22  C   UNL     1       7.130  25.854  53.167  1.00  0.00    -0.040 A 
HETATM   23  C   UNL     1       6.826  25.409  54.458  1.00  0.00     0.011 A 
HETATM   24  C   UNL     1       6.991  24.064  54.800  1.00  0.00     0.037 A 
HETATM   25  C   UNL     1       7.447  23.139  53.859  1.00  0.00     0.069 A 
HETATM   26  C   UNL     1       7.783  23.581  52.580  1.00  0.00     0.037 A 
HETATM   27  C   UNL     1       7.617  24.928  52.234  1.00  0.00     0.011 A 
BRANCH  25  28
HETATM   28  O   UNL     1       7.542  21.856  54.316  1.00  0.00    -0.347 OA
BRANCH  28  29
HETATM   29  C   UNL     1       8.807  21.193  54.219  1.00  0.00     0.120 C 
HETATM   30  C   UNL     1       9.051  20.394  55.495  1.00  0.00     0.040 C 
HETATM   31  C   UNL     1       8.730  20.256  53.015  1.00  0.00     0.040 C 
ENDBRANCH  28  29
ENDBRANCH  25  28
ENDBRANCH  21  22
ENDBRANCH  18  21
ENDBRANCH   3  17
TORSDOF 5
ENDMDL
