MODEL 1
REMARK VINA RESULT:      -9.1      0.000      0.000
REMARK  8 active torsions:
REMARK  status: ('A' for Active; 'I' for Inactive)
REMARK    1  A    between atoms: O_2  and  C_3 
REMARK    2  A    between atoms: C_3  and  C_4 
REMARK    3  A    between atoms: C_5  and  C_6 
REMARK    4  A    between atoms: C_6  and  C_7 
REMARK    5  A    between atoms: C_7  and  N_8 
REMARK    6  A    between atoms: N_13  and  C_14 
REMARK    7  A    between atoms: C_14  and  C_15 
REMARK    8  A    between atoms: C_15  and  N_16 
ROOT
HETATM    1  N   UNL     1       7.122  29.236  56.916  1.00  0.00    -0.174 N 
HETATM    2  C   UNL     1       6.447  30.059  57.785  1.00  0.00     0.681 C 
HETATM    3  N   UNL     1       5.114  30.200  57.792  1.00  0.00    -0.234 N 
HETATM    4  H   UNL     1       4.637  30.883  58.361  1.00  0.00     0.174 HD
HETATM    5  H   UNL     1       4.568  29.862  57.001  1.00  0.00     0.174 HD
HETATM    6  N   UNL     1       7.299  30.737  58.668  1.00  0.00    -0.180 N 
HETATM    7  C   UNL     1       8.606  30.489  58.138  1.00  0.00     0.079 A 
HETATM    8  C   UNL     1       8.497  29.559  57.090  1.00  0.00     0.079 A 
HETATM    9  C   UNL     1       9.817  31.056  58.473  1.00  0.00     0.032 A 
HETATM   10  C   UNL     1      10.935  30.664  57.729  1.00  0.00     0.002 A 
HETATM   11  C   UNL     1      10.824  29.725  56.684  1.00  0.00     0.002 A 
HETATM   12  C   UNL     1       9.590  29.158  56.354  1.00  0.00     0.032 A 
ENDROOT
BRANCH   1  13
HETATM   13  C   UNL     1       6.568  28.386  55.860  1.00  0.00     0.231 C 
BRANCH  13  14
HETATM   14  C   UNL     1       6.109  27.085  56.480  1.00  0.00     0.179 C 
HETATM   15  O   UNL     1       5.014  26.970  57.024  1.00  0.00    -0.290 OA
BRANCH  14  16
HETATM   16  C   UNL     1       7.047  25.943  56.451  1.00  0.00     0.028 A 
HETATM   17  C   UNL     1       7.164  25.161  55.294  1.00  0.00     0.053 A 
HETATM   18  C   UNL     1       8.103  24.123  55.245  1.00  0.00     0.018 A 
HETATM   19  C   UNL     1       8.909  23.865  56.355  1.00  0.00     0.001 A 
HETATM   20  C   UNL     1       8.780  24.634  57.512  1.00  0.00     0.001 A 
HETATM   21  C   UNL     1       7.853  25.677  57.565  1.00  0.00     0.016 A 
BRANCH  17  22
HETATM   22  C   UNL     1       6.231  25.366  54.167  1.00  0.00     0.293 C 
HETATM   23  O   UNL     1       5.069  24.976  54.197  1.00  0.00    -0.259 OA
BRANCH  22  24
HETATM   24  O   UNL     1       6.874  26.042  53.196  1.00  0.00    -0.322 OA
HETATM   25  C   UNL     1       6.911  25.434  51.904  1.00  0.00     0.213 C 
ENDBRANCH  22  24
ENDBRANCH  17  22
ENDBRANCH  14  16
ENDBRANCH  13  14
ENDBRANCH   1  13
BRANCH   6  26
HETATM   26  C   UNL     1       6.937  31.731  59.687  1.00  0.00     0.175 C 
BRANCH  26  27
HETATM   27  C   UNL     1       7.518  31.436  61.090  1.00  0.00     0.255 C 
BRANCH  27  28
HETATM   28  N   UNL     1       7.054  32.409  62.169  1.00  0.00    -0.070 N 
HETATM   29  H   UNL     1       7.066  33.360  61.778  1.00  0.00     0.279 HD
HETATM   30  C   UNL     1       5.646  32.124  62.669  1.00  0.00     0.235 C 
HETATM   31  C   UNL     1       5.232  33.195  63.668  1.00  0.00     0.028 C 
HETATM   32  C   UNL     1       6.195  33.262  64.845  1.00  0.00     0.003 C 
HETATM   33  C   UNL     1       7.628  33.457  64.365  1.00  0.00     0.028 C 
HETATM   34  C   UNL     1       8.032  32.404  63.344  1.00  0.00     0.235 C 
ENDBRANCH  27  28
ENDBRANCH  26  27
ENDBRANCH   6  26
TORSDOF 8
ENDMDL
MODEL 2
REMARK VINA RESULT:      -9.1      3.386      6.366
REMARK  8 active torsions:
REMARK  status: ('A' for Active; 'I' for Inactive)
REMARK    1  A    between atoms: O_2  and  C_3 
REMARK    2  A    between atoms: C_3  and  C_4 
REMARK    3  A    between atoms: C_5  and  C_6 
REMARK    4  A    between atoms: C_6  and  C_7 
REMARK    5  A    between atoms: C_7  and  N_8 
REMARK    6  A    between atoms: N_13  and  C_14 
REMARK    7  A    between atoms: C_14  and  C_15 
REMARK    8  A    between atoms: C_15  and  N_16 
ROOT
HETATM    1  N   UNL     1       5.333  25.840  53.063  1.00  0.00    -0.174 N 
HETATM    2  C   UNL     1       4.977  26.594  54.155  1.00  0.00     0.681 C 
HETATM    3  N   UNL     1       4.870  26.100  55.397  1.00  0.00    -0.234 N 
HETATM    4  H   UNL     1       4.507  26.636  56.172  1.00  0.00     0.174 HD
HETATM    5  H   UNL     1       4.837  25.091  55.536  1.00  0.00     0.174 HD
HETATM    6  N   UNL     1       4.739  27.938  53.837  1.00  0.00    -0.180 N 
HETATM    7  C   UNL     1       4.717  27.949  52.404  1.00  0.00     0.079 A 
HETATM    8  C   UNL     1       5.101  26.680  51.938  1.00  0.00     0.079 A 
HETATM    9  C   UNL     1       4.336  28.949  51.535  1.00  0.00     0.032 A 
HETATM   10  C   UNL     1       4.353  28.650  50.168  1.00  0.00     0.002 A 
HETATM   11  C   UNL     1       4.747  27.380  49.704  1.00  0.00     0.002 A 
HETATM   12  C   UNL     1       5.128  26.374  50.596  1.00  0.00     0.032 A 
ENDROOT
BRANCH   1  13
HETATM   13  C   UNL     1       5.647  24.409  53.015  1.00  0.00     0.231 C 
BRANCH  13  14
HETATM   14  C   UNL     1       7.124  24.232  53.284  1.00  0.00     0.179 C 
HETATM   15  O   UNL     1       7.940  25.128  53.079  1.00  0.00    -0.290 OA
BRANCH  14  16
HETATM   16  C   UNL     1       7.579  22.913  53.773  1.00  0.00     0.028 A 
HETATM   17  C   UNL     1       7.695  22.678  55.150  1.00  0.00     0.053 A 
HETATM   18  C   UNL     1       8.059  21.407  55.612  1.00  0.00     0.018 A 
HETATM   19  C   UNL     1       8.316  20.384  54.698  1.00  0.00     0.001 A 
HETATM   20  C   UNL     1       8.215  20.624  53.327  1.00  0.00     0.001 A 
HETATM   21  C   UNL     1       7.844  21.886  52.859  1.00  0.00     0.016 A 
BRANCH  17  22
HETATM   22  C   UNL     1       7.534  23.793  56.106  1.00  0.00     0.293 C 
HETATM   23  O   UNL     1       6.444  24.106  56.572  1.00  0.00    -0.259 OA
BRANCH  22  24
HETATM   24  O   UNL     1       8.747  24.323  56.354  1.00  0.00    -0.322 OA
HETATM   25  C   UNL     1       9.063  24.597  57.720  1.00  0.00     0.213 C 
ENDBRANCH  22  24
ENDBRANCH  17  22
ENDBRANCH  14  16
ENDBRANCH  13  14
ENDBRANCH   1  13
BRANCH   6  26
HETATM   26  C   UNL     1       4.291  29.012  54.732  1.00  0.00     0.175 C 
BRANCH  26  27
HETATM   27  C   UNL     1       5.416  29.979  55.171  1.00  0.00     0.255 C 
BRANCH  27  28
HETATM   28  N   UNL     1       6.374  29.387  56.200  1.00  0.00    -0.070 N 
HETATM   29  H   UNL     1       5.914  28.586  56.651  1.00  0.00     0.279 HD
HETATM   30  C   UNL     1       7.680  28.899  55.592  1.00  0.00     0.235 C 
HETATM   31  C   UNL     1       8.530  28.240  56.669  1.00  0.00     0.028 C 
HETATM   32  C   UNL     1       8.820  29.199  57.816  1.00  0.00     0.003 C 
HETATM   33  C   UNL     1       7.527  29.773  58.384  1.00  0.00     0.028 C 
HETATM   34  C   UNL     1       6.663  30.405  57.303  1.00  0.00     0.235 C 
ENDBRANCH  27  28
ENDBRANCH  26  27
ENDBRANCH   6  26
TORSDOF 8
ENDMDL
MODEL 3
REMARK VINA RESULT:      -8.8      2.806      8.703
REMARK  8 active torsions:
REMARK  status: ('A' for Active; 'I' for Inactive)
REMARK    1  A    between atoms: O_2  and  C_3 
REMARK    2  A    between atoms: C_3  and  C_4 
REMARK    3  A    between atoms: C_5  and  C_6 
REMARK    4  A    between atoms: C_6  and  C_7 
REMARK    5  A    between atoms: C_7  and  N_8 
REMARK    6  A    between atoms: N_13  and  C_14 
REMARK    7  A    between atoms: C_14  and  C_15 
REMARK    8  A    between atoms: C_15  and  N_16 
ROOT
HETATM    1  N   UNL     1       6.479  27.237  56.309  1.00  0.00    -0.174 N 
HETATM    2  C   UNL     1       5.710  27.023  55.191  1.00  0.00     0.681 C 
HETATM    3  N   UNL     1       4.630  27.754  54.879  1.00  0.00    -0.234 N 
HETATM    4  H   UNL     1       4.013  27.523  54.114  1.00  0.00     0.174 HD
HETATM    5  H   UNL     1       4.213  28.361  55.583  1.00  0.00     0.174 HD
HETATM    6  N   UNL     1       6.174  25.959  54.405  1.00  0.00    -0.180 N 
HETATM    7  C   UNL     1       7.158  25.328  55.233  1.00  0.00     0.079 A 
HETATM    8  C   UNL     1       7.357  26.120  56.377  1.00  0.00     0.079 A 
HETATM    9  C   UNL     1       7.809  24.124  55.070  1.00  0.00     0.032 A 
HETATM   10  C   UNL     1       8.681  23.725  56.089  1.00  0.00     0.002 A 
HETATM   11  C   UNL     1       8.885  24.524  57.230  1.00  0.00     0.002 A 
HETATM   12  C   UNL     1       8.217  25.742  57.384  1.00  0.00     0.032 A 
ENDROOT
BRANCH   1  13
HETATM   13  C   UNL     1       6.294  28.248  57.354  1.00  0.00     0.231 C 
BRANCH  13  14
HETATM   14  C   UNL     1       6.807  29.573  56.838  1.00  0.00     0.179 C 
HETATM   15  O   UNL     1       6.081  30.376  56.258  1.00  0.00    -0.290 OA
BRANCH  14  16
HETATM   16  C   UNL     1       8.245  29.867  57.016  1.00  0.00     0.028 A 
HETATM   17  C   UNL     1       8.673  30.648  58.098  1.00  0.00     0.053 A 
HETATM   18  C   UNL     1      10.041  30.867  58.304  1.00  0.00     0.018 A 
HETATM   19  C   UNL     1      10.971  30.318  57.421  1.00  0.00     0.001 A 
HETATM   20  C   UNL     1      10.543  29.554  56.334  1.00  0.00     0.001 A 
HETATM   21  C   UNL     1       9.181  29.323  56.128  1.00  0.00     0.016 A 
BRANCH  17  22
HETATM   22  C   UNL     1       7.679  31.320  58.962  1.00  0.00     0.293 C 
HETATM   23  O   UNL     1       7.016  32.277  58.577  1.00  0.00    -0.259 OA
BRANCH  22  24
HETATM   24  O   UNL     1       7.645  30.686  60.150  1.00  0.00    -0.322 OA
HETATM   25  C   UNL     1       7.895  31.480  61.310  1.00  0.00     0.213 C 
ENDBRANCH  22  24
ENDBRANCH  17  22
ENDBRANCH  14  16
ENDBRANCH  13  14
ENDBRANCH   1  13
BRANCH   6  26
HETATM   26  C   UNL     1       5.576  25.415  53.179  1.00  0.00     0.175 C 
BRANCH  26  27
HETATM   27  C   UNL     1       6.477  25.542  51.928  1.00  0.00     0.255 C 
BRANCH  27  28
HETATM   28  N   UNL     1       5.883  26.408  50.822  1.00  0.00    -0.070 N 
HETATM   29  H   UNL     1       6.578  26.496  50.068  1.00  0.00     0.279 HD
HETATM   30  C   UNL     1       4.612  25.827  50.223  1.00  0.00     0.235 C 
HETATM   31  C   UNL     1       4.145  26.701  49.068  1.00  0.00     0.028 C 
HETATM   32  C   UNL     1       3.897  28.135  49.519  1.00  0.00     0.003 C 
HETATM   33  C   UNL     1       5.130  28.710  50.205  1.00  0.00     0.028 C 
HETATM   34  C   UNL     1       5.615  27.820  51.340  1.00  0.00     0.235 C 
ENDBRANCH  27  28
ENDBRANCH  26  27
ENDBRANCH   6  26
TORSDOF 8
ENDMDL
MODEL 4
REMARK VINA RESULT:      -8.7      5.502      9.248
REMARK  8 active torsions:
REMARK  status: ('A' for Active; 'I' for Inactive)
REMARK    1  A    between atoms: O_2  and  C_3 
REMARK    2  A    between atoms: C_3  and  C_4 
REMARK    3  A    between atoms: C_5  and  C_6 
REMARK    4  A    between atoms: C_6  and  C_7 
REMARK    5  A    between atoms: C_7  and  N_8 
REMARK    6  A    between atoms: N_13  and  C_14 
REMARK    7  A    between atoms: C_14  and  C_15 
REMARK    8  A    between atoms: C_15  and  N_16 
ROOT
HETATM    1  N   UNL     1       5.116  26.258  52.866  1.00  0.00    -0.174 N 
HETATM    2  C   UNL     1       5.303  26.826  51.629  1.00  0.00     0.681 C 
HETATM    3  N   UNL     1       5.776  26.159  50.567  1.00  0.00    -0.234 N 
HETATM    4  H   UNL     1       6.008  26.609  49.694  1.00  0.00     0.174 HD
HETATM    5  H   UNL     1       6.223  25.253  50.701  1.00  0.00     0.174 HD
HETATM    6  N   UNL     1       4.944  28.181  51.591  1.00  0.00    -0.180 N 
HETATM    7  C   UNL     1       4.750  28.521  52.969  1.00  0.00     0.079 A 
HETATM    8  C   UNL     1       4.832  27.347  53.737  1.00  0.00     0.079 A 
HETATM    9  C   UNL     1       4.575  29.755  53.558  1.00  0.00     0.032 A 
HETATM   10  C   UNL     1       4.478  29.790  54.953  1.00  0.00     0.002 A 
HETATM   11  C   UNL     1       4.552  28.610  55.720  1.00  0.00     0.002 A 
HETATM   12  C   UNL     1       4.731  27.366  55.111  1.00  0.00     0.032 A 
ENDROOT
BRANCH   1  13
HETATM   13  C   UNL     1       5.387  24.878  53.278  1.00  0.00     0.231 C 
BRANCH  13  14
HETATM   14  C   UNL     1       6.875  24.724  53.495  1.00  0.00     0.179 C 
HETATM   15  O   UNL     1       7.668  25.632  53.260  1.00  0.00    -0.290 OA
BRANCH  14  16
HETATM   16  C   UNL     1       7.367  23.413  53.970  1.00  0.00     0.028 A 
HETATM   17  C   UNL     1       7.428  23.143  55.344  1.00  0.00     0.053 A 
HETATM   18  C   UNL     1       7.829  21.877  55.789  1.00  0.00     0.018 A 
HETATM   19  C   UNL     1       8.176  20.894  54.861  1.00  0.00     0.001 A 
HETATM   20  C   UNL     1       8.130  21.170  53.494  1.00  0.00     0.001 A 
HETATM   21  C   UNL     1       7.723  22.427  53.042  1.00  0.00     0.016 A 
BRANCH  17  22
HETATM   22  C   UNL     1       7.169  24.221  56.321  1.00  0.00     0.293 C 
HETATM   23  O   UNL     1       6.042  24.488  56.721  1.00  0.00    -0.259 OA
BRANCH  22  24
HETATM   24  O   UNL     1       8.347  24.777  56.667  1.00  0.00    -0.322 OA
HETATM   25  C   UNL     1       8.305  26.116  57.161  1.00  0.00     0.213 C 
ENDBRANCH  22  24
ENDBRANCH  17  22
ENDBRANCH  14  16
ENDBRANCH  13  14
ENDBRANCH   1  13
BRANCH   6  26
HETATM   26  C   UNL     1       5.060  29.114  50.462  1.00  0.00     0.175 C 
BRANCH  26  27
HETATM   27  C   UNL     1       3.711  29.453  49.783  1.00  0.00     0.255 C 
BRANCH  27  28
HETATM   28  N   UNL     1       3.032  28.258  49.123  1.00  0.00    -0.070 N 
HETATM   29  H   UNL     1       2.985  27.492  49.808  1.00  0.00     0.279 HD
HETATM   30  C   UNL     1       1.617  28.557  48.654  1.00  0.00     0.235 C 
HETATM   31  C   UNL     1       0.984  27.288  48.099  1.00  0.00     0.028 C 
HETATM   32  C   UNL     1       1.801  26.715  46.949  1.00  0.00     0.003 C 
HETATM   33  C   UNL     1       3.249  26.491  47.369  1.00  0.00     0.028 C 
HETATM   34  C   UNL     1       3.872  27.751  47.952  1.00  0.00     0.235 C 
ENDBRANCH  27  28
ENDBRANCH  26  27
ENDBRANCH   6  26
TORSDOF 8
ENDMDL
MODEL 5
REMARK VINA RESULT:      -8.6      2.580      4.811
REMARK  8 active torsions:
REMARK  status: ('A' for Active; 'I' for Inactive)
REMARK    1  A    between atoms: O_2  and  C_3 
REMARK    2  A    between atoms: C_3  and  C_4 
REMARK    3  A    between atoms: C_5  and  C_6 
REMARK    4  A    between atoms: C_6  and  C_7 
REMARK    5  A    between atoms: C_7  and  N_8 
REMARK    6  A    between atoms: N_13  and  C_14 
REMARK    7  A    between atoms: C_14  and  C_15 
REMARK    8  A    between atoms: C_15  and  N_16 
ROOT
HETATM    1  N   UNL     1       4.716  27.873  54.663  1.00  0.00    -0.174 N 
HETATM    2  C   UNL     1       4.545  28.263  55.969  1.00  0.00     0.681 C 
HETATM    3  N   UNL     1       4.671  27.434  57.016  1.00  0.00    -0.234 N 
HETATM    4  H   UNL     1       4.442  27.704  57.961  1.00  0.00     0.174 HD
HETATM    5  H   UNL     1       4.684  26.427  56.861  1.00  0.00     0.174 HD
HETATM    6  N   UNL     1       4.227  29.622  56.096  1.00  0.00    -0.180 N 
HETATM    7  C   UNL     1       3.949  30.033  54.753  1.00  0.00     0.079 A 
HETATM    8  C   UNL     1       4.270  28.977  53.884  1.00  0.00     0.079 A 
HETATM    9  C   UNL     1       3.399  31.207  54.284  1.00  0.00     0.032 A 
HETATM   10  C   UNL     1       3.178  31.306  52.906  1.00  0.00     0.002 A 
HETATM   11  C   UNL     1       3.508  30.248  52.037  1.00  0.00     0.002 A 
HETATM   12  C   UNL     1       4.063  29.062  52.524  1.00  0.00     0.032 A 
ENDROOT
BRANCH   1  13
HETATM   13  C   UNL     1       5.045  26.539  54.153  1.00  0.00     0.231 C 
BRANCH  13  14
HETATM   14  C   UNL     1       6.550  26.415  54.068  1.00  0.00     0.179 C 
HETATM   15  O   UNL     1       7.287  27.397  54.021  1.00  0.00    -0.290 OA
BRANCH  14  16
HETATM   16  C   UNL     1       7.123  25.054  54.003  1.00  0.00     0.028 A 
HETATM   17  C   UNL     1       7.336  24.325  55.180  1.00  0.00     0.053 A 
HETATM   18  C   UNL     1       7.814  23.010  55.110  1.00  0.00     0.018 A 
HETATM   19  C   UNL     1       8.087  22.436  53.868  1.00  0.00     0.001 A 
HETATM   20  C   UNL     1       7.889  23.170  52.697  1.00  0.00     0.001 A 
HETATM   21  C   UNL     1       7.404  24.477  52.758  1.00  0.00     0.016 A 
BRANCH  17  22
HETATM   22  C   UNL     1       7.154  24.976  56.495  1.00  0.00     0.293 C 
HETATM   23  O   UNL     1       6.089  24.944  57.101  1.00  0.00    -0.259 OA
BRANCH  22  24
HETATM   24  O   UNL     1       8.324  25.535  56.860  1.00  0.00    -0.322 OA
HETATM   25  C   UNL     1       8.278  26.895  57.296  1.00  0.00     0.213 C 
ENDBRANCH  22  24
ENDBRANCH  17  22
ENDBRANCH  14  16
ENDBRANCH  13  14
ENDBRANCH   1  13
BRANCH   6  26
HETATM   26  C   UNL     1       3.924  30.367  57.325  1.00  0.00     0.175 C 
BRANCH  26  27
HETATM   27  C   UNL     1       4.942  31.485  57.653  1.00  0.00     0.255 C 
BRANCH  27  28
HETATM   28  N   UNL     1       5.991  31.084  58.685  1.00  0.00    -0.070 N 
HETATM   29  H   UNL     1       5.587  30.361  59.295  1.00  0.00     0.279 HD
HETATM   30  C   UNL     1       7.259  30.520  58.064  1.00  0.00     0.235 C 
HETATM   31  C   UNL     1       8.206  30.059  59.163  1.00  0.00     0.028 C 
HETATM   32  C   UNL     1       8.556  31.198  60.112  1.00  0.00     0.003 C 
HETATM   33  C   UNL     1       7.295  31.840  60.679  1.00  0.00     0.028 C 
HETATM   34  C   UNL     1       6.335  32.273  59.581  1.00  0.00     0.235 C 
ENDBRANCH  27  28
ENDBRANCH  26  27
ENDBRANCH   6  26
TORSDOF 8
ENDMDL
MODEL 6
REMARK VINA RESULT:      -8.4      4.015      6.424
REMARK  8 active torsions:
REMARK  status: ('A' for Active; 'I' for Inactive)
REMARK    1  A    between atoms: O_2  and  C_3 
REMARK    2  A    between atoms: C_3  and  C_4 
REMARK    3  A    between atoms: C_5  and  C_6 
REMARK    4  A    between atoms: C_6  and  C_7 
REMARK    5  A    between atoms: C_7  and  N_8 
REMARK    6  A    between atoms: N_13  and  C_14 
REMARK    7  A    between atoms: C_14  and  C_15 
REMARK    8  A    between atoms: C_15  and  N_16 
ROOT
HETATM    1  N   UNL     1       5.353  25.910  52.821  1.00  0.00    -0.174 N 
HETATM    2  C   UNL     1       5.035  26.744  53.866  1.00  0.00     0.681 C 
HETATM    3  N   UNL     1       4.932  26.335  55.139  1.00  0.00    -0.234 N 
HETATM    4  H   UNL     1       4.596  26.931  55.882  1.00  0.00     0.174 HD
HETATM    5  H   UNL     1       4.871  25.339  55.344  1.00  0.00     0.174 HD
HETATM    6  N   UNL     1       4.833  28.071  53.464  1.00  0.00    -0.180 N 
HETATM    7  C   UNL     1       4.790  27.991  52.035  1.00  0.00     0.079 A 
HETATM    8  C   UNL     1       5.129  26.683  51.648  1.00  0.00     0.079 A 
HETATM    9  C   UNL     1       4.426  28.943  51.107  1.00  0.00     0.032 A 
HETATM   10  C   UNL     1       4.414  28.556  49.763  1.00  0.00     0.002 A 
HETATM   11  C   UNL     1       4.763  27.247  49.377  1.00  0.00     0.002 A 
HETATM   12  C   UNL     1       5.128  26.290  50.328  1.00  0.00     0.032 A 
ENDROOT
BRANCH   1  13
HETATM   13  C   UNL     1       5.624  24.471  52.862  1.00  0.00     0.231 C 
BRANCH  13  14
HETATM   14  C   UNL     1       7.096  24.266  53.140  1.00  0.00     0.179 C 
HETATM   15  O   UNL     1       7.935  25.130  52.897  1.00  0.00    -0.290 OA
BRANCH  14  16
HETATM   16  C   UNL     1       7.516  22.958  53.686  1.00  0.00     0.028 A 
HETATM   17  C   UNL     1       7.575  22.763  55.072  1.00  0.00     0.053 A 
HETATM   18  C   UNL     1       7.905  21.503  55.586  1.00  0.00     0.018 A 
HETATM   19  C   UNL     1       8.187  20.450  54.714  1.00  0.00     0.001 A 
HETATM   20  C   UNL     1       8.143  20.651  53.333  1.00  0.00     0.001 A 
HETATM   21  C   UNL     1       7.805  21.902  52.814  1.00  0.00     0.016 A 
BRANCH  17  22
HETATM   22  C   UNL     1       7.388  23.908  55.988  1.00  0.00     0.293 C 
HETATM   23  O   UNL     1       6.286  24.237  56.411  1.00  0.00    -0.259 OA
BRANCH  22  24
HETATM   24  O   UNL     1       8.595  24.443  56.255  1.00  0.00    -0.322 OA
HETATM   25  C   UNL     1       8.976  24.517  57.629  1.00  0.00     0.213 C 
ENDBRANCH  22  24
ENDBRANCH  17  22
ENDBRANCH  14  16
ENDBRANCH  13  14
ENDBRANCH   1  13
BRANCH   6  26
HETATM   26  C   UNL     1       4.429  29.214  54.294  1.00  0.00     0.175 C 
BRANCH  26  27
HETATM   27  C   UNL     1       5.494  29.649  55.329  1.00  0.00     0.255 C 
BRANCH  27  28
HETATM   28  N   UNL     1       5.448  31.133  55.679  1.00  0.00    -0.070 N 
HETATM   29  H   UNL     1       6.383  31.532  55.526  1.00  0.00     0.279 HD
HETATM   30  C   UNL     1       4.457  31.918  54.834  1.00  0.00     0.235 C 
HETATM   31  C   UNL     1       4.548  33.397  55.182  1.00  0.00     0.028 C 
HETATM   32  C   UNL     1       4.274  33.640  56.660  1.00  0.00     0.003 C 
HETATM   33  C   UNL     1       5.196  32.794  57.530  1.00  0.00     0.028 C 
HETATM   34  C   UNL     1       5.128  31.319  57.161  1.00  0.00     0.235 C 
ENDBRANCH  27  28
ENDBRANCH  26  27
ENDBRANCH   6  26
TORSDOF 8
ENDMDL
MODEL 7
REMARK VINA RESULT:      -8.3      2.143      4.135
REMARK  8 active torsions:
REMARK  status: ('A' for Active; 'I' for Inactive)
REMARK    1  A    between atoms: O_2  and  C_3 
REMARK    2  A    between atoms: C_3  and  C_4 
REMARK    3  A    between atoms: C_5  and  C_6 
REMARK    4  A    between atoms: C_6  and  C_7 
REMARK    5  A    between atoms: C_7  and  N_8 
REMARK    6  A    between atoms: N_13  and  C_14 
REMARK    7  A    between atoms: C_14  and  C_15 
REMARK    8  A    between atoms: C_15  and  N_16 
ROOT
HETATM    1  N   UNL     1       5.563  27.150  55.600  1.00  0.00    -0.174 N 
HETATM    2  C   UNL     1       5.940  27.863  56.713  1.00  0.00     0.681 C 
HETATM    3  N   UNL     1       6.447  27.303  57.820  1.00  0.00    -0.234 N 
HETATM    4  H   UNL     1       6.622  27.822  58.668  1.00  0.00     0.174 HD
HETATM    5  H   UNL     1       6.366  26.296  57.957  1.00  0.00     0.174 HD
HETATM    6  N   UNL     1       5.742  29.244  56.569  1.00  0.00    -0.180 N 
HETATM    7  C   UNL     1       4.965  29.353  55.371  1.00  0.00     0.079 A 
HETATM    8  C   UNL     1       4.878  28.084  54.774  1.00  0.00     0.079 A 
HETATM    9  C   UNL     1       4.311  30.444  54.839  1.00  0.00     0.032 A 
HETATM   10  C   UNL     1       3.561  30.236  53.676  1.00  0.00     0.002 A 
HETATM   11  C   UNL     1       3.484  28.965  53.074  1.00  0.00     0.002 A 
HETATM   12  C   UNL     1       4.150  27.867  53.625  1.00  0.00     0.032 A 
ENDROOT
BRANCH   1  13
HETATM   13  C   UNL     1       5.620  25.701  55.394  1.00  0.00     0.231 C 
BRANCH  13  14
HETATM   14  C   UNL     1       7.063  25.300  55.186  1.00  0.00     0.179 C 
HETATM   15  O   UNL     1       7.992  26.082  55.369  1.00  0.00    -0.290 OA
BRANCH  14  16
HETATM   16  C   UNL     1       7.332  23.927  54.710  1.00  0.00     0.028 A 
HETATM   17  C   UNL     1       7.569  23.691  53.349  1.00  0.00     0.053 A 
HETATM   18  C   UNL     1       7.892  22.400  52.911  1.00  0.00     0.018 A 
HETATM   19  C   UNL     1       7.964  21.353  53.830  1.00  0.00     0.001 A 
HETATM   20  C   UNL     1       7.711  21.587  55.183  1.00  0.00     0.001 A 
HETATM   21  C   UNL     1       7.398  22.873  55.629  1.00  0.00     0.016 A 
BRANCH  17  22
HETATM   22  C   UNL     1       7.379  24.778  52.366  1.00  0.00     0.293 C 
HETATM   23  O   UNL     1       8.309  25.468  51.963  1.00  0.00    -0.259 OA
BRANCH  22  24
HETATM   24  O   UNL     1       6.078  24.820  52.020  1.00  0.00    -0.322 OA
HETATM   25  C   UNL     1       5.680  25.872  51.140  1.00  0.00     0.213 C 
ENDBRANCH  22  24
ENDBRANCH  17  22
ENDBRANCH  14  16
ENDBRANCH  13  14
ENDBRANCH   1  13
BRANCH   6  26
HETATM   26  C   UNL     1       5.978  30.298  57.564  1.00  0.00     0.175 C 
BRANCH  26  27
HETATM   27  C   UNL     1       7.456  30.435  58.000  1.00  0.00     0.255 C 
BRANCH  27  28
HETATM   28  N   UNL     1       7.644  30.641  59.499  1.00  0.00    -0.070 N 
HETATM   29  H   UNL     1       7.125  29.905  59.996  1.00  0.00     0.279 HD
HETATM   30  C   UNL     1       9.098  30.569  59.937  1.00  0.00     0.235 C 
HETATM   31  C   UNL     1       9.182  30.687  61.452  1.00  0.00     0.028 C 
HETATM   32  C   UNL     1       8.557  31.985  61.946  1.00  0.00     0.003 C 
HETATM   33  C   UNL     1       7.125  32.123  61.444  1.00  0.00     0.028 C 
HETATM   34  C   UNL     1       7.037  31.975  59.932  1.00  0.00     0.235 C 
ENDBRANCH  27  28
ENDBRANCH  26  27
ENDBRANCH   6  26
TORSDOF 8
ENDMDL
MODEL 8
REMARK VINA RESULT:      -8.2      3.049      9.061
REMARK  8 active torsions:
REMARK  status: ('A' for Active; 'I' for Inactive)
REMARK    1  A    between atoms: O_2  and  C_3 
REMARK    2  A    between atoms: C_3  and  C_4 
REMARK    3  A    between atoms: C_5  and  C_6 
REMARK    4  A    between atoms: C_6  and  C_7 
REMARK    5  A    between atoms: C_7  and  N_8 
REMARK    6  A    between atoms: N_13  and  C_14 
REMARK    7  A    between atoms: C_14  and  C_15 
REMARK    8  A    between atoms: C_15  and  N_16 
ROOT
HETATM    1  N   UNL     1       5.844  27.585  56.562  1.00  0.00    -0.174 N 
HETATM    2  C   UNL     1       6.887  26.705  56.717  1.00  0.00     0.681 C 
HETATM    3  N   UNL     1       7.761  26.757  57.733  1.00  0.00    -0.234 N 
HETATM    4  H   UNL     1       8.583  26.174  57.781  1.00  0.00     0.174 HD
HETATM    5  H   UNL     1       7.809  27.595  58.312  1.00  0.00     0.174 HD
HETATM    6  N   UNL     1       6.943  25.740  55.702  1.00  0.00    -0.180 N 
HETATM    7  C   UNL     1       6.006  26.216  54.728  1.00  0.00     0.079 A 
HETATM    8  C   UNL     1       5.324  27.322  55.264  1.00  0.00     0.079 A 
HETATM    9  C   UNL     1       5.778  25.787  53.438  1.00  0.00     0.032 A 
HETATM   10  C   UNL     1       4.835  26.494  52.685  1.00  0.00     0.002 A 
HETATM   11  C   UNL     1       4.146  27.597  53.228  1.00  0.00     0.002 A 
HETATM   12  C   UNL     1       4.389  28.023  54.536  1.00  0.00     0.032 A 
ENDROOT
BRANCH   1  13
HETATM   13  C   UNL     1       5.481  28.718  57.418  1.00  0.00     0.231 C 
BRANCH  13  14
HETATM   14  C   UNL     1       6.446  29.850  57.151  1.00  0.00     0.179 C 
HETATM   15  O   UNL     1       6.768  30.182  56.013  1.00  0.00    -0.290 OA
BRANCH  14  16
HETATM   16  C   UNL     1       7.037  30.538  58.319  1.00  0.00     0.028 A 
HETATM   17  C   UNL     1       6.374  31.626  58.902  1.00  0.00     0.053 A 
HETATM   18  C   UNL     1       6.901  32.231  60.050  1.00  0.00     0.018 A 
HETATM   19  C   UNL     1       8.091  31.754  60.601  1.00  0.00     0.001 A 
HETATM   20  C   UNL     1       8.758  30.680  60.010  1.00  0.00     0.001 A 
HETATM   21  C   UNL     1       8.234  30.066  58.871  1.00  0.00     0.016 A 
BRANCH  17  22
HETATM   22  C   UNL     1       5.178  32.198  58.249  1.00  0.00     0.293 C 
HETATM   23  O   UNL     1       4.046  31.786  58.475  1.00  0.00    -0.259 OA
BRANCH  22  24
HETATM   24  O   UNL     1       5.569  33.204  57.443  1.00  0.00    -0.322 OA
HETATM   25  C   UNL     1       4.696  34.330  57.349  1.00  0.00     0.213 C 
ENDBRANCH  22  24
ENDBRANCH  17  22
ENDBRANCH  14  16
ENDBRANCH  13  14
ENDBRANCH   1  13
BRANCH   6  26
HETATM   26  C   UNL     1       7.946  24.683  55.515  1.00  0.00     0.175 C 
BRANCH  26  27
HETATM   27  C   UNL     1       7.568  23.332  56.167  1.00  0.00     0.255 C 
BRANCH  27  28
HETATM   28  N   UNL     1       7.640  22.143  55.215  1.00  0.00    -0.070 N 
HETATM   29  H   UNL     1       6.779  21.591  55.319  1.00  0.00     0.279 HD
HETATM   30  C   UNL     1       7.766  22.550  53.756  1.00  0.00     0.235 C 
HETATM   31  C   UNL     1       7.734  21.309  52.875  1.00  0.00     0.028 C 
HETATM   32  C   UNL     1       8.848  20.337  53.239  1.00  0.00     0.003 C 
HETATM   33  C   UNL     1       8.798  19.984  54.720  1.00  0.00     0.028 C 
HETATM   34  C   UNL     1       8.800  21.225  55.600  1.00  0.00     0.235 C 
ENDBRANCH  27  28
ENDBRANCH  26  27
ENDBRANCH   6  26
TORSDOF 8
ENDMDL
MODEL 9
REMARK VINA RESULT:      -8.2      3.141      6.600
REMARK  8 active torsions:
REMARK  status: ('A' for Active; 'I' for Inactive)
REMARK    1  A    between atoms: O_2  and  C_3 
REMARK    2  A    between atoms: C_3  and  C_4 
REMARK    3  A    between atoms: C_5  and  C_6 
REMARK    4  A    between atoms: C_6  and  C_7 
REMARK    5  A    between atoms: C_7  and  N_8 
REMARK    6  A    between atoms: N_13  and  C_14 
REMARK    7  A    between atoms: C_14  and  C_15 
REMARK    8  A    between atoms: C_15  and  N_16 
ROOT
HETATM    1  N   UNL     1       6.826  26.228  53.150  1.00  0.00    -0.174 N 
HETATM    2  C   UNL     1       6.967  27.293  54.005  1.00  0.00     0.681 C 
HETATM    3  N   UNL     1       6.866  28.574  53.621  1.00  0.00    -0.234 N 
HETATM    4  H   UNL     1       7.074  29.349  54.233  1.00  0.00     0.174 HD
HETATM    5  H   UNL     1       6.898  28.806  52.629  1.00  0.00     0.174 HD
HETATM    6  N   UNL     1       7.225  26.903  55.326  1.00  0.00    -0.180 N 
HETATM    7  C   UNL     1       7.498  25.501  55.220  1.00  0.00     0.079 A 
HETATM    8  C   UNL     1       7.232  25.090  53.902  1.00  0.00     0.079 A 
HETATM    9  C   UNL     1       8.001  24.626  56.158  1.00  0.00     0.032 A 
HETATM   10  C   UNL     1       8.232  23.309  55.746  1.00  0.00     0.002 A 
HETATM   11  C   UNL     1       7.956  22.897  54.427  1.00  0.00     0.002 A 
HETATM   12  C   UNL     1       7.448  23.796  53.485  1.00  0.00     0.032 A 
ENDROOT
BRANCH   1  13
HETATM   13  C   UNL     1       6.560  26.253  51.709  1.00  0.00     0.231 C 
BRANCH  13  14
HETATM   14  C   UNL     1       5.140  26.725  51.491  1.00  0.00     0.179 C 
HETATM   15  O   UNL     1       4.334  26.825  52.412  1.00  0.00    -0.290 OA
BRANCH  14  16
HETATM   16  C   UNL     1       4.725  27.031  50.105  1.00  0.00     0.028 A 
HETATM   17  C   UNL     1       4.726  28.356  49.649  1.00  0.00     0.053 A 
HETATM   18  C   UNL     1       4.399  28.636  48.316  1.00  0.00     0.018 A 
HETATM   19  C   UNL     1       4.061  27.594  47.452  1.00  0.00     0.001 A 
HETATM   20  C   UNL     1       4.044  26.276  47.912  1.00  0.00     0.001 A 
HETATM   21  C   UNL     1       4.378  25.989  49.237  1.00  0.00     0.016 A 
BRANCH  17  22
HETATM   22  C   UNL     1       4.974  29.463  50.597  1.00  0.00     0.293 C 
HETATM   23  O   UNL     1       6.104  29.835  50.891  1.00  0.00    -0.259 OA
BRANCH  22  24
HETATM   24  O   UNL     1       3.786  29.949  51.006  1.00  0.00    -0.322 OA
HETATM   25  C   UNL     1       3.643  30.205  52.404  1.00  0.00     0.213 C 
ENDBRANCH  22  24
ENDBRANCH  17  22
ENDBRANCH  14  16
ENDBRANCH  13  14
ENDBRANCH   1  13
BRANCH   6  26
HETATM   26  C   UNL     1       7.483  27.764  56.488  1.00  0.00     0.175 C 
BRANCH  26  27
HETATM   27  C   UNL     1       8.773  28.610  56.372  1.00  0.00     0.255 C 
BRANCH  27  28
HETATM   28  N   UNL     1       8.785  29.847  57.263  1.00  0.00    -0.070 N 
HETATM   29  H   UNL     1       8.371  30.630  56.740  1.00  0.00     0.279 HD
HETATM   30  C   UNL     1       7.990  29.669  58.547  1.00  0.00     0.235 C 
HETATM   31  C   UNL     1       7.975  30.977  59.325  1.00  0.00     0.028 C 
HETATM   32  C   UNL     1       9.386  31.448  59.652  1.00  0.00     0.003 C 
HETATM   33  C   UNL     1      10.231  31.548  58.387  1.00  0.00     0.028 C 
HETATM   34  C   UNL     1      10.221  30.250  57.594  1.00  0.00     0.235 C 
ENDBRANCH  27  28
ENDBRANCH  26  27
ENDBRANCH   6  26
TORSDOF 8
ENDMDL
MODEL 10
REMARK VINA RESULT:      -8.2      3.201      9.055
REMARK  8 active torsions:
REMARK  status: ('A' for Active; 'I' for Inactive)
REMARK    1  A    between atoms: O_2  and  C_3 
REMARK    2  A    between atoms: C_3  and  C_4 
REMARK    3  A    between atoms: C_5  and  C_6 
REMARK    4  A    between atoms: C_6  and  C_7 
REMARK    5  A    between atoms: C_7  and  N_8 
REMARK    6  A    between atoms: N_13  and  C_14 
REMARK    7  A    between atoms: C_14  and  C_15 
REMARK    8  A    between atoms: C_15  and  N_16 
ROOT
HETATM    1  N   UNL     1       5.852  32.019  59.303  1.00  0.00    -0.174 N 
HETATM    2  C   UNL     1       5.170  31.009  58.670  1.00  0.00     0.681 C 
HETATM    3  N   UNL     1       3.839  30.854  58.736  1.00  0.00    -0.234 N 
HETATM    4  H   UNL     1       3.360  30.052  58.355  1.00  0.00     0.174 HD
HETATM    5  H   UNL     1       3.308  31.361  59.443  1.00  0.00     0.174 HD
HETATM    6  N   UNL     1       6.010  30.153  57.944  1.00  0.00    -0.180 N 
HETATM    7  C   UNL     1       7.326  30.534  58.362  1.00  0.00     0.079 A 
HETATM    8  C   UNL     1       7.228  31.681  59.168  1.00  0.00     0.079 A 
HETATM    9  C   UNL     1       8.538  29.918  58.133  1.00  0.00     0.032 A 
HETATM   10  C   UNL     1       9.668  30.486  58.732  1.00  0.00     0.002 A 
HETATM   11  C   UNL     1       9.568  31.641  59.532  1.00  0.00     0.002 A 
HETATM   12  C   UNL     1       8.333  32.254  59.758  1.00  0.00     0.032 A 
ENDROOT
BRANCH   1  13
HETATM   13  C   UNL     1       5.310  33.086  60.149  1.00  0.00     0.231 C 
BRANCH  13  14
HETATM   14  C   UNL     1       5.010  32.510  61.514  1.00  0.00     0.179 C 
HETATM   15  O   UNL     1       4.096  31.711  61.702  1.00  0.00    -0.290 OA
BRANCH  14  16
HETATM   16  C   UNL     1       5.836  32.973  62.650  1.00  0.00     0.028 A 
HETATM   17  C   UNL     1       5.292  33.843  63.604  1.00  0.00     0.053 A 
HETATM   18  C   UNL     1       6.054  34.224  64.716  1.00  0.00     0.018 A 
HETATM   19  C   UNL     1       7.356  33.745  64.861  1.00  0.00     0.001 A 
HETATM   20  C   UNL     1       7.902  32.891  63.901  1.00  0.00     0.001 A 
HETATM   21  C   UNL     1       7.145  32.499  62.795  1.00  0.00     0.016 A 
BRANCH  17  22
HETATM   22  C   UNL     1       3.956  34.436  63.386  1.00  0.00     0.293 C 
HETATM   23  O   UNL     1       2.935  33.944  63.854  1.00  0.00    -0.259 OA
BRANCH  22  24
HETATM   24  O   UNL     1       4.100  35.555  62.651  1.00  0.00    -0.322 OA
HETATM   25  C   UNL     1       3.498  36.745  63.165  1.00  0.00     0.213 C 
ENDBRANCH  22  24
ENDBRANCH  17  22
ENDBRANCH  14  16
ENDBRANCH  13  14
ENDBRANCH   1  13
BRANCH   6  26
HETATM   26  C   UNL     1       5.639  28.945  57.195  1.00  0.00     0.175 C 
BRANCH  26  27
HETATM   27  C   UNL     1       6.408  28.767  55.865  1.00  0.00     0.255 C 
BRANCH  27  28
HETATM   28  N   UNL     1       7.227  27.482  55.790  1.00  0.00    -0.070 N 
HETATM   29  H   UNL     1       8.205  27.731  55.593  1.00  0.00     0.279 HD
HETATM   30  C   UNL     1       7.196  26.675  57.078  1.00  0.00     0.235 C 
HETATM   31  C   UNL     1       8.112  25.467  56.947  1.00  0.00     0.028 C 
HETATM   32  C   UNL     1       7.707  24.585  55.773  1.00  0.00     0.003 C 
HETATM   33  C   UNL     1       7.642  25.393  54.483  1.00  0.00     0.028 C 
HETATM   34  C   UNL     1       6.750  26.617  54.623  1.00  0.00     0.235 C 
ENDBRANCH  27  28
ENDBRANCH  26  27
ENDBRANCH   6  26
TORSDOF 8
ENDMDL
