MODEL 1
REMARK VINA RESULT:      -8.5      0.000      0.000
REMARK  5 active torsions:
REMARK  status: ('A' for Active; 'I' for Inactive)
REMARK    1  A    between atoms: C_2  and  O_3 
REMARK    2  A    between atoms: O_3  and  C_4 
REMARK    3  A    between atoms: C_9  and  C_10 
REMARK    4  A    between atoms: C_10  and  N_11 
REMARK       I    between atoms: N_11  and  C_12 
REMARK       I    between atoms: C_12  and  N_13 
REMARK    5  A    between atoms: N_13  and  C_14 
ROOT
HETATM    1  N   UNL     1       6.858  27.197  56.582  1.00  0.00    -0.338 N 
HETATM    2  C   UNL     1       5.592  26.898  56.201  1.00  0.00     0.320 C 
HETATM    3  N   UNL     1       5.418  25.885  55.310  1.00  0.00    -0.309 N 
HETATM    4  O   UNL     1       4.609  27.525  56.589  1.00  0.00    -0.247 OA
HETATM    5  H   UNL     1       7.582  27.015  55.901  1.00  0.00     0.164 HD
HETATM    6  H   UNL     1       4.466  25.881  54.961  1.00  0.00     0.170 HD
ENDROOT
BRANCH   1   7
HETATM    7  C   UNL     1       7.147  28.195  57.594  1.00  0.00     0.167 C 
BRANCH   7   8
HETATM    8  C   UNL     1       8.425  28.956  57.360  1.00  0.00     0.013 A 
HETATM    9  C   UNL     1       8.978  29.749  58.367  1.00  0.00     0.172 A 
HETATM   10  N   UNL     1      10.102  30.490  58.220  1.00  0.00    -0.237 NA
HETATM   11  C   UNL     1      10.693  30.468  57.008  1.00  0.00     0.119 A 
HETATM   12  C   UNL     1      10.214  29.745  55.932  1.00  0.00     0.020 A 
HETATM   13  C   UNL     1       9.060  28.985  56.111  1.00  0.00     0.014 A 
BRANCH   9  14
HETATM   14  O   UNL     1       8.323  29.771  59.583  1.00  0.00    -0.334 OA
BRANCH  14  15
HETATM   15  C   UNL     1       8.622  30.921  60.377  1.00  0.00     0.173 C 
HETATM   16  C   UNL     1       9.224  30.437  61.684  1.00  0.00     0.034 C 
ENDBRANCH  14  15
ENDBRANCH   9  14
ENDBRANCH   7   8
ENDBRANCH   1   7
BRANCH   3  17
HETATM   17  C   UNL     1       6.229  24.807  54.907  1.00  0.00     0.037 A 
HETATM   18  C   UNL     1       6.808  23.879  55.772  1.00  0.00     0.049 A 
HETATM   19  C   UNL     1       7.581  22.821  55.271  1.00  0.00     0.019 A 
HETATM   20 BR   UNL     1       8.360  21.636  56.539  1.00  0.00    -0.051 Br
HETATM   21  C   UNL     1       7.761  22.649  53.891  1.00  0.00    -0.044 A 
HETATM   22  C   UNL     1       8.582  21.532  53.310  1.00  0.00     0.049 C 
HETATM   23  C   UNL     1       7.166  23.577  53.027  1.00  0.00     0.010 A 
HETATM   24  C   UNL     1       6.406  24.637  53.529  1.00  0.00     0.030 A 
ENDBRANCH   3  17
TORSDOF 5
ENDMDL
MODEL 2
REMARK VINA RESULT:      -8.4      3.341      7.007
REMARK  5 active torsions:
REMARK  status: ('A' for Active; 'I' for Inactive)
REMARK    1  A    between atoms: C_2  and  O_3 
REMARK    2  A    between atoms: O_3  and  C_4 
REMARK    3  A    between atoms: C_9  and  C_10 
REMARK    4  A    between atoms: C_10  and  N_11 
REMARK       I    between atoms: N_11  and  C_12 
REMARK       I    between atoms: C_12  and  N_13 
REMARK    5  A    between atoms: N_13  and  C_14 
ROOT
HETATM    1  N   UNL     1       7.634  25.275  53.744  1.00  0.00    -0.338 N 
HETATM    2  C   UNL     1       6.683  26.100  53.240  1.00  0.00     0.320 C 
HETATM    3  N   UNL     1       6.250  27.125  54.022  1.00  0.00    -0.309 N 
HETATM    4  O   UNL     1       6.171  25.936  52.134  1.00  0.00    -0.247 OA
HETATM    5  H   UNL     1       7.635  25.159  54.748  1.00  0.00     0.164 HD
HETATM    6  H   UNL     1       5.420  27.548  53.622  1.00  0.00     0.170 HD
ENDROOT
BRANCH   1   7
HETATM    7  C   UNL     1       8.230  24.210  52.961  1.00  0.00     0.167 C 
BRANCH   7   8
HETATM    8  C   UNL     1       8.186  22.860  53.626  1.00  0.00     0.013 A 
HETATM    9  C   UNL     1       8.629  22.698  54.941  1.00  0.00     0.172 A 
HETATM   10  N   UNL     1       8.655  21.511  55.592  1.00  0.00    -0.237 NA
HETATM   11  C   UNL     1       8.250  20.426  54.901  1.00  0.00     0.119 A 
HETATM   12  C   UNL     1       7.823  20.467  53.587  1.00  0.00     0.020 A 
HETATM   13  C   UNL     1       7.799  21.701  52.942  1.00  0.00     0.014 A 
BRANCH   9  14
HETATM   14  O   UNL     1       9.068  23.828  55.602  1.00  0.00    -0.334 OA
BRANCH  14  15
HETATM   15  C   UNL     1       8.692  23.872  56.980  1.00  0.00     0.173 C 
HETATM   16  C   UNL     1       8.480  25.328  57.355  1.00  0.00     0.034 C 
ENDBRANCH  14  15
ENDBRANCH   9  14
ENDBRANCH   7   8
ENDBRANCH   1   7
BRANCH   3  17
HETATM   17  C   UNL     1       6.791  27.770  55.150  1.00  0.00     0.037 A 
HETATM   18  C   UNL     1       8.051  28.365  55.200  1.00  0.00     0.049 A 
HETATM   19  C   UNL     1       8.491  29.009  56.366  1.00  0.00     0.019 A 
HETATM   20 BR   UNL     1      10.242  29.750  56.343  1.00  0.00    -0.051 Br
HETATM   21  C   UNL     1       7.664  29.103  57.495  1.00  0.00    -0.044 A 
HETATM   22  C   UNL     1       8.094  29.781  58.765  1.00  0.00     0.049 C 
HETATM   23  C   UNL     1       6.395  28.515  57.434  1.00  0.00     0.010 A 
HETATM   24  C   UNL     1       5.963  27.864  56.275  1.00  0.00     0.030 A 
ENDBRANCH   3  17
TORSDOF 5
ENDMDL
MODEL 3
REMARK VINA RESULT:      -8.1      2.068      3.028
REMARK  5 active torsions:
REMARK  status: ('A' for Active; 'I' for Inactive)
REMARK    1  A    between atoms: C_2  and  O_3 
REMARK    2  A    between atoms: O_3  and  C_4 
REMARK    3  A    between atoms: C_9  and  C_10 
REMARK    4  A    between atoms: C_10  and  N_11 
REMARK       I    between atoms: N_11  and  C_12 
REMARK       I    between atoms: C_12  and  N_13 
REMARK    5  A    between atoms: N_13  and  C_14 
ROOT
HETATM    1  N   UNL     1       7.373  26.922  53.945  1.00  0.00    -0.338 N 
HETATM    2  C   UNL     1       6.131  26.461  53.656  1.00  0.00     0.320 C 
HETATM    3  N   UNL     1       5.941  25.115  53.635  1.00  0.00    -0.309 N 
HETATM    4  O   UNL     1       5.191  27.200  53.373  1.00  0.00    -0.247 OA
HETATM    5  H   UNL     1       8.143  26.324  53.679  1.00  0.00     0.164 HD
HETATM    6  H   UNL     1       5.040  24.891  53.227  1.00  0.00     0.170 HD
ENDROOT
BRANCH   1   7
HETATM    7  C   UNL     1       7.661  28.337  54.084  1.00  0.00     0.167 C 
BRANCH   7   8
HETATM    8  C   UNL     1       8.440  28.686  55.324  1.00  0.00     0.013 A 
HETATM    9  C   UNL     1       7.922  28.415  56.592  1.00  0.00     0.172 A 
HETATM   10  N   UNL     1       8.544  28.734  57.752  1.00  0.00    -0.237 NA
HETATM   11  C   UNL     1       9.725  29.378  57.653  1.00  0.00     0.119 A 
HETATM   12  C   UNL     1      10.314  29.724  56.452  1.00  0.00     0.020 A 
HETATM   13  C   UNL     1       9.657  29.379  55.273  1.00  0.00     0.014 A 
BRANCH   9  14
HETATM   14  O   UNL     1       6.693  27.786  56.650  1.00  0.00    -0.334 OA
BRANCH  14  15
HETATM   15  C   UNL     1       5.691  28.540  57.335  1.00  0.00     0.173 C 
HETATM   16  C   UNL     1       4.746  29.109  56.292  1.00  0.00     0.034 C 
ENDBRANCH  14  15
ENDBRANCH   9  14
ENDBRANCH   7   8
ENDBRANCH   1   7
BRANCH   3  17
HETATM   17  C   UNL     1       6.661  24.032  54.175  1.00  0.00     0.037 A 
HETATM   18  C   UNL     1       7.174  22.967  53.435  1.00  0.00     0.049 A 
HETATM   19  C   UNL     1       7.904  21.947  54.062  1.00  0.00     0.019 A 
HETATM   20 BR   UNL     1       8.521  20.519  52.968  1.00  0.00    -0.051 Br
HETATM   21  C   UNL     1       8.168  21.990  55.439  1.00  0.00    -0.044 A 
HETATM   22  C   UNL     1       8.943  20.919  56.153  1.00  0.00     0.049 C 
HETATM   23  C   UNL     1       7.661  23.068  56.175  1.00  0.00     0.010 A 
HETATM   24  C   UNL     1       6.925  24.078  55.549  1.00  0.00     0.030 A 
ENDBRANCH   3  17
TORSDOF 5
ENDMDL
MODEL 4
REMARK VINA RESULT:      -7.8      3.891      6.967
REMARK  5 active torsions:
REMARK  status: ('A' for Active; 'I' for Inactive)
REMARK    1  A    between atoms: C_2  and  O_3 
REMARK    2  A    between atoms: O_3  and  C_4 
REMARK    3  A    between atoms: C_9  and  C_10 
REMARK    4  A    between atoms: C_10  and  N_11 
REMARK       I    between atoms: N_11  and  C_12 
REMARK       I    between atoms: C_12  and  N_13 
REMARK    5  A    between atoms: N_13  and  C_14 
ROOT
HETATM    1  N   UNL     1       6.971  25.028  53.638  1.00  0.00    -0.338 N 
HETATM    2  C   UNL     1       5.656  25.093  53.315  1.00  0.00     0.320 C 
HETATM    3  N   UNL     1       4.875  25.972  53.999  1.00  0.00    -0.309 N 
HETATM    4  O   UNL     1       5.136  24.367  52.470  1.00  0.00    -0.247 OA
HETATM    5  H   UNL     1       7.205  25.247  54.596  1.00  0.00     0.164 HD
HETATM    6  H   UNL     1       3.895  25.797  53.807  1.00  0.00     0.170 HD
ENDROOT
BRANCH   1   7
HETATM    7  C   UNL     1       7.907  24.192  52.910  1.00  0.00     0.167 C 
BRANCH   7   8
HETATM    8  C   UNL     1       8.089  22.818  53.498  1.00  0.00     0.013 A 
HETATM    9  C   UNL     1       8.553  22.658  54.806  1.00  0.00     0.172 A 
HETATM   10  N   UNL     1       8.777  21.457  55.391  1.00  0.00    -0.237 NA
HETATM   11  C   UNL     1       8.561  20.361  54.635  1.00  0.00     0.119 A 
HETATM   12  C   UNL     1       8.134  20.404  53.322  1.00  0.00     0.020 A 
HETATM   13  C   UNL     1       7.903  21.651  52.746  1.00  0.00     0.014 A 
BRANCH   9  14
HETATM   14  O   UNL     1       8.796  23.806  55.534  1.00  0.00    -0.334 OA
BRANCH  14  15
HETATM   15  C   UNL     1       8.120  23.845  56.791  1.00  0.00     0.173 C 
HETATM   16  C   UNL     1       8.965  24.668  57.747  1.00  0.00     0.034 C 
ENDBRANCH  14  15
ENDBRANCH   9  14
ENDBRANCH   7   8
ENDBRANCH   1   7
BRANCH   3  17
HETATM   17  C   UNL     1       5.161  27.113  54.772  1.00  0.00     0.037 A 
HETATM   18  C   UNL     1       6.169  27.193  55.733  1.00  0.00     0.049 A 
HETATM   19  C   UNL     1       6.395  28.387  56.435  1.00  0.00     0.019 A 
HETATM   20 BR   UNL     1       7.766  28.375  57.753  1.00  0.00    -0.051 Br
HETATM   21  C   UNL     1       5.640  29.537  56.163  1.00  0.00    -0.044 A 
HETATM   22  C   UNL     1       5.845  30.836  56.891  1.00  0.00     0.049 C 
HETATM   23  C   UNL     1       4.638  29.454  55.188  1.00  0.00     0.010 A 
HETATM   24  C   UNL     1       4.408  28.260  54.498  1.00  0.00     0.030 A 
ENDBRANCH   3  17
TORSDOF 5
ENDMDL
MODEL 5
REMARK VINA RESULT:      -7.8      3.848      5.772
REMARK  5 active torsions:
REMARK  status: ('A' for Active; 'I' for Inactive)
REMARK    1  A    between atoms: C_2  and  O_3 
REMARK    2  A    between atoms: O_3  and  C_4 
REMARK    3  A    between atoms: C_9  and  C_10 
REMARK    4  A    between atoms: C_10  and  N_11 
REMARK       I    between atoms: N_11  and  C_12 
REMARK       I    between atoms: C_12  and  N_13 
REMARK    5  A    between atoms: N_13  and  C_14 
ROOT
HETATM    1  N   UNL     1       5.594  26.234  54.379  1.00  0.00    -0.338 N 
HETATM    2  C   UNL     1       6.732  26.565  55.038  1.00  0.00     0.320 C 
HETATM    3  N   UNL     1       7.610  25.568  55.332  1.00  0.00    -0.309 N 
HETATM    4  O   UNL     1       6.980  27.708  55.415  1.00  0.00    -0.247 OA
HETATM    5  H   UNL     1       5.239  25.303  54.544  1.00  0.00     0.164 HD
HETATM    6  H   UNL     1       8.316  25.899  55.981  1.00  0.00     0.170 HD
ENDROOT
BRANCH   1   7
HETATM    7  C   UNL     1       4.638  27.231  53.937  1.00  0.00     0.167 C 
BRANCH   7   8
HETATM    8  C   UNL     1       4.557  27.384  52.441  1.00  0.00     0.013 A 
HETATM    9  C   UNL     1       3.781  28.394  51.869  1.00  0.00     0.172 A 
HETATM   10  N   UNL     1       3.628  28.571  50.535  1.00  0.00    -0.237 NA
HETATM   11  C   UNL     1       4.251  27.689  49.727  1.00  0.00     0.119 A 
HETATM   12  C   UNL     1       5.016  26.634  50.186  1.00  0.00     0.020 A 
HETATM   13  C   UNL     1       5.163  26.477  51.562  1.00  0.00     0.014 A 
BRANCH   9  14
HETATM   14  O   UNL     1       3.131  29.256  52.731  1.00  0.00    -0.334 OA
BRANCH  14  15
HETATM   15  C   UNL     1       3.697  30.566  52.771  1.00  0.00     0.173 C 
HETATM   16  C   UNL     1       3.584  31.076  54.197  1.00  0.00     0.034 C 
ENDBRANCH  14  15
ENDBRANCH   9  14
ENDBRANCH   7   8
ENDBRANCH   1   7
BRANCH   3  17
HETATM   17  C   UNL     1       7.798  24.269  54.821  1.00  0.00     0.037 A 
HETATM   18  C   UNL     1       7.795  23.104  55.588  1.00  0.00     0.049 A 
HETATM   19  C   UNL     1       7.964  21.850  54.981  1.00  0.00     0.019 A 
HETATM   20 BR   UNL     1       7.987  20.328  56.121  1.00  0.00    -0.051 Br
HETATM   21  C   UNL     1       8.104  21.734  53.590  1.00  0.00    -0.044 A 
HETATM   22  C   UNL     1       8.289  20.413  52.898  1.00  0.00     0.049 C 
HETATM   23  C   UNL     1       8.093  22.907  52.826  1.00  0.00     0.010 A 
HETATM   24  C   UNL     1       7.935  24.156  53.433  1.00  0.00     0.030 A 
ENDBRANCH   3  17
TORSDOF 5
ENDMDL
MODEL 6
REMARK VINA RESULT:      -7.8      3.619      5.494
REMARK  5 active torsions:
REMARK  status: ('A' for Active; 'I' for Inactive)
REMARK    1  A    between atoms: C_2  and  O_3 
REMARK    2  A    between atoms: O_3  and  C_4 
REMARK    3  A    between atoms: C_9  and  C_10 
REMARK    4  A    between atoms: C_10  and  N_11 
REMARK       I    between atoms: N_11  and  C_12 
REMARK       I    between atoms: C_12  and  N_13 
REMARK    5  A    between atoms: N_13  and  C_14 
ROOT
HETATM    1  N   UNL     1       9.400  30.344  58.613  1.00  0.00    -0.338 N 
HETATM    2  C   UNL     1      10.009  30.019  57.446  1.00  0.00     0.320 C 
HETATM    3  N   UNL     1       9.573  28.913  56.786  1.00  0.00    -0.309 N 
HETATM    4  O   UNL     1      10.958  30.651  56.987  1.00  0.00    -0.247 OA
HETATM    5  H   UNL     1       9.023  29.573  59.147  1.00  0.00     0.164 HD
HETATM    6  H   UNL     1      10.218  28.667  56.043  1.00  0.00     0.170 HD
ENDROOT
BRANCH   1   7
HETATM    7  C   UNL     1       9.726  31.552  59.347  1.00  0.00     0.167 C 
BRANCH   7   8
HETATM    8  C   UNL     1       8.753  31.883  60.448  1.00  0.00     0.013 A 
HETATM    9  C   UNL     1       7.442  32.261  60.151  1.00  0.00     0.172 A 
HETATM   10  N   UNL     1       6.523  32.610  61.082  1.00  0.00    -0.237 NA
HETATM   11  C   UNL     1       6.928  32.611  62.369  1.00  0.00     0.119 A 
HETATM   12  C   UNL     1       8.209  32.285  62.772  1.00  0.00     0.020 A 
HETATM   13  C   UNL     1       9.134  31.924  61.795  1.00  0.00     0.014 A 
BRANCH   9  14
HETATM   14  O   UNL     1       7.078  32.281  58.819  1.00  0.00    -0.334 OA
BRANCH  14  15
HETATM   15  C   UNL     1       5.852  31.601  58.547  1.00  0.00     0.173 C 
HETATM   16  C   UNL     1       5.245  32.219  57.300  1.00  0.00     0.034 C 
ENDBRANCH  14  15
ENDBRANCH   9  14
ENDBRANCH   7   8
ENDBRANCH   1   7
BRANCH   3  17
HETATM   17  C   UNL     1       8.382  28.164  56.846  1.00  0.00     0.037 A 
HETATM   18  C   UNL     1       7.126  28.633  56.461  1.00  0.00     0.049 A 
HETATM   19  C   UNL     1       6.000  27.799  56.532  1.00  0.00     0.019 A 
HETATM   20 BR   UNL     1       4.328  28.550  56.024  1.00  0.00    -0.051 Br
HETATM   21  C   UNL     1       6.114  26.467  56.954  1.00  0.00    -0.044 A 
HETATM   22  C   UNL     1       4.936  25.539  57.048  1.00  0.00     0.049 C 
HETATM   23  C   UNL     1       7.380  25.998  57.327  1.00  0.00     0.010 A 
HETATM   24  C   UNL     1       8.499  26.834  57.266  1.00  0.00     0.030 A 
ENDBRANCH   3  17
TORSDOF 5
ENDMDL
MODEL 7
REMARK VINA RESULT:      -7.6      3.332      4.857
REMARK  5 active torsions:
REMARK  status: ('A' for Active; 'I' for Inactive)
REMARK    1  A    between atoms: C_2  and  O_3 
REMARK    2  A    between atoms: O_3  and  C_4 
REMARK    3  A    between atoms: C_9  and  C_10 
REMARK    4  A    between atoms: C_10  and  N_11 
REMARK       I    between atoms: N_11  and  C_12 
REMARK       I    between atoms: C_12  and  N_13 
REMARK    5  A    between atoms: N_13  and  C_14 
ROOT
HETATM    1  N   UNL     1       5.983  25.862  56.942  1.00  0.00    -0.338 N 
HETATM    2  C   UNL     1       7.277  26.150  57.228  1.00  0.00     0.320 C 
HETATM    3  N   UNL     1       8.224  25.239  56.877  1.00  0.00    -0.309 N 
HETATM    4  O   UNL     1       7.621  27.168  57.824  1.00  0.00    -0.247 OA
HETATM    5  H   UNL     1       5.738  24.882  56.929  1.00  0.00     0.164 HD
HETATM    6  H   UNL     1       9.113  25.472  57.305  1.00  0.00     0.170 HD
ENDROOT
BRANCH   1   7
HETATM    7  C   UNL     1       4.907  26.803  57.190  1.00  0.00     0.167 C 
BRANCH   7   8
HETATM    8  C   UNL     1       4.812  27.909  56.173  1.00  0.00     0.013 A 
HETATM    9  C   UNL     1       4.907  27.632  54.808  1.00  0.00     0.172 A 
HETATM   10  N   UNL     1       4.868  28.575  53.837  1.00  0.00    -0.237 NA
HETATM   11  C   UNL     1       4.759  29.859  54.237  1.00  0.00     0.119 A 
HETATM   12  C   UNL     1       4.690  30.247  55.561  1.00  0.00     0.020 A 
HETATM   13  C   UNL     1       4.724  29.258  56.540  1.00  0.00     0.014 A 
BRANCH   9  14
HETATM   14  O   UNL     1       5.054  26.308  54.441  1.00  0.00    -0.334 OA
BRANCH  14  15
HETATM   15  C   UNL     1       5.340  26.123  53.054  1.00  0.00     0.173 C 
HETATM   16  C   UNL     1       4.749  24.790  52.633  1.00  0.00     0.034 C 
ENDBRANCH  14  15
ENDBRANCH   9  14
ENDBRANCH   7   8
ENDBRANCH   1   7
BRANCH   3  17
HETATM   17  C   UNL     1       8.238  24.169  55.962  1.00  0.00     0.037 A 
HETATM   18  C   UNL     1       8.312  22.821  56.314  1.00  0.00     0.049 A 
HETATM   19  C   UNL     1       8.291  21.823  55.328  1.00  0.00     0.019 A 
HETATM   20 BR   UNL     1       8.440  20.020  55.913  1.00  0.00    -0.051 Br
HETATM   21  C   UNL     1       8.160  22.152  53.971  1.00  0.00    -0.044 A 
HETATM   22  C   UNL     1       8.137  21.117  52.882  1.00  0.00     0.049 C 
HETATM   23  C   UNL     1       8.074  23.506  53.625  1.00  0.00     0.010 A 
HETATM   24  C   UNL     1       8.106  24.499  54.609  1.00  0.00     0.030 A 
ENDBRANCH   3  17
TORSDOF 5
ENDMDL
MODEL 8
REMARK VINA RESULT:      -7.5      2.989      7.172
REMARK  5 active torsions:
REMARK  status: ('A' for Active; 'I' for Inactive)
REMARK    1  A    between atoms: C_2  and  O_3 
REMARK    2  A    between atoms: O_3  and  C_4 
REMARK    3  A    between atoms: C_9  and  C_10 
REMARK    4  A    between atoms: C_10  and  N_11 
REMARK       I    between atoms: N_11  and  C_12 
REMARK       I    between atoms: C_12  and  N_13 
REMARK    5  A    between atoms: N_13  and  C_14 
ROOT
HETATM    1  N   UNL     1       6.108  26.518  56.087  1.00  0.00    -0.338 N 
HETATM    2  C   UNL     1       5.508  27.641  55.620  1.00  0.00     0.320 C 
HETATM    3  N   UNL     1       6.054  28.841  55.954  1.00  0.00    -0.309 N 
HETATM    4  O   UNL     1       4.477  27.621  54.951  1.00  0.00    -0.247 OA
HETATM    5  H   UNL     1       6.591  26.606  56.970  1.00  0.00     0.164 HD
HETATM    6  H   UNL     1       5.421  29.596  55.714  1.00  0.00     0.170 HD
ENDROOT
BRANCH   1   7
HETATM    7  C   UNL     1       5.662  25.189  55.715  1.00  0.00     0.167 C 
BRANCH   7   8
HETATM    8  C   UNL     1       6.715  24.356  55.034  1.00  0.00     0.013 A 
HETATM    9  C   UNL     1       7.120  24.644  53.729  1.00  0.00     0.172 A 
HETATM   10  N   UNL     1       8.032  23.920  53.038  1.00  0.00    -0.237 NA
HETATM   11  C   UNL     1       8.548  22.839  53.658  1.00  0.00     0.119 A 
HETATM   12  C   UNL     1       8.195  22.443  54.934  1.00  0.00     0.020 A 
HETATM   13  C   UNL     1       7.261  23.209  55.626  1.00  0.00     0.014 A 
BRANCH   9  14
HETATM   14  O   UNL     1       6.541  25.739  53.117  1.00  0.00    -0.334 OA
BRANCH  14  15
HETATM   15  C   UNL     1       6.557  25.677  51.690  1.00  0.00     0.173 C 
HETATM   16  C   UNL     1       5.118  25.700  51.208  1.00  0.00     0.034 C 
ENDBRANCH  14  15
ENDBRANCH   9  14
ENDBRANCH   7   8
ENDBRANCH   1   7
BRANCH   3  17
HETATM   17  C   UNL     1       7.327  29.223  56.418  1.00  0.00     0.037 A 
HETATM   18  C   UNL     1       7.600  29.691  57.703  1.00  0.00     0.049 A 
HETATM   19  C   UNL     1       8.910  30.022  58.079  1.00  0.00     0.019 A 
HETATM   20 BR   UNL     1       9.167  30.691  59.841  1.00  0.00    -0.051 Br
HETATM   21  C   UNL     1       9.981  29.857  57.188  1.00  0.00    -0.044 A 
HETATM   22  C   UNL     1      11.399  30.200  57.547  1.00  0.00     0.049 C 
HETATM   23  C   UNL     1       9.702  29.374  55.904  1.00  0.00     0.010 A 
HETATM   24  C   UNL     1       8.394  29.056  55.527  1.00  0.00     0.030 A 
ENDBRANCH   3  17
TORSDOF 5
ENDMDL
MODEL 9
REMARK VINA RESULT:      -7.3      2.024      2.585
REMARK  5 active torsions:
REMARK  status: ('A' for Active; 'I' for Inactive)
REMARK    1  A    between atoms: C_2  and  O_3 
REMARK    2  A    between atoms: O_3  and  C_4 
REMARK    3  A    between atoms: C_9  and  C_10 
REMARK    4  A    between atoms: C_10  and  N_11 
REMARK       I    between atoms: N_11  and  C_12 
REMARK       I    between atoms: C_12  and  N_13 
REMARK    5  A    between atoms: N_13  and  C_14 
ROOT
HETATM    1  N   UNL     1       7.938  26.837  56.322  1.00  0.00    -0.338 N 
HETATM    2  C   UNL     1       7.636  26.127  57.438  1.00  0.00     0.320 C 
HETATM    3  N   UNL     1       7.304  24.817  57.287  1.00  0.00    -0.309 N 
HETATM    4  O   UNL     1       7.608  26.624  58.562  1.00  0.00    -0.247 OA
HETATM    5  H   UNL     1       7.480  26.543  55.471  1.00  0.00     0.164 HD
HETATM    6  H   UNL     1       6.920  24.448  58.151  1.00  0.00     0.170 HD
ENDROOT
BRANCH   1   7
HETATM    7  C   UNL     1       8.393  28.213  56.380  1.00  0.00     0.167 C 
BRANCH   7   8
HETATM    8  C   UNL     1       7.286  29.219  56.552  1.00  0.00     0.013 A 
HETATM    9  C   UNL     1       7.212  30.009  57.701  1.00  0.00     0.172 A 
HETATM   10  N   UNL     1       6.227  30.907  57.943  1.00  0.00    -0.237 NA
HETATM   11  C   UNL     1       5.252  31.008  57.018  1.00  0.00     0.119 A 
HETATM   12  C   UNL     1       5.209  30.253  55.861  1.00  0.00     0.020 A 
HETATM   13  C   UNL     1       6.237  29.342  55.631  1.00  0.00     0.014 A 
BRANCH   9  14
HETATM   14  O   UNL     1       8.211  29.850  58.641  1.00  0.00    -0.334 OA
BRANCH  14  15
HETATM   15  C   UNL     1       8.484  31.031  59.397  1.00  0.00     0.173 C 
HETATM   16  C   UNL     1       9.763  31.643  58.854  1.00  0.00     0.034 C 
ENDBRANCH  14  15
ENDBRANCH   9  14
ENDBRANCH   7   8
ENDBRANCH   1   7
BRANCH   3  17
HETATM   17  C   UNL     1       7.514  23.883  56.255  1.00  0.00     0.037 A 
HETATM   18  C   UNL     1       8.115  22.635  56.419  1.00  0.00     0.049 A 
HETATM   19  C   UNL     1       8.255  21.761  55.330  1.00  0.00     0.019 A 
HETATM   20 BR   UNL     1       9.127  20.102  55.653  1.00  0.00    -0.051 Br
HETATM   21  C   UNL     1       7.763  22.103  54.062  1.00  0.00    -0.044 A 
HETATM   22  C   UNL     1       7.892  21.199  52.868  1.00  0.00     0.049 C 
HETATM   23  C   UNL     1       7.148  23.351  53.907  1.00  0.00     0.010 A 
HETATM   24  C   UNL     1       7.020  24.226  54.991  1.00  0.00     0.030 A 
ENDBRANCH   3  17
TORSDOF 5
ENDMDL
MODEL 10
REMARK VINA RESULT:      -7.3      3.839      8.086
REMARK  5 active torsions:
REMARK  status: ('A' for Active; 'I' for Inactive)
REMARK    1  A    between atoms: C_2  and  O_3 
REMARK    2  A    between atoms: O_3  and  C_4 
REMARK    3  A    between atoms: C_9  and  C_10 
REMARK    4  A    between atoms: C_10  and  N_11 
REMARK       I    between atoms: N_11  and  C_12 
REMARK       I    between atoms: C_12  and  N_13 
REMARK    5  A    between atoms: N_13  and  C_14 
ROOT
HETATM    1  N   UNL     1       5.481  30.374  58.085  1.00  0.00    -0.338 N 
HETATM    2  C   UNL     1       4.685  31.472  58.104  1.00  0.00     0.320 C 
HETATM    3  N   UNL     1       4.655  32.216  59.242  1.00  0.00    -0.309 N 
HETATM    4  O   UNL     1       3.963  31.794  57.162  1.00  0.00    -0.247 OA
HETATM    5  H   UNL     1       5.628  29.916  58.973  1.00  0.00     0.164 HD
HETATM    6  H   UNL     1       3.895  32.887  59.206  1.00  0.00     0.170 HD
ENDROOT
BRANCH   1   7
HETATM    7  C   UNL     1       5.655  29.565  56.894  1.00  0.00     0.167 C 
BRANCH   7   8
HETATM    8  C   UNL     1       6.129  28.163  57.168  1.00  0.00     0.013 A 
HETATM    9  C   UNL     1       7.393  27.931  57.714  1.00  0.00     0.172 A 
HETATM   10  N   UNL     1       7.903  26.699  57.953  1.00  0.00    -0.237 NA
HETATM   11  C   UNL     1       7.137  25.644  57.609  1.00  0.00     0.119 A 
HETATM   12  C   UNL     1       5.886  25.758  57.032  1.00  0.00     0.020 A 
HETATM   13  C   UNL     1       5.381  27.035  56.803  1.00  0.00     0.014 A 
BRANCH   9  14
HETATM   14  O   UNL     1       8.160  29.038  58.020  1.00  0.00    -0.334 OA
BRANCH  14  15
HETATM   15  C   UNL     1       9.331  29.168  57.212  1.00  0.00     0.173 C 
HETATM   16  C   UNL     1      10.155  30.313  57.773  1.00  0.00     0.034 C 
ENDBRANCH  14  15
ENDBRANCH   9  14
ENDBRANCH   7   8
ENDBRANCH   1   7
BRANCH   3  17
HETATM   17  C   UNL     1       5.524  32.324  60.345  1.00  0.00     0.037 A 
HETATM   18  C   UNL     1       6.898  32.085  60.303  1.00  0.00     0.049 A 
HETATM   19  C   UNL     1       7.686  32.246  61.453  1.00  0.00     0.019 A 
HETATM   20 BR   UNL     1       9.540  31.853  61.298  1.00  0.00    -0.051 Br
HETATM   21  C   UNL     1       7.121  32.685  62.659  1.00  0.00    -0.044 A 
HETATM   22  C   UNL     1       7.926  32.869  63.915  1.00  0.00     0.049 C 
HETATM   23  C   UNL     1       5.744  32.936  62.691  1.00  0.00     0.010 A 
HETATM   24  C   UNL     1       4.959  32.764  61.547  1.00  0.00     0.030 A 
ENDBRANCH   3  17
TORSDOF 5
ENDMDL
