MODEL 1
REMARK VINA RESULT:     -10.6      0.000      0.000
REMARK  5 active torsions:
REMARK  status: ('A' for Active; 'I' for Inactive)
REMARK    1  A    between atoms: C_4  and  C_5 
REMARK    2  A    between atoms: N_7  and  C_8 
REMARK    3  A    between atoms: C_15  and  C_16 
REMARK       I    between atoms: C_16  and  N_17 
REMARK    4  A    between atoms: N_17  and  N_18 
REMARK       I    between atoms: N_18  and  C_19 
REMARK    5  A    between atoms: C_19  and  C_20 
ROOT
HETATM    1  C   UNL     1       7.170  25.238  54.589  1.00  0.00     0.105 A 
HETATM    2  N   UNL     1       7.869  25.893  55.532  1.00  0.00    -0.166 NA
HETATM    3  N   UNL     1       7.449  27.172  55.488  1.00  0.00    -0.244 N 
HETATM    4  C   UNL     1       6.477  27.342  54.533  1.00  0.00     0.138 A 
HETATM    5  C   UNL     1       6.246  26.113  53.936  1.00  0.00     0.082 A 
ENDROOT
BRANCH   5   6
HETATM    6  C   UNL     1       5.268  25.824  52.892  1.00  0.00     0.274 C 
HETATM    7  N   UNL     1       5.324  26.667  51.798  1.00  0.00    -0.263 N 
HETATM    8  H   UNL     1       5.921  27.486  51.745  1.00  0.00     0.190 HD
HETATM    9  O   UNL     1       4.451  24.910  52.956  1.00  0.00    -0.266 OA
BRANCH   7  10
HETATM   10  N   UNL     1       4.437  26.490  50.732  1.00  0.00    -0.263 N 
HETATM   11  C   UNL     1       4.024  27.605  50.040  1.00  0.00     0.275 C 
HETATM   12  O   UNL     1       4.375  28.739  50.372  1.00  0.00    -0.266 OA
HETATM   13  H   UNL     1       4.180  25.531  50.469  1.00  0.00     0.190 HD
BRANCH  11  14
HETATM   14  C   UNL     1       3.140  27.358  48.870  1.00  0.00     0.101 A 
HETATM   15  C   UNL     1       3.571  26.604  47.654  1.00  0.00     0.261 A 
HETATM   16  O   UNL     1       4.697  26.129  47.545  1.00  0.00    -0.267 OA
HETATM   17  N   UNL     1       2.635  26.472  46.651  1.00  0.00    -0.333 N 
HETATM   18  C   UNL     1       1.365  26.982  46.715  1.00  0.00     0.091 A 
HETATM   19  H   UNL     1       2.938  25.961  45.829  1.00  0.00     0.168 HD
HETATM   20  C   UNL     1       0.968  27.656  47.799  1.00  0.00     0.018 A 
HETATM   21  C   UNL     1       1.884  27.846  48.902  1.00  0.00     0.024 A 
ENDBRANCH  11  14
ENDBRANCH   7  10
ENDBRANCH   5   6
BRANCH   1  22
HETATM   22  C   UNL     1       7.415  23.806  54.402  1.00  0.00    -0.005 A 
HETATM   23  C   UNL     1       7.416  22.953  55.515  1.00  0.00     0.014 A 
HETATM   24  C   UNL     1       7.670  21.587  55.368  1.00  0.00     0.001 A 
HETATM   25  C   UNL     1       7.933  21.062  54.105  1.00  0.00     0.000 A 
HETATM   26  C   UNL     1       7.950  21.902  52.993  1.00  0.00     0.001 A 
HETATM   27  C   UNL     1       7.701  23.269  53.141  1.00  0.00     0.014 A 
ENDBRANCH   1  22
BRANCH   3  28
HETATM   28  C   UNL     1       7.990  28.150  56.372  1.00  0.00     0.058 A 
HETATM   29  C   UNL     1       9.113  28.893  55.971  1.00  0.00     0.031 A 
HETATM   30  C   UNL     1       9.667  29.849  56.823  1.00  0.00     0.002 A 
HETATM   31  C   UNL     1       9.108  30.072  58.079  1.00  0.00     0.000 A 
HETATM   32  C   UNL     1       7.992  29.341  58.485  1.00  0.00     0.002 A 
HETATM   33  C   UNL     1       7.431  28.382  57.636  1.00  0.00     0.031 A 
ENDBRANCH   3  28
TORSDOF 5
ENDMDL
MODEL 2
REMARK VINA RESULT:     -10.4      2.498      8.504
REMARK  5 active torsions:
REMARK  status: ('A' for Active; 'I' for Inactive)
REMARK    1  A    between atoms: C_4  and  C_5 
REMARK    2  A    between atoms: N_7  and  C_8 
REMARK    3  A    between atoms: C_15  and  C_16 
REMARK       I    between atoms: C_16  and  N_17 
REMARK    4  A    between atoms: N_17  and  N_18 
REMARK       I    between atoms: N_18  and  C_19 
REMARK    5  A    between atoms: C_19  and  C_20 
ROOT
HETATM    1  C   UNL     1       5.849  25.919  52.349  1.00  0.00     0.105 A 
HETATM    2  N   UNL     1       5.365  25.534  51.156  1.00  0.00    -0.166 NA
HETATM    3  N   UNL     1       4.733  26.608  50.644  1.00  0.00    -0.244 N 
HETATM    4  C   UNL     1       4.816  27.684  51.494  1.00  0.00     0.138 A 
HETATM    5  C   UNL     1       5.549  27.294  52.604  1.00  0.00     0.082 A 
ENDROOT
BRANCH   5   6
HETATM    6  C   UNL     1       5.912  28.132  53.743  1.00  0.00     0.274 C 
HETATM    7  N   UNL     1       7.271  28.300  53.927  1.00  0.00    -0.263 N 
HETATM    8  H   UNL     1       7.980  27.813  53.387  1.00  0.00     0.190 HD
HETATM    9  O   UNL     1       5.093  28.659  54.491  1.00  0.00    -0.266 OA
BRANCH   7  10
HETATM   10  N   UNL     1       7.743  29.084  54.984  1.00  0.00    -0.263 N 
HETATM   11  C   UNL     1       8.098  28.450  56.152  1.00  0.00     0.275 C 
HETATM   12  O   UNL     1       7.961  27.233  56.296  1.00  0.00    -0.266 OA
HETATM   13  H   UNL     1       7.864  30.091  54.825  1.00  0.00     0.190 HD
BRANCH  11  14
HETATM   14  C   UNL     1       8.662  29.317  57.221  1.00  0.00     0.101 A 
HETATM   15  C   UNL     1       9.950  30.061  57.087  1.00  0.00     0.261 A 
HETATM   16  O   UNL     1      10.632  30.008  56.067  1.00  0.00    -0.267 OA
HETATM   17  N   UNL     1      10.341  30.812  58.174  1.00  0.00    -0.333 N 
HETATM   18  C   UNL     1       9.623  30.908  59.337  1.00  0.00     0.091 A 
HETATM   19  H   UNL     1      11.218  31.312  58.074  1.00  0.00     0.168 HD
HETATM   20  C   UNL     1       8.468  30.248  59.468  1.00  0.00     0.018 A 
HETATM   21  C   UNL     1       7.980  29.432  58.378  1.00  0.00     0.024 A 
ENDBRANCH  11  14
ENDBRANCH   7  10
ENDBRANCH   5   6
BRANCH   1  22
HETATM   22  C   UNL     1       6.598  24.948  53.149  1.00  0.00    -0.005 A 
HETATM   23  C   UNL     1       7.596  24.171  52.540  1.00  0.00     0.014 A 
HETATM   24  C   UNL     1       8.309  23.220  53.274  1.00  0.00     0.001 A 
HETATM   25  C   UNL     1       8.025  23.031  54.625  1.00  0.00     0.000 A 
HETATM   26  C   UNL     1       7.027  23.785  55.238  1.00  0.00     0.001 A 
HETATM   27  C   UNL     1       6.310  24.733  54.502  1.00  0.00     0.014 A 
ENDBRANCH   1  22
BRANCH   3  28
HETATM   28  C   UNL     1       4.100  26.545  49.369  1.00  0.00     0.058 A 
HETATM   29  C   UNL     1       3.846  27.736  48.668  1.00  0.00     0.031 A 
HETATM   30  C   UNL     1       3.219  27.699  47.421  1.00  0.00     0.002 A 
HETATM   31  C   UNL     1       2.840  26.480  46.865  1.00  0.00     0.000 A 
HETATM   32  C   UNL     1       3.090  25.293  47.553  1.00  0.00     0.002 A 
HETATM   33  C   UNL     1       3.719  25.321  48.802  1.00  0.00     0.031 A 
ENDBRANCH   3  28
TORSDOF 5
ENDMDL
MODEL 3
REMARK VINA RESULT:     -10.3      2.658      8.342
REMARK  5 active torsions:
REMARK  status: ('A' for Active; 'I' for Inactive)
REMARK    1  A    between atoms: C_4  and  C_5 
REMARK    2  A    between atoms: N_7  and  C_8 
REMARK    3  A    between atoms: C_15  and  C_16 
REMARK       I    between atoms: C_16  and  N_17 
REMARK    4  A    between atoms: N_17  and  N_18 
REMARK       I    between atoms: N_18  and  C_19 
REMARK    5  A    between atoms: C_19  and  C_20 
ROOT
HETATM    1  C   UNL     1       6.118  25.965  52.254  1.00  0.00     0.105 A 
HETATM    2  N   UNL     1       5.462  25.680  51.116  1.00  0.00    -0.166 NA
HETATM    3  N   UNL     1       5.000  26.855  50.646  1.00  0.00    -0.244 N 
HETATM    4  C   UNL     1       5.365  27.895  51.466  1.00  0.00     0.138 A 
HETATM    5  C   UNL     1       6.110  27.371  52.512  1.00  0.00     0.082 A 
ENDROOT
BRANCH   5   6
HETATM    6  C   UNL     1       6.729  28.124  53.598  1.00  0.00     0.274 C 
HETATM    7  N   UNL     1       5.862  28.929  54.312  1.00  0.00    -0.263 N 
HETATM    8  H   UNL     1       4.889  29.076  54.061  1.00  0.00     0.190 HD
HETATM    9  O   UNL     1       7.924  28.062  53.876  1.00  0.00    -0.266 OA
BRANCH   7  10
HETATM   10  N   UNL     1       6.338  29.698  55.378  1.00  0.00    -0.263 N 
HETATM   11  C   UNL     1       6.017  29.304  56.656  1.00  0.00     0.275 C 
HETATM   12  O   UNL     1       5.286  28.333  56.870  1.00  0.00    -0.266 OA
HETATM   13  H   UNL     1       6.961  30.487  55.167  1.00  0.00     0.190 HD
BRANCH  11  14
HETATM   14  C   UNL     1       6.607  30.110  57.758  1.00  0.00     0.101 A 
HETATM   15  C   UNL     1       7.813  29.691  58.533  1.00  0.00     0.261 A 
HETATM   16  O   UNL     1       8.405  28.641  58.303  1.00  0.00    -0.267 OA
HETATM   17  N   UNL     1       8.228  30.546  59.531  1.00  0.00    -0.333 N 
HETATM   18  C   UNL     1       7.607  31.728  59.835  1.00  0.00     0.091 A 
HETATM   19  H   UNL     1       9.046  30.251  60.054  1.00  0.00     0.168 HD
HETATM   20  C   UNL     1       6.529  32.115  59.145  1.00  0.00     0.018 A 
HETATM   21  C   UNL     1       6.020  31.280  58.081  1.00  0.00     0.024 A 
ENDBRANCH  11  14
ENDBRANCH   7  10
ENDBRANCH   5   6
BRANCH   1  22
HETATM   22  C   UNL     1       6.739  24.868  52.999  1.00  0.00    -0.005 A 
HETATM   23  C   UNL     1       6.391  24.658  54.342  1.00  0.00     0.014 A 
HETATM   24  C   UNL     1       6.986  23.634  55.083  1.00  0.00     0.001 A 
HETATM   25  C   UNL     1       7.942  22.813  54.490  1.00  0.00     0.000 A 
HETATM   26  C   UNL     1       8.308  23.020  53.161  1.00  0.00     0.001 A 
HETATM   27  C   UNL     1       7.716  24.049  52.421  1.00  0.00     0.014 A 
ENDBRANCH   1  22
BRANCH   3  28
HETATM   28  C   UNL     1       4.252  26.914  49.435  1.00  0.00     0.058 A 
HETATM   29  C   UNL     1       3.844  25.720  48.819  1.00  0.00     0.031 A 
HETATM   30  C   UNL     1       3.118  25.753  47.628  1.00  0.00     0.002 A 
HETATM   31  C   UNL     1       2.795  26.974  47.041  1.00  0.00     0.000 A 
HETATM   32  C   UNL     1       3.194  28.165  47.645  1.00  0.00     0.002 A 
HETATM   33  C   UNL     1       3.920  28.140  48.840  1.00  0.00     0.031 A 
ENDBRANCH   3  28
TORSDOF 5
ENDMDL
MODEL 4
REMARK VINA RESULT:     -10.1      1.564      5.162
REMARK  5 active torsions:
REMARK  status: ('A' for Active; 'I' for Inactive)
REMARK    1  A    between atoms: C_4  and  C_5 
REMARK    2  A    between atoms: N_7  and  C_8 
REMARK    3  A    between atoms: C_15  and  C_16 
REMARK       I    between atoms: C_16  and  N_17 
REMARK    4  A    between atoms: N_17  and  N_18 
REMARK       I    between atoms: N_18  and  C_19 
REMARK    5  A    between atoms: C_19  and  C_20 
ROOT
HETATM    1  C   UNL     1       6.407  25.933  54.467  1.00  0.00     0.105 A 
HETATM    2  N   UNL     1       7.097  24.854  54.877  1.00  0.00    -0.166 NA
HETATM    3  N   UNL     1       6.870  23.894  53.960  1.00  0.00    -0.244 N 
HETATM    4  C   UNL     1       6.049  24.349  52.958  1.00  0.00     0.138 A 
HETATM    5  C   UNL     1       5.739  25.673  53.230  1.00  0.00     0.082 A 
ENDROOT
BRANCH   5   6
HETATM    6  C   UNL     1       4.921  26.559  52.409  1.00  0.00     0.274 C 
HETATM    7  N   UNL     1       4.945  26.280  51.055  1.00  0.00    -0.263 N 
HETATM    8  H   UNL     1       5.549  25.582  50.632  1.00  0.00     0.190 HD
HETATM    9  O   UNL     1       4.253  27.486  52.861  1.00  0.00    -0.266 OA
BRANCH   7  10
HETATM   10  N   UNL     1       4.199  27.060  50.166  1.00  0.00    -0.263 N 
HETATM   11  C   UNL     1       3.607  26.433  49.095  1.00  0.00     0.275 C 
HETATM   12  O   UNL     1       3.763  25.228  48.881  1.00  0.00    -0.266 OA
HETATM   13  H   UNL     1       4.071  28.055  50.384  1.00  0.00     0.190 HD
BRANCH  11  14
HETATM   14  C   UNL     1       2.764  27.291  48.219  1.00  0.00     0.101 A 
HETATM   15  C   UNL     1       3.216  28.604  47.669  1.00  0.00     0.261 A 
HETATM   16  O   UNL     1       4.330  29.062  47.903  1.00  0.00    -0.267 OA
HETATM   17  N   UNL     1       2.310  29.283  46.882  1.00  0.00    -0.333 N 
HETATM   18  C   UNL     1       1.054  28.824  46.588  1.00  0.00     0.091 A 
HETATM   19  H   UNL     1       2.626  30.175  46.515  1.00  0.00     0.168 HD
HETATM   20  C   UNL     1       0.640  27.648  47.073  1.00  0.00     0.018 A 
HETATM   21  C   UNL     1       1.522  26.867  47.910  1.00  0.00     0.024 A 
ENDBRANCH  11  14
ENDBRANCH   7  10
ENDBRANCH   5   6
BRANCH   1  22
HETATM   22  C   UNL     1       6.466  27.152  55.276  1.00  0.00    -0.005 A 
HETATM   23  C   UNL     1       7.531  28.048  55.103  1.00  0.00     0.014 A 
HETATM   24  C   UNL     1       7.624  29.207  55.878  1.00  0.00     0.001 A 
HETATM   25  C   UNL     1       6.655  29.477  56.841  1.00  0.00     0.000 A 
HETATM   26  C   UNL     1       5.599  28.587  57.034  1.00  0.00     0.001 A 
HETATM   27  C   UNL     1       5.509  27.425  56.261  1.00  0.00     0.014 A 
ENDBRANCH   1  22
BRANCH   3  28
HETATM   28  C   UNL     1       7.462  22.605  54.090  1.00  0.00     0.058 A 
HETATM   29  C   UNL     1       7.886  21.923  52.937  1.00  0.00     0.031 A 
HETATM   30  C   UNL     1       8.461  20.655  53.039  1.00  0.00     0.002 A 
HETATM   31  C   UNL     1       8.617  20.057  54.287  1.00  0.00     0.000 A 
HETATM   32  C   UNL     1       8.201  20.727  55.437  1.00  0.00     0.002 A 
HETATM   33  C   UNL     1       7.625  21.998  55.344  1.00  0.00     0.031 A 
ENDBRANCH   3  28
TORSDOF 5
ENDMDL
MODEL 5
REMARK VINA RESULT:     -10.1      3.785      9.229
REMARK  5 active torsions:
REMARK  status: ('A' for Active; 'I' for Inactive)
REMARK    1  A    between atoms: C_4  and  C_5 
REMARK    2  A    between atoms: N_7  and  C_8 
REMARK    3  A    between atoms: C_15  and  C_16 
REMARK       I    between atoms: C_16  and  N_17 
REMARK    4  A    between atoms: N_17  and  N_18 
REMARK       I    between atoms: N_18  and  C_19 
REMARK    5  A    between atoms: C_19  and  C_20 
ROOT
HETATM    1  C   UNL     1       6.091  26.265  54.401  1.00  0.00     0.105 A 
HETATM    2  N   UNL     1       6.398  25.087  53.830  1.00  0.00    -0.166 NA
HETATM    3  N   UNL     1       6.944  24.331  54.803  1.00  0.00    -0.244 N 
HETATM    4  C   UNL     1       6.980  25.010  55.996  1.00  0.00     0.138 A 
HETATM    5  C   UNL     1       6.419  26.261  55.792  1.00  0.00     0.082 A 
ENDROOT
BRANCH   5   6
HETATM    6  C   UNL     1       6.222  27.298  56.800  1.00  0.00     0.274 C 
HETATM    7  N   UNL     1       7.375  27.703  57.446  1.00  0.00    -0.263 N 
HETATM    8  H   UNL     1       8.281  27.263  57.318  1.00  0.00     0.190 HD
HETATM    9  O   UNL     1       5.129  27.790  57.068  1.00  0.00    -0.266 OA
BRANCH   7  10
HETATM   10  N   UNL     1       7.314  28.694  58.431  1.00  0.00    -0.263 N 
HETATM   11  C   UNL     1       8.350  29.594  58.510  1.00  0.00     0.275 C 
HETATM   12  O   UNL     1       9.337  29.512  57.775  1.00  0.00    -0.266 OA
HETATM   13  H   UNL     1       6.469  28.747  59.013  1.00  0.00     0.190 HD
BRANCH  11  14
HETATM   14  C   UNL     1       8.204  30.672  59.525  1.00  0.00     0.101 A 
HETATM   15  C   UNL     1       7.072  31.646  59.538  1.00  0.00     0.261 A 
HETATM   16  O   UNL     1       6.173  31.614  58.703  1.00  0.00    -0.267 OA
HETATM   17  N   UNL     1       7.089  32.592  60.540  1.00  0.00    -0.333 N 
HETATM   18  C   UNL     1       8.065  32.678  61.497  1.00  0.00     0.091 A 
HETATM   19  H   UNL     1       6.317  33.251  60.538  1.00  0.00     0.168 HD
HETATM   20  C   UNL     1       9.081  31.810  61.497  1.00  0.00     0.018 A 
HETATM   21  C   UNL     1       9.148  30.783  60.481  1.00  0.00     0.024 A 
ENDBRANCH  11  14
ENDBRANCH   7  10
ENDBRANCH   5   6
BRANCH   1  22
HETATM   22  C   UNL     1       5.472  27.304  53.575  1.00  0.00    -0.005 A 
HETATM   23  C   UNL     1       4.098  27.559  53.699  1.00  0.00     0.014 A 
HETATM   24  C   UNL     1       3.477  28.528  52.907  1.00  0.00     0.001 A 
HETATM   25  C   UNL     1       4.224  29.247  51.976  1.00  0.00     0.000 A 
HETATM   26  C   UNL     1       5.587  28.992  51.833  1.00  0.00     0.001 A 
HETATM   27  C   UNL     1       6.207  28.019  52.622  1.00  0.00     0.014 A 
ENDBRANCH   1  22
BRANCH   3  28
HETATM   28  C   UNL     1       7.383  23.003  54.536  1.00  0.00     0.058 A 
HETATM   29  C   UNL     1       7.657  22.621  53.212  1.00  0.00     0.031 A 
HETATM   30  C   UNL     1       8.080  21.322  52.925  1.00  0.00     0.002 A 
HETATM   31  C   UNL     1       8.233  20.395  53.952  1.00  0.00     0.000 A 
HETATM   32  C   UNL     1       7.966  20.765  55.270  1.00  0.00     0.002 A 
HETATM   33  C   UNL     1       7.543  22.064  55.566  1.00  0.00     0.031 A 
ENDBRANCH   3  28
TORSDOF 5
ENDMDL
MODEL 6
REMARK VINA RESULT:      -9.5      4.197      7.414
REMARK  5 active torsions:
REMARK  status: ('A' for Active; 'I' for Inactive)
REMARK    1  A    between atoms: C_4  and  C_5 
REMARK    2  A    between atoms: N_7  and  C_8 
REMARK    3  A    between atoms: C_15  and  C_16 
REMARK       I    between atoms: C_16  and  N_17 
REMARK    4  A    between atoms: N_17  and  N_18 
REMARK       I    between atoms: N_18  and  C_19 
REMARK    5  A    between atoms: C_19  and  C_20 
ROOT
HETATM    1  C   UNL     1       6.286  30.000  56.749  1.00  0.00     0.105 A 
HETATM    2  N   UNL     1       6.446  30.827  57.795  1.00  0.00    -0.166 NA
HETATM    3  N   UNL     1       7.417  30.285  58.556  1.00  0.00    -0.244 N 
HETATM    4  C   UNL     1       7.890  29.121  58.000  1.00  0.00     0.138 A 
HETATM    5  C   UNL     1       7.203  28.905  56.816  1.00  0.00     0.082 A 
ENDROOT
BRANCH   5   6
HETATM    6  C   UNL     1       7.409  27.803  55.881  1.00  0.00     0.274 C 
HETATM    7  N   UNL     1       6.937  26.579  56.317  1.00  0.00    -0.263 N 
HETATM    8  H   UNL     1       6.561  26.415  57.246  1.00  0.00     0.190 HD
HETATM    9  O   UNL     1       7.954  27.928  54.788  1.00  0.00    -0.266 OA
BRANCH   7  10
HETATM   10  N   UNL     1       7.075  25.447  55.507  1.00  0.00    -0.263 N 
HETATM   11  C   UNL     1       7.808  24.390  55.993  1.00  0.00     0.275 C 
HETATM   12  O   UNL     1       8.377  24.443  57.086  1.00  0.00    -0.266 OA
HETATM   13  H   UNL     1       6.572  25.427  54.613  1.00  0.00     0.190 HD
BRANCH  11  14
HETATM   14  C   UNL     1       7.865  23.181  55.127  1.00  0.00     0.101 A 
HETATM   15  C   UNL     1       8.006  23.236  53.641  1.00  0.00     0.261 A 
HETATM   16  O   UNL     1       8.091  24.299  53.032  1.00  0.00    -0.267 OA
HETATM   17  N   UNL     1       8.032  22.026  52.982  1.00  0.00    -0.333 N 
HETATM   18  C   UNL     1       7.939  20.811  53.608  1.00  0.00     0.091 A 
HETATM   19  H   UNL     1       8.125  22.074  51.973  1.00  0.00     0.168 HD
HETATM   20  C   UNL     1       7.816  20.750  54.937  1.00  0.00     0.018 A 
HETATM   21  C   UNL     1       7.778  21.970  55.712  1.00  0.00     0.024 A 
ENDBRANCH  11  14
ENDBRANCH   7  10
ENDBRANCH   5   6
BRANCH   1  22
HETATM   22  C   UNL     1       5.283  30.337  55.735  1.00  0.00    -0.005 A 
HETATM   23  C   UNL     1       4.861  31.668  55.594  1.00  0.00     0.014 A 
HETATM   24  C   UNL     1       3.889  32.013  54.652  1.00  0.00     0.001 A 
HETATM   25  C   UNL     1       3.323  31.028  53.846  1.00  0.00     0.000 A 
HETATM   26  C   UNL     1       3.722  29.700  53.987  1.00  0.00     0.001 A 
HETATM   27  C   UNL     1       4.692  29.354  54.934  1.00  0.00     0.014 A 
ENDBRANCH   1  22
BRANCH   3  28
HETATM   28  C   UNL     1       7.844  30.918  59.758  1.00  0.00     0.058 A 
HETATM   29  C   UNL     1       9.013  30.470  60.395  1.00  0.00     0.031 A 
HETATM   30  C   UNL     1       9.445  31.069  61.579  1.00  0.00     0.002 A 
HETATM   31  C   UNL     1       8.717  32.117  62.138  1.00  0.00     0.000 A 
HETATM   32  C   UNL     1       7.557  32.570  61.512  1.00  0.00     0.002 A 
HETATM   33  C   UNL     1       7.118  31.976  60.324  1.00  0.00     0.031 A 
ENDBRANCH   3  28
TORSDOF 5
ENDMDL
MODEL 7
REMARK VINA RESULT:      -9.3      3.565      8.252
REMARK  5 active torsions:
REMARK  status: ('A' for Active; 'I' for Inactive)
REMARK    1  A    between atoms: C_4  and  C_5 
REMARK    2  A    between atoms: N_7  and  C_8 
REMARK    3  A    between atoms: C_15  and  C_16 
REMARK       I    between atoms: C_16  and  N_17 
REMARK    4  A    between atoms: N_17  and  N_18 
REMARK       I    between atoms: N_18  and  C_19 
REMARK    5  A    between atoms: C_19  and  C_20 
ROOT
HETATM    1  C   UNL     1       6.355  25.931  53.830  1.00  0.00     0.105 A 
HETATM    2  N   UNL     1       6.530  24.633  53.527  1.00  0.00    -0.166 NA
HETATM    3  N   UNL     1       7.268  24.111  54.526  1.00  0.00    -0.244 N 
HETATM    4  C   UNL     1       7.559  25.061  55.475  1.00  0.00     0.138 A 
HETATM    5  C   UNL     1       6.972  26.252  55.079  1.00  0.00     0.082 A 
ENDROOT
BRANCH   5   6
HETATM    6  C   UNL     1       6.996  27.516  55.809  1.00  0.00     0.274 C 
HETATM    7  N   UNL     1       6.040  27.631  56.800  1.00  0.00    -0.263 N 
HETATM    8  H   UNL     1       5.307  26.947  56.962  1.00  0.00     0.190 HD
HETATM    9  O   UNL     1       7.796  28.421  55.580  1.00  0.00    -0.266 OA
BRANCH   7  10
HETATM   10  N   UNL     1       5.965  28.797  57.569  1.00  0.00    -0.263 N 
HETATM   11  C   UNL     1       4.983  29.710  57.267  1.00  0.00     0.275 C 
HETATM   12  O   UNL     1       4.215  29.545  56.315  1.00  0.00    -0.266 OA
HETATM   13  H   UNL     1       6.605  28.893  58.366  1.00  0.00     0.190 HD
BRANCH  11  14
HETATM   14  C   UNL     1       4.897  30.898  58.158  1.00  0.00     0.101 A 
HETATM   15  C   UNL     1       6.075  31.741  58.525  1.00  0.00     0.261 A 
HETATM   16  O   UNL     1       7.203  31.506  58.103  1.00  0.00    -0.267 OA
HETATM   17  N   UNL     1       5.829  32.801  59.372  1.00  0.00    -0.333 N 
HETATM   18  C   UNL     1       4.594  33.109  59.876  1.00  0.00     0.091 A 
HETATM   19  H   UNL     1       6.636  33.365  59.617  1.00  0.00     0.168 HD
HETATM   20  C   UNL     1       3.533  32.364  59.551  1.00  0.00     0.018 A 
HETATM   21  C   UNL     1       3.695  31.229  58.670  1.00  0.00     0.024 A 
ENDBRANCH  11  14
ENDBRANCH   7  10
ENDBRANCH   5   6
BRANCH   1  22
HETATM   22  C   UNL     1       5.578  26.767  52.913  1.00  0.00    -0.005 A 
HETATM   23  C   UNL     1       4.552  27.581  53.418  1.00  0.00     0.014 A 
HETATM   24  C   UNL     1       3.779  28.370  52.562  1.00  0.00     0.001 A 
HETATM   25  C   UNL     1       4.020  28.347  51.191  1.00  0.00     0.000 A 
HETATM   26  C   UNL     1       5.025  27.531  50.674  1.00  0.00     0.001 A 
HETATM   27  C   UNL     1       5.795  26.738  51.530  1.00  0.00     0.014 A 
ENDBRANCH   1  22
BRANCH   3  28
HETATM   28  C   UNL     1       7.637  22.735  54.521  1.00  0.00     0.058 A 
HETATM   29  C   UNL     1       7.951  22.112  53.302  1.00  0.00     0.031 A 
HETATM   30  C   UNL     1       8.306  20.762  53.271  1.00  0.00     0.002 A 
HETATM   31  C   UNL     1       8.350  20.025  54.451  1.00  0.00     0.000 A 
HETATM   32  C   UNL     1       8.042  20.635  55.666  1.00  0.00     0.002 A 
HETATM   33  C   UNL     1       7.687  21.987  55.706  1.00  0.00     0.031 A 
ENDBRANCH   3  28
TORSDOF 5
ENDMDL
MODEL 8
REMARK VINA RESULT:      -9.2      4.135      7.591
REMARK  5 active torsions:
REMARK  status: ('A' for Active; 'I' for Inactive)
REMARK    1  A    between atoms: C_4  and  C_5 
REMARK    2  A    between atoms: N_7  and  C_8 
REMARK    3  A    between atoms: C_15  and  C_16 
REMARK       I    between atoms: C_16  and  N_17 
REMARK    4  A    between atoms: N_17  and  N_18 
REMARK       I    between atoms: N_18  and  C_19 
REMARK    5  A    between atoms: C_19  and  C_20 
ROOT
HETATM    1  C   UNL     1       6.400  29.448  56.012  1.00  0.00     0.105 A 
HETATM    2  N   UNL     1       5.700  30.556  55.716  1.00  0.00    -0.166 NA
HETATM    3  N   UNL     1       4.536  30.133  55.184  1.00  0.00    -0.244 N 
HETATM    4  C   UNL     1       4.478  28.761  55.148  1.00  0.00     0.138 A 
HETATM    5  C   UNL     1       5.654  28.270  55.693  1.00  0.00     0.082 A 
ENDROOT
BRANCH   5   6
HETATM    6  C   UNL     1       6.002  26.866  55.885  1.00  0.00     0.274 C 
HETATM    7  N   UNL     1       6.061  26.121  54.722  1.00  0.00    -0.263 N 
HETATM    8  H   UNL     1       5.794  26.475  53.809  1.00  0.00     0.190 HD
HETATM    9  O   UNL     1       6.231  26.363  56.982  1.00  0.00    -0.266 OA
BRANCH   7  10
HETATM   10  N   UNL     1       6.386  24.762  54.778  1.00  0.00    -0.263 N 
HETATM   11  C   UNL     1       7.437  24.316  54.012  1.00  0.00     0.275 C 
HETATM   12  O   UNL     1       8.052  25.069  53.253  1.00  0.00    -0.266 OA
HETATM   13  H   UNL     1       5.869  24.166  55.435  1.00  0.00     0.190 HD
BRANCH  11  14
HETATM   14  C   UNL     1       7.791  22.878  54.161  1.00  0.00     0.101 A 
HETATM   15  C   UNL     1       8.076  22.230  55.476  1.00  0.00     0.261 A 
HETATM   16  O   UNL     1       8.030  22.851  56.534  1.00  0.00    -0.267 OA
HETATM   17  N   UNL     1       8.401  20.891  55.442  1.00  0.00    -0.333 N 
HETATM   18  C   UNL     1       8.470  20.148  54.293  1.00  0.00     0.091 A 
HETATM   19  H   UNL     1       8.595  20.461  56.340  1.00  0.00     0.168 HD
HETATM   20  C   UNL     1       8.214  20.717  53.111  1.00  0.00     0.018 A 
HETATM   21  C   UNL     1       7.868  22.119  53.049  1.00  0.00     0.024 A 
ENDBRANCH  11  14
ENDBRANCH   7  10
ENDBRANCH   5   6
BRANCH   1  22
HETATM   22  C   UNL     1       7.727  29.596  56.614  1.00  0.00    -0.005 A 
HETATM   23  C   UNL     1       7.843  30.085  57.924  1.00  0.00     0.014 A 
HETATM   24  C   UNL     1       9.097  30.259  58.514  1.00  0.00     0.001 A 
HETATM   25  C   UNL     1      10.250  29.952  57.795  1.00  0.00     0.000 A 
HETATM   26  C   UNL     1      10.150  29.480  56.488  1.00  0.00     0.001 A 
HETATM   27  C   UNL     1       8.894  29.311  55.896  1.00  0.00     0.014 A 
ENDBRANCH   1  22
BRANCH   3  28
HETATM   28  C   UNL     1       3.546  31.064  54.758  1.00  0.00     0.058 A 
HETATM   29  C   UNL     1       3.527  31.483  53.418  1.00  0.00     0.031 A 
HETATM   30  C   UNL     1       2.572  32.402  52.979  1.00  0.00     0.002 A 
HETATM   31  C   UNL     1       1.631  32.910  53.871  1.00  0.00     0.000 A 
HETATM   32  C   UNL     1       1.641  32.499  55.204  1.00  0.00     0.002 A 
HETATM   33  C   UNL     1       2.593  31.578  55.650  1.00  0.00     0.031 A 
ENDBRANCH   3  28
TORSDOF 5
ENDMDL
MODEL 9
REMARK VINA RESULT:      -9.1      4.724      7.579
REMARK  5 active torsions:
REMARK  status: ('A' for Active; 'I' for Inactive)
REMARK    1  A    between atoms: C_4  and  C_5 
REMARK    2  A    between atoms: N_7  and  C_8 
REMARK    3  A    between atoms: C_15  and  C_16 
REMARK       I    between atoms: C_16  and  N_17 
REMARK    4  A    between atoms: N_17  and  N_18 
REMARK       I    between atoms: N_18  and  C_19 
REMARK    5  A    between atoms: C_19  and  C_20 
ROOT
HETATM    1  C   UNL     1       7.515  31.551  59.436  1.00  0.00     0.105 A 
HETATM    2  N   UNL     1       7.721  31.763  60.747  1.00  0.00    -0.166 NA
HETATM    3  N   UNL     1       6.630  32.412  61.198  1.00  0.00    -0.244 N 
HETATM    4  C   UNL     1       5.718  32.607  60.190  1.00  0.00     0.138 A 
HETATM    5  C   UNL     1       6.236  32.048  59.032  1.00  0.00     0.082 A 
ENDROOT
BRANCH   5   6
HETATM    6  C   UNL     1       5.585  31.995  57.727  1.00  0.00     0.274 C 
HETATM    7  N   UNL     1       5.100  30.750  57.372  1.00  0.00    -0.263 N 
HETATM    8  H   UNL     1       5.257  29.906  57.914  1.00  0.00     0.190 HD
HETATM    9  O   UNL     1       5.464  32.966  56.985  1.00  0.00    -0.266 OA
BRANCH   7  10
HETATM   10  N   UNL     1       4.455  30.575  56.144  1.00  0.00    -0.263 N 
HETATM   11  C   UNL     1       5.064  29.782  55.200  1.00  0.00     0.275 C 
HETATM   12  O   UNL     1       6.172  29.277  55.395  1.00  0.00    -0.266 OA
HETATM   13  H   UNL     1       3.525  30.992  56.022  1.00  0.00     0.190 HD
BRANCH  11  14
HETATM   14  C   UNL     1       4.305  29.566  53.939  1.00  0.00     0.101 A 
HETATM   15  C   UNL     1       4.040  28.217  53.355  1.00  0.00     0.261 A 
HETATM   16  O   UNL     1       4.433  27.185  53.891  1.00  0.00    -0.267 OA
HETATM   17  N   UNL     1       3.330  28.188  52.174  1.00  0.00    -0.333 N 
HETATM   18  C   UNL     1       2.868  29.305  51.530  1.00  0.00     0.091 A 
HETATM   19  H   UNL     1       3.158  27.267  51.785  1.00  0.00     0.168 HD
HETATM   20  C   UNL     1       3.097  30.517  52.045  1.00  0.00     0.018 A 
HETATM   21  C   UNL     1       3.835  30.645  53.281  1.00  0.00     0.024 A 
ENDBRANCH  11  14
ENDBRANCH   7  10
ENDBRANCH   5   6
BRANCH   1  22
HETATM   22  C   UNL     1       8.547  30.852  58.667  1.00  0.00    -0.005 A 
HETATM   23  C   UNL     1       9.781  31.479  58.436  1.00  0.00     0.014 A 
HETATM   24  C   UNL     1      10.775  30.846  57.686  1.00  0.00     0.001 A 
HETATM   25  C   UNL     1      10.541  29.581  57.152  1.00  0.00     0.000 A 
HETATM   26  C   UNL     1       9.314  28.954  57.361  1.00  0.00     0.001 A 
HETATM   27  C   UNL     1       8.318  29.590  58.108  1.00  0.00     0.014 A 
ENDBRANCH   1  22
BRANCH   3  28
HETATM   28  C   UNL     1       6.518  32.791  62.566  1.00  0.00     0.058 A 
HETATM   29  C   UNL     1       7.684  32.945  63.335  1.00  0.00     0.031 A 
HETATM   30  C   UNL     1       7.599  33.307  64.680  1.00  0.00     0.002 A 
HETATM   31  C   UNL     1       6.356  33.519  65.269  1.00  0.00     0.000 A 
HETATM   32  C   UNL     1       5.193  33.371  64.514  1.00  0.00     0.002 A 
HETATM   33  C   UNL     1       5.269  33.009  63.166  1.00  0.00     0.031 A 
ENDBRANCH   3  28
TORSDOF 5
ENDMDL
MODEL 10
REMARK VINA RESULT:      -9.0      4.050      6.844
REMARK  5 active torsions:
REMARK  status: ('A' for Active; 'I' for Inactive)
REMARK    1  A    between atoms: C_4  and  C_5 
REMARK    2  A    between atoms: N_7  and  C_8 
REMARK    3  A    between atoms: C_15  and  C_16 
REMARK       I    between atoms: C_16  and  N_17 
REMARK    4  A    between atoms: N_17  and  N_18 
REMARK       I    between atoms: N_18  and  C_19 
REMARK    5  A    between atoms: C_19  and  C_20 
ROOT
HETATM    1  C   UNL     1       7.398  27.482  56.198  1.00  0.00     0.105 A 
HETATM    2  N   UNL     1       7.973  26.298  55.929  1.00  0.00    -0.166 NA
HETATM    3  N   UNL     1       7.076  25.603  55.202  1.00  0.00    -0.244 N 
HETATM    4  C   UNL     1       5.934  26.337  54.991  1.00  0.00     0.138 A 
HETATM    5  C   UNL     1       6.102  27.571  55.599  1.00  0.00     0.082 A 
ENDROOT
BRANCH   5   6
HETATM    6  C   UNL     1       5.151  28.677  55.595  1.00  0.00     0.274 C 
HETATM    7  N   UNL     1       5.497  29.736  54.777  1.00  0.00    -0.263 N 
HETATM    8  H   UNL     1       6.383  29.804  54.284  1.00  0.00     0.190 HD
HETATM    9  O   UNL     1       4.115  28.690  56.256  1.00  0.00    -0.266 OA
BRANCH   7  10
HETATM   10  N   UNL     1       4.663  30.854  54.688  1.00  0.00    -0.263 N 
HETATM   11  C   UNL     1       3.761  30.908  53.651  1.00  0.00     0.275 C 
HETATM   12  O   UNL     1       3.713  30.029  52.787  1.00  0.00    -0.266 OA
HETATM   13  H   UNL     1       4.714  31.557  55.434  1.00  0.00     0.190 HD
BRANCH  11  14
HETATM   14  C   UNL     1       2.846  32.082  53.641  1.00  0.00     0.101 A 
HETATM   15  C   UNL     1       1.976  32.460  54.795  1.00  0.00     0.261 A 
HETATM   16  O   UNL     1       1.965  31.820  55.842  1.00  0.00    -0.267 OA
HETATM   17  N   UNL     1       1.176  33.569  54.622  1.00  0.00    -0.333 N 
HETATM   18  C   UNL     1       1.144  34.320  53.477  1.00  0.00     0.091 A 
HETATM   19  H   UNL     1       0.587  33.816  55.410  1.00  0.00     0.168 HD
HETATM   20  C   UNL     1       1.921  33.992  52.439  1.00  0.00     0.018 A 
HETATM   21  C   UNL     1       2.791  32.842  52.529  1.00  0.00     0.024 A 
ENDBRANCH  11  14
ENDBRANCH   7  10
ENDBRANCH   5   6
BRANCH   1  22
HETATM   22  C   UNL     1       8.148  28.464  56.986  1.00  0.00    -0.005 A 
HETATM   23  C   UNL     1       7.593  28.971  58.170  1.00  0.00     0.014 A 
HETATM   24  C   UNL     1       8.276  29.926  58.927  1.00  0.00     0.001 A 
HETATM   25  C   UNL     1       9.520  30.388  58.503  1.00  0.00     0.000 A 
HETATM   26  C   UNL     1      10.075  29.903  57.320  1.00  0.00     0.001 A 
HETATM   27  C   UNL     1       9.388  28.951  56.560  1.00  0.00     0.014 A 
ENDBRANCH   1  22
BRANCH   3  28
HETATM   28  C   UNL     1       7.371  24.288  54.740  1.00  0.00     0.058 A 
HETATM   29  C   UNL     1       7.592  24.074  53.369  1.00  0.00     0.031 A 
HETATM   30  C   UNL     1       7.873  22.792  52.893  1.00  0.00     0.002 A 
HETATM   31  C   UNL     1       7.936  21.717  53.775  1.00  0.00     0.000 A 
HETATM   32  C   UNL     1       7.720  21.921  55.138  1.00  0.00     0.002 A 
HETATM   33  C   UNL     1       7.439  23.201  55.623  1.00  0.00     0.031 A 
ENDBRANCH   3  28
TORSDOF 5
ENDMDL
