MODEL 1
REMARK VINA RESULT:      -8.3      0.000      0.000
REMARK  5 active torsions:
REMARK  status: ('A' for Active; 'I' for Inactive)
REMARK    1  A    between atoms: C_8  and  N_9 
REMARK       I    between atoms: N_9  and  C_10 
REMARK    2  A    between atoms: C_10  and  C_11 
REMARK    3  A    between atoms: C_11  and  N_12 
REMARK    4  A    between atoms: N_12  and  C_13 
REMARK    5  A    between atoms: C_13  and  C_14 
ROOT
HETATM    1  C   UNL     1       6.720  27.324  57.382  1.00  0.00     0.372 C 
ENDROOT
BRANCH   1   2
HETATM    2  C   UNL     1       7.314  28.730  57.209  1.00  0.00     0.250 C 
HETATM    3  N   UNL     1       8.103  29.094  58.279  1.00  0.00    -0.322 N 
HETATM    4  H   UNL     1       8.090  28.433  59.053  1.00  0.00     0.169 HD
HETATM    5  O   UNL     1       7.106  29.372  56.186  1.00  0.00    -0.271 OA
BRANCH   3   6
HETATM    6  C   UNL     1       8.854  30.244  58.436  1.00  0.00     0.085 A 
HETATM    7  C   UNL     1      10.072  30.403  57.801  1.00  0.00     0.052 A 
HETATM    8  C   UNL     1      10.849  29.526  56.895  1.00  0.00     0.072 C 
HETATM    9  N   UNL     1      10.529  31.635  58.170  1.00  0.00    -0.280 N 
HETATM   10  H   UNL     1      11.393  32.090  57.899  1.00  0.00     0.189 HD
HETATM   11  N   UNL     1       9.703  32.295  58.987  1.00  0.00    -0.177 NA
HETATM   12  C   UNL     1       8.667  31.460  59.158  1.00  0.00     0.079 A 
HETATM   13  C   UNL     1       7.541  31.914  60.012  1.00  0.00     0.075 C 
ENDBRANCH   3   6
ENDBRANCH   1   2
BRANCH   1  14
HETATM   14  N   UNL     1       7.599  26.307  56.758  1.00  0.00     0.101 N 
HETATM   15  H   UNL     1       8.345  26.107  57.430  1.00  0.00     0.317 HD
BRANCH  14  16
HETATM   16  C   UNL     1       6.885  25.043  56.489  1.00  0.00     0.254 C 
HETATM   17  C   UNL     1       5.359  25.179  56.582  1.00  0.00     0.048 C 
BRANCH  16  18
HETATM   18  C   UNL     1       7.275  24.455  55.140  1.00  0.00     0.035 A 
HETATM   19  C   UNL     1       7.270  25.152  53.918  1.00  0.00     0.045 A 
HETATM   20 CL   UNL     1       6.841  26.821  53.785  1.00  0.00    -0.084 Cl
HETATM   21  C   UNL     1       7.616  24.505  52.721  1.00  0.00     0.024 A 
HETATM   22  C   UNL     1       7.964  23.156  52.715  1.00  0.00     0.005 A 
HETATM   23  C   UNL     1       7.965  22.447  53.909  1.00  0.00     0.043 A 
HETATM   24  C   UNL     1       7.623  23.094  55.095  1.00  0.00     0.126 A 
HETATM   25  F   UNL     1       7.623  22.367  56.223  1.00  0.00    -0.205 F 
ENDBRANCH  16  18
ENDBRANCH  14  16
ENDBRANCH   1  14
TORSDOF 5
ENDMDL
MODEL 2
REMARK VINA RESULT:      -8.1      0.715      1.874
REMARK  5 active torsions:
REMARK  status: ('A' for Active; 'I' for Inactive)
REMARK    1  A    between atoms: C_8  and  N_9 
REMARK       I    between atoms: N_9  and  C_10 
REMARK    2  A    between atoms: C_10  and  C_11 
REMARK    3  A    between atoms: C_11  and  N_12 
REMARK    4  A    between atoms: N_12  and  C_13 
REMARK    5  A    between atoms: C_13  and  C_14 
ROOT
HETATM    1  C   UNL     1       6.226  27.579  57.217  1.00  0.00     0.372 C 
ENDROOT
BRANCH   1   2
HETATM    2  C   UNL     1       6.972  28.916  57.089  1.00  0.00     0.250 C 
HETATM    3  N   UNL     1       7.928  29.071  58.069  1.00  0.00    -0.322 N 
HETATM    4  H   UNL     1       7.925  28.338  58.777  1.00  0.00     0.169 HD
HETATM    5  O   UNL     1       6.723  29.681  56.164  1.00  0.00    -0.271 OA
BRANCH   3   6
HETATM    6  C   UNL     1       8.836  30.102  58.223  1.00  0.00     0.085 A 
HETATM    7  C   UNL     1       8.576  31.174  59.057  1.00  0.00     0.052 A 
HETATM    8  C   UNL     1       7.419  31.514  59.918  1.00  0.00     0.072 C 
HETATM    9  N   UNL     1       9.668  31.989  58.971  1.00  0.00    -0.280 N 
HETATM   10  H   UNL     1       9.831  32.870  59.445  1.00  0.00     0.189 HD
HETATM   11  N   UNL     1      10.620  31.531  58.154  1.00  0.00    -0.177 NA
HETATM   12  C   UNL     1      10.130  30.372  57.689  1.00  0.00     0.079 A 
HETATM   13  C   UNL     1      10.975  29.584  56.756  1.00  0.00     0.075 C 
ENDBRANCH   3   6
ENDBRANCH   1   2
BRANCH   1  14
HETATM   14  N   UNL     1       7.174  26.443  57.125  1.00  0.00     0.101 N 
HETATM   15  H   UNL     1       7.718  26.440  57.992  1.00  0.00     0.317 HD
BRANCH  14  16
HETATM   16  C   UNL     1       6.480  25.145  57.025  1.00  0.00     0.254 C 
HETATM   17  C   UNL     1       4.953  25.265  57.133  1.00  0.00     0.048 C 
BRANCH  16  18
HETATM   18  C   UNL     1       6.855  24.405  55.748  1.00  0.00     0.035 A 
HETATM   19  C   UNL     1       6.433  24.756  54.452  1.00  0.00     0.045 A 
HETATM   20 CL   UNL     1       5.434  26.128  54.124  1.00  0.00    -0.084 Cl
HETATM   21  C   UNL     1       6.810  23.985  53.340  1.00  0.00     0.024 A 
HETATM   22  C   UNL     1       7.602  22.850  53.497  1.00  0.00     0.005 A 
HETATM   23  C   UNL     1       8.020  22.480  54.768  1.00  0.00     0.043 A 
HETATM   24  C   UNL     1       7.646  23.250  55.868  1.00  0.00     0.126 A 
HETATM   25  F   UNL     1       8.061  22.847  57.079  1.00  0.00    -0.205 F 
ENDBRANCH  16  18
ENDBRANCH  14  16
ENDBRANCH   1  14
TORSDOF 5
ENDMDL
MODEL 3
REMARK VINA RESULT:      -8.1      4.434      5.528
REMARK  5 active torsions:
REMARK  status: ('A' for Active; 'I' for Inactive)
REMARK    1  A    between atoms: C_8  and  N_9 
REMARK       I    between atoms: N_9  and  C_10 
REMARK    2  A    between atoms: C_10  and  C_11 
REMARK    3  A    between atoms: C_11  and  N_12 
REMARK    4  A    between atoms: N_12  and  C_13 
REMARK    5  A    between atoms: C_13  and  C_14 
ROOT
HETATM    1  C   UNL     1       6.433  25.699  57.035  1.00  0.00     0.372 C 
ENDROOT
BRANCH   1   2
HETATM    2  C   UNL     1       6.362  26.600  55.793  1.00  0.00     0.250 C 
HETATM    3  N   UNL     1       5.289  26.285  54.986  1.00  0.00    -0.322 N 
HETATM    4  H   UNL     1       4.778  25.453  55.275  1.00  0.00     0.169 HD
HETATM    5  O   UNL     1       7.171  27.507  55.635  1.00  0.00    -0.271 OA
BRANCH   3   6
HETATM    6  C   UNL     1       4.868  26.925  53.835  1.00  0.00     0.085 A 
HETATM    7  C   UNL     1       4.718  26.241  52.643  1.00  0.00     0.052 A 
HETATM    8  C   UNL     1       4.932  24.824  52.269  1.00  0.00     0.072 C 
HETATM    9  N   UNL     1       4.293  27.166  51.732  1.00  0.00    -0.280 N 
HETATM   10  H   UNL     1       4.081  27.027  50.751  1.00  0.00     0.189 HD
HETATM   11  N   UNL     1       4.148  28.394  52.237  1.00  0.00    -0.177 NA
HETATM   12  C   UNL     1       4.491  28.266  53.528  1.00  0.00     0.079 A 
HETATM   13  C   UNL     1       4.412  29.470  54.392  1.00  0.00     0.075 C 
ENDBRANCH   3   6
ENDBRANCH   1   2
BRANCH   1  14
HETATM   14  N   UNL     1       6.688  24.292  56.644  1.00  0.00     0.101 N 
HETATM   15  H   UNL     1       5.933  24.020  56.007  1.00  0.00     0.317 HD
BRANCH  14  16
HETATM   16  C   UNL     1       7.965  24.136  55.921  1.00  0.00     0.254 C 
HETATM   17  C   UNL     1       9.193  24.231  56.837  1.00  0.00     0.048 C 
BRANCH  16  18
HETATM   18  C   UNL     1       8.005  22.838  55.127  1.00  0.00     0.035 A 
HETATM   19  C   UNL     1       8.098  21.548  55.683  1.00  0.00     0.045 A 
HETATM   20 CL   UNL     1       8.147  21.256  57.386  1.00  0.00    -0.084 Cl
HETATM   21  C   UNL     1       8.163  20.414  54.858  1.00  0.00     0.024 A 
HETATM   22  C   UNL     1       8.145  20.540  53.471  1.00  0.00     0.005 A 
HETATM   23  C   UNL     1       8.064  21.804  52.902  1.00  0.00     0.043 A 
HETATM   24  C   UNL     1       7.998  22.927  53.725  1.00  0.00     0.126 A 
HETATM   25  F   UNL     1       7.936  24.129  53.132  1.00  0.00    -0.205 F 
ENDBRANCH  16  18
ENDBRANCH  14  16
ENDBRANCH   1  14
TORSDOF 5
ENDMDL
MODEL 4
REMARK VINA RESULT:      -7.9      4.467      5.772
REMARK  5 active torsions:
REMARK  status: ('A' for Active; 'I' for Inactive)
REMARK    1  A    between atoms: C_8  and  N_9 
REMARK       I    between atoms: N_9  and  C_10 
REMARK    2  A    between atoms: C_10  and  C_11 
REMARK    3  A    between atoms: C_11  and  N_12 
REMARK    4  A    between atoms: N_12  and  C_13 
REMARK    5  A    between atoms: C_13  and  C_14 
ROOT
HETATM    1  C   UNL     1       5.030  24.800  52.386  1.00  0.00     0.372 C 
ENDROOT
BRANCH   1   2
HETATM    2  C   UNL     1       4.980  26.335  52.327  1.00  0.00     0.250 C 
HETATM    3  N   UNL     1       4.106  26.859  53.255  1.00  0.00    -0.322 N 
HETATM    4  H   UNL     1       3.561  26.162  53.758  1.00  0.00     0.169 HD
HETATM    5  O   UNL     1       5.701  26.952  51.551  1.00  0.00    -0.271 OA
BRANCH   3   6
HETATM    6  C   UNL     1       3.860  28.189  53.541  1.00  0.00     0.085 A 
HETATM    7  C   UNL     1       4.136  28.723  54.787  1.00  0.00     0.052 A 
HETATM    8  C   UNL     1       4.690  28.132  56.027  1.00  0.00     0.072 C 
HETATM    9  N   UNL     1       3.779  30.038  54.718  1.00  0.00    -0.280 N 
HETATM   10  H   UNL     1       3.838  30.742  55.445  1.00  0.00     0.189 HD
HETATM   11  N   UNL     1       3.301  30.407  53.527  1.00  0.00    -0.177 NA
HETATM   12  C   UNL     1       3.348  29.287  52.789  1.00  0.00     0.079 A 
HETATM   13  C   UNL     1       2.900  29.366  51.376  1.00  0.00     0.075 C 
ENDBRANCH   3   6
ENDBRANCH   1   2
BRANCH   1  14
HETATM   14  N   UNL     1       5.837  24.350  53.544  1.00  0.00     0.101 N 
HETATM   15  H   UNL     1       5.235  23.741  54.106  1.00  0.00     0.317 HD
BRANCH  14  16
HETATM   16  C   UNL     1       7.014  23.561  53.131  1.00  0.00     0.254 C 
HETATM   17  C   UNL     1       8.141  24.419  52.541  1.00  0.00     0.048 C 
BRANCH  16  18
HETATM   18  C   UNL     1       7.551  22.712  54.275  1.00  0.00     0.035 A 
HETATM   19  C   UNL     1       7.893  23.194  55.553  1.00  0.00     0.045 A 
HETATM   20 CL   UNL     1       7.715  24.850  56.015  1.00  0.00    -0.084 Cl
HETATM   21  C   UNL     1       8.413  22.330  56.530  1.00  0.00     0.024 A 
HETATM   22  C   UNL     1       8.609  20.979  56.255  1.00  0.00     0.005 A 
HETATM   23  C   UNL     1       8.288  20.485  54.998  1.00  0.00     0.043 A 
HETATM   24  C   UNL     1       7.770  21.346  54.031  1.00  0.00     0.126 A 
HETATM   25  F   UNL     1       7.487  20.829  52.826  1.00  0.00    -0.205 F 
ENDBRANCH  16  18
ENDBRANCH  14  16
ENDBRANCH   1  14
TORSDOF 5
ENDMDL
MODEL 5
REMARK VINA RESULT:      -7.8      4.671      5.898
REMARK  5 active torsions:
REMARK  status: ('A' for Active; 'I' for Inactive)
REMARK    1  A    between atoms: C_8  and  N_9 
REMARK       I    between atoms: N_9  and  C_10 
REMARK    2  A    between atoms: C_10  and  C_11 
REMARK    3  A    between atoms: C_11  and  N_12 
REMARK    4  A    between atoms: N_12  and  C_13 
REMARK    5  A    between atoms: C_13  and  C_14 
ROOT
HETATM    1  C   UNL     1       5.046  24.936  52.715  1.00  0.00     0.372 C 
ENDROOT
BRANCH   1   2
HETATM    2  C   UNL     1       5.072  26.471  52.652  1.00  0.00     0.250 C 
HETATM    3  N   UNL     1       3.971  27.032  53.262  1.00  0.00    -0.322 N 
HETATM    4  H   UNL     1       3.270  26.358  53.563  1.00  0.00     0.169 HD
HETATM    5  O   UNL     1       6.023  27.056  52.148  1.00  0.00    -0.271 OA
BRANCH   3   6
HETATM    6  C   UNL     1       3.696  28.372  53.464  1.00  0.00     0.085 A 
HETATM    7  C   UNL     1       3.149  29.155  52.464  1.00  0.00     0.052 A 
HETATM    8  C   UNL     1       2.749  28.860  51.069  1.00  0.00     0.072 C 
HETATM    9  N   UNL     1       3.011  30.403  53.000  1.00  0.00    -0.280 N 
HETATM   10  H   UNL     1       2.644  31.237  52.557  1.00  0.00     0.189 HD
HETATM   11  N   UNL     1       3.416  30.494  54.270  1.00  0.00    -0.177 NA
HETATM   12  C   UNL     1       3.835  29.256  54.574  1.00  0.00     0.079 A 
HETATM   13  C   UNL     1       4.335  29.009  55.950  1.00  0.00     0.075 C 
ENDBRANCH   3   6
ENDBRANCH   1   2
BRANCH   1  14
HETATM   14  N   UNL     1       5.895  24.445  53.826  1.00  0.00     0.101 N 
HETATM   15  H   UNL     1       5.296  23.869  54.425  1.00  0.00     0.317 HD
BRANCH  14  16
HETATM   16  C   UNL     1       7.002  23.594  53.348  1.00  0.00     0.254 C 
HETATM   17  C   UNL     1       8.132  24.391  52.681  1.00  0.00     0.048 C 
BRANCH  16  18
HETATM   18  C   UNL     1       7.566  22.726  54.464  1.00  0.00     0.035 A 
HETATM   19  C   UNL     1       7.890  21.362  54.347  1.00  0.00     0.045 A 
HETATM   20 CL   UNL     1       7.715  20.473  52.875  1.00  0.00    -0.084 Cl
HETATM   21  C   UNL     1       8.374  20.642  55.452  1.00  0.00     0.024 A 
HETATM   22  C   UNL     1       8.537  21.260  56.689  1.00  0.00     0.005 A 
HETATM   23  C   UNL     1       8.215  22.603  56.828  1.00  0.00     0.043 A 
HETATM   24  C   UNL     1       7.737  23.314  55.729  1.00  0.00     0.126 A 
HETATM   25  F   UNL     1       7.424  24.606  55.912  1.00  0.00    -0.205 F 
ENDBRANCH  16  18
ENDBRANCH  14  16
ENDBRANCH   1  14
TORSDOF 5
ENDMDL
MODEL 6
REMARK VINA RESULT:      -7.8      4.145      5.197
REMARK  5 active torsions:
REMARK  status: ('A' for Active; 'I' for Inactive)
REMARK    1  A    between atoms: C_8  and  N_9 
REMARK       I    between atoms: N_9  and  C_10 
REMARK    2  A    between atoms: C_10  and  C_11 
REMARK    3  A    between atoms: C_11  and  N_12 
REMARK    4  A    between atoms: N_12  and  C_13 
REMARK    5  A    between atoms: C_13  and  C_14 
ROOT
HETATM    1  C   UNL     1       6.568  25.608  57.219  1.00  0.00     0.372 C 
ENDROOT
BRANCH   1   2
HETATM    2  C   UNL     1       5.570  26.473  56.435  1.00  0.00     0.250 C 
HETATM    3  N   UNL     1       5.852  26.494  55.086  1.00  0.00    -0.322 N 
HETATM    4  H   UNL     1       6.721  26.027  54.833  1.00  0.00     0.169 HD
HETATM    5  O   UNL     1       4.628  27.009  57.007  1.00  0.00    -0.271 OA
BRANCH   3   6
HETATM    6  C   UNL     1       5.133  27.098  54.072  1.00  0.00     0.085 A 
HETATM    7  C   UNL     1       4.695  26.383  52.972  1.00  0.00     0.052 A 
HETATM    8  C   UNL     1       4.838  24.961  52.583  1.00  0.00     0.072 C 
HETATM    9  N   UNL     1       4.028  27.277  52.185  1.00  0.00    -0.280 N 
HETATM   10  H   UNL     1       3.572  27.110  51.296  1.00  0.00     0.189 HD
HETATM   11  N   UNL     1       3.990  28.514  52.686  1.00  0.00    -0.177 NA
HETATM   12  C   UNL     1       4.659  28.424  53.847  1.00  0.00     0.079 A 
HETATM   13  C   UNL     1       4.778  29.648  54.678  1.00  0.00     0.075 C 
ENDBRANCH   3   6
ENDBRANCH   1   2
BRANCH   1  14
HETATM   14  N   UNL     1       6.742  24.290  56.564  1.00  0.00     0.101 N 
HETATM   15  H   UNL     1       6.069  24.250  55.794  1.00  0.00     0.317 HD
BRANCH  14  16
HETATM   16  C   UNL     1       8.092  24.126  55.991  1.00  0.00     0.254 C 
HETATM   17  C   UNL     1       9.215  24.332  57.018  1.00  0.00     0.048 C 
BRANCH  16  18
HETATM   18  C   UNL     1       8.252  22.775  55.308  1.00  0.00     0.035 A 
HETATM   19  C   UNL     1       8.283  22.567  53.917  1.00  0.00     0.045 A 
HETATM   20 CL   UNL     1       8.172  23.853  52.767  1.00  0.00    -0.084 Cl
HETATM   21  C   UNL     1       8.402  21.271  53.387  1.00  0.00     0.024 A 
HETATM   22  C   UNL     1       8.482  20.163  54.227  1.00  0.00     0.005 A 
HETATM   23  C   UNL     1       8.444  20.346  55.603  1.00  0.00     0.043 A 
HETATM   24  C   UNL     1       8.328  21.633  56.124  1.00  0.00     0.126 A 
HETATM   25  F   UNL     1       8.280  21.762  57.459  1.00  0.00    -0.205 F 
ENDBRANCH  16  18
ENDBRANCH  14  16
ENDBRANCH   1  14
TORSDOF 5
ENDMDL
MODEL 7
REMARK VINA RESULT:      -7.7      1.699      2.478
REMARK  5 active torsions:
REMARK  status: ('A' for Active; 'I' for Inactive)
REMARK    1  A    between atoms: C_8  and  N_9 
REMARK       I    between atoms: N_9  and  C_10 
REMARK    2  A    between atoms: C_10  and  C_11 
REMARK    3  A    between atoms: C_11  and  N_12 
REMARK    4  A    between atoms: N_12  and  C_13 
REMARK    5  A    between atoms: C_13  and  C_14 
ROOT
HETATM    1  C   UNL     1       8.278  26.000  57.266  1.00  0.00     0.372 C 
ENDROOT
BRANCH   1   2
HETATM    2  C   UNL     1       7.963  27.465  56.930  1.00  0.00     0.250 C 
HETATM    3  N   UNL     1       7.618  28.190  58.050  1.00  0.00    -0.322 N 
HETATM    4  H   UNL     1       7.525  27.634  58.898  1.00  0.00     0.169 HD
HETATM    5  O   UNL     1       8.079  27.878  55.782  1.00  0.00    -0.271 OA
BRANCH   3   6
HETATM    6  C   UNL     1       7.348  29.543  58.143  1.00  0.00     0.085 A 
HETATM    7  C   UNL     1       6.135  30.066  57.734  1.00  0.00     0.052 A 
HETATM    8  C   UNL     1       4.924  29.444  57.150  1.00  0.00     0.072 C 
HETATM    9  N   UNL     1       6.209  31.409  57.966  1.00  0.00    -0.280 N 
HETATM   10  H   UNL     1       5.504  32.115  57.788  1.00  0.00     0.189 HD
HETATM   11  N   UNL     1       7.369  31.802  58.500  1.00  0.00    -0.177 NA
HETATM   12  C   UNL     1       8.079  30.670  58.620  1.00  0.00     0.079 A 
HETATM   13  C   UNL     1       9.436  30.761  59.217  1.00  0.00     0.075 C 
ENDBRANCH   3   6
ENDBRANCH   1   2
BRANCH   1  14
HETATM   14  N   UNL     1       8.257  25.167  56.040  1.00  0.00     0.101 N 
HETATM   15  H   UNL     1       9.177  24.723  55.967  1.00  0.00     0.317 HD
BRANCH  14  16
HETATM   16  C   UNL     1       7.245  24.095  56.112  1.00  0.00     0.254 C 
HETATM   17  C   UNL     1       5.814  24.597  55.874  1.00  0.00     0.048 C 
BRANCH  16  18
HETATM   18  C   UNL     1       7.564  22.958  55.151  1.00  0.00     0.035 A 
HETATM   19  C   UNL     1       7.573  23.058  53.748  1.00  0.00     0.045 A 
HETATM   20 CL   UNL     1       7.245  24.532  52.905  1.00  0.00    -0.084 Cl
HETATM   21  C   UNL     1       7.848  21.937  52.949  1.00  0.00     0.024 A 
HETATM   22  C   UNL     1       8.111  20.697  53.528  1.00  0.00     0.005 A 
HETATM   23  C   UNL     1       8.098  20.574  54.911  1.00  0.00     0.043 A 
HETATM   24  C   UNL     1       7.826  21.691  55.700  1.00  0.00     0.126 A 
HETATM   25  F   UNL     1       7.809  21.523  57.031  1.00  0.00    -0.205 F 
ENDBRANCH  16  18
ENDBRANCH  14  16
ENDBRANCH   1  14
TORSDOF 5
ENDMDL
MODEL 8
REMARK VINA RESULT:      -7.7      5.530      9.443
REMARK  5 active torsions:
REMARK  status: ('A' for Active; 'I' for Inactive)
REMARK    1  A    between atoms: C_8  and  N_9 
REMARK       I    between atoms: N_9  and  C_10 
REMARK    2  A    between atoms: C_10  and  C_11 
REMARK    3  A    between atoms: C_11  and  N_12 
REMARK    4  A    between atoms: N_12  and  C_13 
REMARK    5  A    between atoms: C_13  and  C_14 
ROOT
HETATM    1  C   UNL     1       8.522  30.979  61.293  1.00  0.00     0.372 C 
ENDROOT
BRANCH   1   2
HETATM    2  C   UNL     1       8.770  31.122  59.784  1.00  0.00     0.250 C 
HETATM    3  N   UNL     1       8.486  29.958  59.101  1.00  0.00    -0.322 N 
HETATM    4  H   UNL     1       8.259  29.166  59.699  1.00  0.00     0.169 HD
HETATM    5  O   UNL     1       9.129  32.194  59.312  1.00  0.00    -0.271 OA
BRANCH   3   6
HETATM    6  C   UNL     1       8.518  29.739  57.736  1.00  0.00     0.085 A 
HETATM    7  C   UNL     1       7.356  29.615  56.998  1.00  0.00     0.052 A 
HETATM    8  C   UNL     1       5.923  29.661  57.373  1.00  0.00     0.072 C 
HETATM    9  N   UNL     1       7.752  29.412  55.707  1.00  0.00    -0.280 N 
HETATM   10  H   UNL     1       7.171  29.277  54.888  1.00  0.00     0.189 HD
HETATM   11  N   UNL     1       9.078  29.403  55.544  1.00  0.00    -0.177 NA
HETATM   12  C   UNL     1       9.566  29.607  56.778  1.00  0.00     0.079 A 
HETATM   13  C   UNL     1      11.040  29.677  56.939  1.00  0.00     0.075 C 
ENDBRANCH   3   6
ENDBRANCH   1   2
BRANCH   1  14
HETATM   14  N   UNL     1       7.095  31.222  61.612  1.00  0.00     0.101 N 
HETATM   15  H   UNL     1       6.919  30.799  62.528  1.00  0.00     0.317 HD
BRANCH  14  16
HETATM   16  C   UNL     1       6.784  32.661  61.716  1.00  0.00     0.254 C 
HETATM   17  C   UNL     1       5.747  33.131  60.686  1.00  0.00     0.048 C 
BRANCH  16  18
HETATM   18  C   UNL     1       6.332  33.038  63.119  1.00  0.00     0.035 A 
HETATM   19  C   UNL     1       4.995  33.220  63.521  1.00  0.00     0.045 A 
HETATM   20 CL   UNL     1       3.652  33.003  62.454  1.00  0.00    -0.084 Cl
HETATM   21  C   UNL     1       4.686  33.602  64.836  1.00  0.00     0.024 A 
HETATM   22  C   UNL     1       5.696  33.817  65.771  1.00  0.00     0.005 A 
HETATM   23  C   UNL     1       7.022  33.653  65.393  1.00  0.00     0.043 A 
HETATM   24  C   UNL     1       7.324  33.272  64.087  1.00  0.00     0.126 A 
HETATM   25  F   UNL     1       8.619  33.139  63.761  1.00  0.00    -0.205 F 
ENDBRANCH  16  18
ENDBRANCH  14  16
ENDBRANCH   1  14
TORSDOF 5
ENDMDL
MODEL 9
REMARK VINA RESULT:      -7.6      3.055      7.764
REMARK  5 active torsions:
REMARK  status: ('A' for Active; 'I' for Inactive)
REMARK    1  A    between atoms: C_8  and  N_9 
REMARK       I    between atoms: N_9  and  C_10 
REMARK    2  A    between atoms: C_10  and  C_11 
REMARK    3  A    between atoms: C_11  and  N_12 
REMARK    4  A    between atoms: N_12  and  C_13 
REMARK    5  A    between atoms: C_13  and  C_14 
ROOT
HETATM    1  C   UNL     1       8.056  25.711  57.562  1.00  0.00     0.372 C 
ENDROOT
BRANCH   1   2
HETATM    2  C   UNL     1       7.424  24.815  56.487  1.00  0.00     0.250 C 
HETATM    3  N   UNL     1       8.360  24.022  55.858  1.00  0.00    -0.322 N 
HETATM    4  H   UNL     1       9.323  24.220  56.124  1.00  0.00     0.169 HD
HETATM    5  O   UNL     1       6.212  24.823  56.303  1.00  0.00    -0.271 OA
BRANCH   3   6
HETATM    6  C   UNL     1       8.150  23.046  54.902  1.00  0.00     0.085 A 
HETATM    7  C   UNL     1       8.083  21.707  55.239  1.00  0.00     0.052 A 
HETATM    8  C   UNL     1       8.204  20.995  56.532  1.00  0.00     0.072 C 
HETATM    9  N   UNL     1       7.868  21.037  54.070  1.00  0.00    -0.280 N 
HETATM   10  H   UNL     1       7.767  20.038  53.930  1.00  0.00     0.189 HD
HETATM   11  N   UNL     1       7.781  21.831  53.000  1.00  0.00    -0.177 NA
HETATM   12  C   UNL     1       7.947  23.069  53.490  1.00  0.00     0.079 A 
HETATM   13  C   UNL     1       7.878  24.208  52.541  1.00  0.00     0.075 C 
ENDBRANCH   3   6
ENDBRANCH   1   2
BRANCH   1  14
HETATM   14  N   UNL     1       7.516  27.089  57.477  1.00  0.00     0.101 N 
HETATM   15  H   UNL     1       7.524  27.470  58.427  1.00  0.00     0.317 HD
BRANCH  14  16
HETATM   16  C   UNL     1       8.352  27.964  56.633  1.00  0.00     0.254 C 
HETATM   17  C   UNL     1       7.695  28.317  55.291  1.00  0.00     0.048 C 
BRANCH  16  18
HETATM   18  C   UNL     1       8.752  29.236  57.368  1.00  0.00     0.035 A 
HETATM   19  C   UNL     1       7.862  30.120  58.005  1.00  0.00     0.045 A 
HETATM   20 CL   UNL     1       6.155  29.858  58.067  1.00  0.00    -0.084 Cl
HETATM   21  C   UNL     1       8.333  31.287  58.628  1.00  0.00     0.024 A 
HETATM   22  C   UNL     1       9.691  31.600  58.622  1.00  0.00     0.005 A 
HETATM   23  C   UNL     1      10.584  30.746  57.990  1.00  0.00     0.043 A 
HETATM   24  C   UNL     1      10.113  29.587  57.375  1.00  0.00     0.126 A 
HETATM   25  F   UNL     1      11.010  28.798  56.764  1.00  0.00    -0.205 F 
ENDBRANCH  16  18
ENDBRANCH  14  16
ENDBRANCH   1  14
TORSDOF 5
ENDMDL
MODEL 10
REMARK VINA RESULT:      -7.6      2.733      3.633
REMARK  5 active torsions:
REMARK  status: ('A' for Active; 'I' for Inactive)
REMARK    1  A    between atoms: C_8  and  N_9 
REMARK       I    between atoms: N_9  and  C_10 
REMARK    2  A    between atoms: C_10  and  C_11 
REMARK    3  A    between atoms: C_11  and  N_12 
REMARK    4  A    between atoms: N_12  and  C_13 
REMARK    5  A    between atoms: C_13  and  C_14 
ROOT
HETATM    1  C   UNL     1       5.698  25.027  55.155  1.00  0.00     0.372 C 
ENDROOT
BRANCH   1   2
HETATM    2  C   UNL     1       5.651  26.562  55.192  1.00  0.00     0.250 C 
HETATM    3  N   UNL     1       6.056  27.063  56.411  1.00  0.00    -0.322 N 
HETATM    4  H   UNL     1       6.222  26.352  57.121  1.00  0.00     0.169 HD
HETATM    5  O   UNL     1       5.330  27.199  54.196  1.00  0.00    -0.271 OA
BRANCH   3   6
HETATM    6  C   UNL     1       6.214  28.385  56.782  1.00  0.00     0.085 A 
HETATM    7  C   UNL     1       7.449  28.890  57.148  1.00  0.00     0.052 A 
HETATM    8  C   UNL     1       8.791  28.271  57.251  1.00  0.00     0.072 C 
HETATM    9  N   UNL     1       7.242  30.206  57.445  1.00  0.00    -0.280 N 
HETATM   10  H   UNL     1       7.921  30.892  57.753  1.00  0.00     0.189 HD
HETATM   11  N   UNL     1       5.975  30.601  57.295  1.00  0.00    -0.177 NA
HETATM   12  C   UNL     1       5.329  29.499  56.884  1.00  0.00     0.079 A 
HETATM   13  C   UNL     1       3.877  29.610  56.598  1.00  0.00     0.075 C 
ENDBRANCH   3   6
ENDBRANCH   1   2
BRANCH   1  14
HETATM   14  N   UNL     1       6.604  24.508  56.207  1.00  0.00     0.101 N 
HETATM   15  H   UNL     1       6.198  23.628  56.540  1.00  0.00     0.317 HD
BRANCH  14  16
HETATM   16  C   UNL     1       7.952  24.213  55.687  1.00  0.00     0.254 C 
HETATM   17  C   UNL     1       9.046  24.290  56.762  1.00  0.00     0.048 C 
BRANCH  16  18
HETATM   18  C   UNL     1       8.002  22.860  54.991  1.00  0.00     0.035 A 
HETATM   19  C   UNL     1       8.087  21.615  55.640  1.00  0.00     0.045 A 
HETATM   20 CL   UNL     1       8.115  21.447  57.360  1.00  0.00    -0.084 Cl
HETATM   21  C   UNL     1       8.160  20.423  54.901  1.00  0.00     0.024 A 
HETATM   22  C   UNL     1       8.160  20.447  53.508  1.00  0.00     0.005 A 
HETATM   23  C   UNL     1       8.087  21.666  52.848  1.00  0.00     0.043 A 
HETATM   24  C   UNL     1       8.011  22.846  53.585  1.00  0.00     0.126 A 
HETATM   25  F   UNL     1       7.957  24.002  52.906  1.00  0.00    -0.205 F 
ENDBRANCH  16  18
ENDBRANCH  14  16
ENDBRANCH   1  14
TORSDOF 5
ENDMDL
