MODEL 1
REMARK VINA RESULT:     -11.0      0.000      0.000
REMARK  4 active torsions:
REMARK  status: ('A' for Active; 'I' for Inactive)
REMARK    1  A    between atoms: C_5  and  N_6 
REMARK       I    between atoms: N_6  and  C_7 
REMARK    2  A    between atoms: C_7  and  C_8 
REMARK    3  A    between atoms: C_12  and  C_13 
REMARK    4  A    between atoms: N_24  and  C_25 
ROOT
HETATM    1  N   UNL     1       7.163  29.098  57.130  1.00  0.00    -0.348 N 
HETATM    2  C   UNL     1       7.012  28.487  55.914  1.00  0.00     0.257 C 
HETATM    3  O   UNL     1       6.828  29.111  54.873  1.00  0.00    -0.267 OA
HETATM    4  H   UNL     1       7.287  28.513  57.958  1.00  0.00     0.163 HD
ENDROOT
BRANCH   1   5
HETATM    5  C   UNL     1       7.314  30.530  57.272  1.00  0.00     0.122 C 
HETATM    6  C   UNL     1       6.064  31.310  56.812  1.00  0.00     0.039 C 
HETATM    7  C   UNL     1       4.920  31.438  57.869  1.00  0.00    -0.040 C 
HETATM    8  C   UNL     1       4.234  30.079  58.113  1.00  0.00     0.015 C 
HETATM    9  C   UNL     1       3.852  32.402  57.307  1.00  0.00     0.015 C 
HETATM   10  C   UNL     1       5.446  32.017  59.221  1.00  0.00     0.069 C 
HETATM   11  C   UNL     1       6.782  31.460  59.586  1.00  0.00     0.047 A 
HETATM   12  C   UNL     1       7.615  30.796  58.704  1.00  0.00     0.008 A 
HETATM   13  N   UNL     1       7.425  31.468  60.820  1.00  0.00    -0.238 N 
HETATM   14  C   UNL     1       8.722  30.417  59.467  1.00  0.00     0.150 A 
HETATM   15  N   UNL     1       8.606  30.784  60.739  1.00  0.00    -0.179 NA
BRANCH  13  16
HETATM   16  C   UNL     1       7.058  32.048  62.075  1.00  0.00     0.058 A 
HETATM   17  C   UNL     1       8.078  32.535  62.914  1.00  0.00     0.031 A 
HETATM   18  C   UNL     1       7.778  33.102  64.156  1.00  0.00     0.002 A 
HETATM   19  C   UNL     1       6.455  33.199  64.572  1.00  0.00     0.000 A 
HETATM   20  C   UNL     1       5.434  32.738  63.744  1.00  0.00     0.002 A 
HETATM   21  C   UNL     1       5.731  32.169  62.499  1.00  0.00     0.031 A 
ENDBRANCH  13  16
ENDBRANCH   1   5
BRANCH   2  22
HETATM   22  C   UNL     1       7.161  27.000  55.924  1.00  0.00     0.100 A 
HETATM   23  C   UNL     1       7.681  26.220  57.086  1.00  0.00     0.261 A 
HETATM   24  O   UNL     1       7.959  26.752  58.159  1.00  0.00    -0.267 OA
HETATM   25  N   UNL     1       7.852  24.870  56.896  1.00  0.00    -0.322 N 
HETATM   26  C   UNL     1       7.576  24.207  55.723  1.00  0.00     0.045 A 
HETATM   27  H   UNL     1       8.202  24.351  57.692  1.00  0.00     0.169 HD
HETATM   28  C   UNL     1       7.083  24.900  54.682  1.00  0.00     0.031 A 
HETATM   29  C   UNL     1       6.869  26.326  54.794  1.00  0.00     0.025 A 
BRANCH  26  30
HETATM   30  C   UNL     1       7.877  22.767  55.638  1.00  0.00    -0.009 A 
HETATM   31  C   UNL     1       7.705  22.081  54.425  1.00  0.00     0.013 A 
HETATM   32  C   UNL     1       7.980  20.714  54.333  1.00  0.00     0.001 A 
HETATM   33  C   UNL     1       8.428  20.017  55.452  1.00  0.00     0.000 A 
HETATM   34  C   UNL     1       8.606  20.685  56.662  1.00  0.00     0.001 A 
HETATM   35  C   UNL     1       8.334  22.052  56.755  1.00  0.00     0.013 A 
ENDBRANCH  26  30
ENDBRANCH   2  22
TORSDOF 4
ENDMDL
MODEL 2
REMARK VINA RESULT:     -10.8      1.604      2.289
REMARK  4 active torsions:
REMARK  status: ('A' for Active; 'I' for Inactive)
REMARK    1  A    between atoms: C_5  and  N_6 
REMARK       I    between atoms: N_6  and  C_7 
REMARK    2  A    between atoms: C_7  and  C_8 
REMARK    3  A    between atoms: C_12  and  C_13 
REMARK    4  A    between atoms: N_24  and  C_25 
ROOT
HETATM    1  N   UNL     1       6.462  30.845  58.506  1.00  0.00    -0.348 N 
HETATM    2  C   UNL     1       6.130  30.365  57.268  1.00  0.00     0.257 C 
HETATM    3  O   UNL     1       5.699  31.081  56.369  1.00  0.00    -0.267 OA
HETATM    4  H   UNL     1       6.791  30.186  59.213  1.00  0.00     0.163 HD
ENDROOT
BRANCH   1   5
HETATM    5  C   UNL     1       6.518  32.260  58.807  1.00  0.00     0.122 C 
HETATM    6  C   UNL     1       5.203  32.994  58.471  1.00  0.00     0.039 C 
HETATM    7  C   UNL     1       4.088  32.918  59.564  1.00  0.00    -0.040 C 
HETATM    8  C   UNL     1       3.507  31.495  59.668  1.00  0.00     0.015 C 
HETATM    9  C   UNL     1       2.939  33.859  59.143  1.00  0.00     0.015 C 
HETATM   10  C   UNL     1       4.618  33.379  60.960  1.00  0.00     0.069 C 
HETATM   11  C   UNL     1       6.000  32.882  61.225  1.00  0.00     0.047 A 
HETATM   12  C   UNL     1       6.848  32.384  60.252  1.00  0.00     0.008 A 
HETATM   13  N   UNL     1       6.682  32.799  62.435  1.00  0.00    -0.238 N 
HETATM   14  C   UNL     1       8.002  32.003  60.939  1.00  0.00     0.150 A 
HETATM   15  N   UNL     1       7.904  32.216  62.248  1.00  0.00    -0.179 NA
BRANCH  13  16
HETATM   16  C   UNL     1       6.316  33.206  63.757  1.00  0.00     0.058 A 
HETATM   17  C   UNL     1       7.340  33.557  64.658  1.00  0.00     0.031 A 
HETATM   18  C   UNL     1       7.042  33.951  65.965  1.00  0.00     0.002 A 
HETATM   19  C   UNL     1       5.719  34.011  66.387  1.00  0.00     0.000 A 
HETATM   20  C   UNL     1       4.695  33.685  65.500  1.00  0.00     0.002 A 
HETATM   21  C   UNL     1       4.990  33.288  64.190  1.00  0.00     0.031 A 
ENDBRANCH  13  16
ENDBRANCH   1   5
BRANCH   2  22
HETATM   22  C   UNL     1       6.401  28.911  57.053  1.00  0.00     0.100 A 
HETATM   23  C   UNL     1       7.519  28.165  57.703  1.00  0.00     0.261 A 
HETATM   24  O   UNL     1       8.262  28.689  58.530  1.00  0.00    -0.267 OA
HETATM   25  N   UNL     1       7.692  26.856  57.320  1.00  0.00    -0.322 N 
HETATM   26  C   UNL     1       6.912  26.206  56.393  1.00  0.00     0.045 A 
HETATM   27  H   UNL     1       8.451  26.359  57.770  1.00  0.00     0.169 HD
HETATM   28  C   UNL     1       5.889  26.866  55.824  1.00  0.00     0.031 A 
HETATM   29  C   UNL     1       5.631  28.246  56.171  1.00  0.00     0.025 A 
BRANCH  26  30
HETATM   30  C   UNL     1       7.258  24.822  56.025  1.00  0.00    -0.009 A 
HETATM   31  C   UNL     1       6.913  24.321  54.760  1.00  0.00     0.013 A 
HETATM   32  C   UNL     1       7.229  23.008  54.401  1.00  0.00     0.001 A 
HETATM   33  C   UNL     1       7.893  22.181  55.303  1.00  0.00     0.000 A 
HETATM   34  C   UNL     1       8.244  22.665  56.561  1.00  0.00     0.001 A 
HETATM   35  C   UNL     1       7.931  23.978  56.920  1.00  0.00     0.013 A 
ENDBRANCH  26  30
ENDBRANCH   2  22
TORSDOF 4
ENDMDL
MODEL 3
REMARK VINA RESULT:     -10.7      5.866     10.250
REMARK  4 active torsions:
REMARK  status: ('A' for Active; 'I' for Inactive)
REMARK    1  A    between atoms: C_5  and  N_6 
REMARK       I    between atoms: N_6  and  C_7 
REMARK    2  A    between atoms: C_7  and  C_8 
REMARK    3  A    between atoms: C_12  and  C_13 
REMARK    4  A    between atoms: N_24  and  C_25 
ROOT
HETATM    1  N   UNL     1       5.933  27.481  52.311  1.00  0.00    -0.348 N 
HETATM    2  C   UNL     1       5.576  28.628  51.655  1.00  0.00     0.257 C 
HETATM    3  O   UNL     1       6.183  29.687  51.785  1.00  0.00    -0.267 OA
HETATM    4  H   UNL     1       5.367  26.643  52.174  1.00  0.00     0.163 HD
ENDROOT
BRANCH   1   5
HETATM    5  C   UNL     1       7.164  27.361  53.063  1.00  0.00     0.122 C 
HETATM    6  C   UNL     1       7.060  27.965  54.480  1.00  0.00     0.039 C 
HETATM    7  C   UNL     1       6.435  27.034  55.567  1.00  0.00    -0.040 C 
HETATM    8  C   UNL     1       4.927  26.826  55.323  1.00  0.00     0.015 C 
HETATM    9  C   UNL     1       6.591  27.726  56.939  1.00  0.00     0.015 C 
HETATM   10  C   UNL     1       7.159  25.651  55.627  1.00  0.00     0.069 C 
HETATM   11  C   UNL     1       7.497  25.138  54.266  1.00  0.00     0.047 A 
HETATM   12  C   UNL     1       7.500  25.913  53.121  1.00  0.00     0.008 A 
HETATM   13  N   UNL     1       7.838  23.846  53.879  1.00  0.00    -0.238 N 
HETATM   14  C   UNL     1       7.827  25.032  52.088  1.00  0.00     0.150 A 
HETATM   15  N   UNL     1       8.000  23.788  52.523  1.00  0.00    -0.179 NA
BRANCH  13  16
HETATM   16  C   UNL     1       8.032  22.649  54.641  1.00  0.00     0.058 A 
HETATM   17  C   UNL     1       8.023  21.415  53.964  1.00  0.00     0.031 A 
HETATM   18  C   UNL     1       8.196  20.214  54.657  1.00  0.00     0.002 A 
HETATM   19  C   UNL     1       8.391  20.231  56.034  1.00  0.00     0.000 A 
HETATM   20  C   UNL     1       8.420  21.447  56.713  1.00  0.00     0.002 A 
HETATM   21  C   UNL     1       8.246  22.652  56.022  1.00  0.00     0.031 A 
ENDBRANCH  13  16
ENDBRANCH   1   5
BRANCH   2  22
HETATM   22  C   UNL     1       4.434  28.489  50.702  1.00  0.00     0.100 A 
HETATM   23  C   UNL     1       4.208  27.292  49.839  1.00  0.00     0.261 A 
HETATM   24  O   UNL     1       4.919  26.291  49.907  1.00  0.00    -0.267 OA
HETATM   25  N   UNL     1       3.168  27.365  48.942  1.00  0.00    -0.322 N 
HETATM   26  C   UNL     1       2.340  28.453  48.797  1.00  0.00     0.045 A 
HETATM   27  H   UNL     1       3.022  26.546  48.364  1.00  0.00     0.169 HD
HETATM   28  C   UNL     1       2.523  29.522  49.589  1.00  0.00     0.031 A 
HETATM   29  C   UNL     1       3.592  29.531  50.564  1.00  0.00     0.025 A 
BRANCH  26  30
HETATM   30  C   UNL     1       1.310  28.421  47.744  1.00  0.00    -0.009 A 
HETATM   31  C   UNL     1       0.596  29.585  47.419  1.00  0.00     0.013 A 
HETATM   32  C   UNL     1      -0.388  29.566  46.428  1.00  0.00     0.001 A 
HETATM   33  C   UNL     1      -0.670  28.383  45.749  1.00  0.00     0.000 A 
HETATM   34  C   UNL     1       0.033  27.220  46.058  1.00  0.00     0.001 A 
HETATM   35  C   UNL     1       1.019  27.239  47.047  1.00  0.00     0.013 A 
ENDBRANCH  26  30
ENDBRANCH   2  22
TORSDOF 4
ENDMDL
MODEL 4
REMARK VINA RESULT:     -10.4      1.639      9.741
REMARK  4 active torsions:
REMARK  status: ('A' for Active; 'I' for Inactive)
REMARK    1  A    between atoms: C_5  and  N_6 
REMARK       I    between atoms: N_6  and  C_7 
REMARK    2  A    between atoms: C_7  and  C_8 
REMARK    3  A    between atoms: C_12  and  C_13 
REMARK    4  A    between atoms: N_24  and  C_25 
ROOT
HETATM    1  N   UNL     1       5.455  28.661  56.767  1.00  0.00    -0.348 N 
HETATM    2  C   UNL     1       5.333  30.024  56.728  1.00  0.00     0.257 C 
HETATM    3  O   UNL     1       4.832  30.621  55.779  1.00  0.00    -0.267 OA
HETATM    4  H   UNL     1       5.906  28.234  57.577  1.00  0.00     0.163 HD
ENDROOT
BRANCH   1   5
HETATM    5  C   UNL     1       4.836  27.791  55.789  1.00  0.00     0.122 C 
HETATM    6  C   UNL     1       5.027  28.291  54.341  1.00  0.00     0.039 C 
HETATM    7  C   UNL     1       6.381  27.903  53.665  1.00  0.00    -0.040 C 
HETATM    8  C   UNL     1       7.560  28.666  54.301  1.00  0.00     0.015 C 
HETATM    9  C   UNL     1       6.311  28.314  52.178  1.00  0.00     0.015 C 
HETATM   10  C   UNL     1       6.643  26.365  53.740  1.00  0.00     0.069 C 
HETATM   11  C   UNL     1       6.242  25.794  55.059  1.00  0.00     0.047 A 
HETATM   12  C   UNL     1       5.428  26.440  55.972  1.00  0.00     0.008 A 
HETATM   13  N   UNL     1       6.597  24.574  55.628  1.00  0.00    -0.238 N 
HETATM   14  C   UNL     1       5.351  25.573  57.065  1.00  0.00     0.150 A 
HETATM   15  N   UNL     1       6.070  24.470  56.885  1.00  0.00    -0.179 NA
BRANCH  13  16
HETATM   16  C   UNL     1       7.379  23.486  55.124  1.00  0.00     0.058 A 
HETATM   17  C   UNL     1       7.309  23.189  53.750  1.00  0.00     0.031 A 
HETATM   18  C   UNL     1       8.041  22.132  53.205  1.00  0.00     0.002 A 
HETATM   19  C   UNL     1       8.862  21.363  54.023  1.00  0.00     0.000 A 
HETATM   20  C   UNL     1       8.955  21.658  55.381  1.00  0.00     0.002 A 
HETATM   21  C   UNL     1       8.221  22.716  55.931  1.00  0.00     0.031 A 
ENDBRANCH  13  16
ENDBRANCH   1   5
BRANCH   2  22
HETATM   22  C   UNL     1       5.783  30.741  57.958  1.00  0.00     0.100 A 
HETATM   23  C   UNL     1       7.059  30.448  58.676  1.00  0.00     0.261 A 
HETATM   24  O   UNL     1       7.875  29.631  58.254  1.00  0.00    -0.267 OA
HETATM   25  N   UNL     1       7.276  31.127  59.851  1.00  0.00    -0.322 N 
HETATM   26  C   UNL     1       6.406  32.044  60.393  1.00  0.00     0.045 A 
HETATM   27  H   UNL     1       8.147  30.923  60.328  1.00  0.00     0.169 HD
HETATM   28  C   UNL     1       5.269  32.331  59.738  1.00  0.00     0.031 A 
HETATM   29  C   UNL     1       4.960  31.664  58.491  1.00  0.00     0.025 A 
BRANCH  26  30
HETATM   30  C   UNL     1       6.735  32.644  61.698  1.00  0.00    -0.009 A 
HETATM   31  C   UNL     1       5.995  33.735  62.180  1.00  0.00     0.013 A 
HETATM   32  C   UNL     1       6.301  34.317  63.413  1.00  0.00     0.001 A 
HETATM   33  C   UNL     1       7.351  33.816  64.178  1.00  0.00     0.000 A 
HETATM   34  C   UNL     1       8.093  32.731  63.714  1.00  0.00     0.001 A 
HETATM   35  C   UNL     1       7.786  32.147  62.483  1.00  0.00     0.013 A 
ENDBRANCH  26  30
ENDBRANCH   2  22
TORSDOF 4
ENDMDL
MODEL 5
REMARK VINA RESULT:      -9.7      6.482      9.843
REMARK  4 active torsions:
REMARK  status: ('A' for Active; 'I' for Inactive)
REMARK    1  A    between atoms: C_5  and  N_6 
REMARK       I    between atoms: N_6  and  C_7 
REMARK    2  A    between atoms: C_7  and  C_8 
REMARK    3  A    between atoms: C_12  and  C_13 
REMARK    4  A    between atoms: N_24  and  C_25 
ROOT
HETATM    1  N   UNL     1       5.254  28.963  52.068  1.00  0.00    -0.348 N 
HETATM    2  C   UNL     1       5.256  28.402  53.318  1.00  0.00     0.257 C 
HETATM    3  O   UNL     1       4.739  28.943  54.291  1.00  0.00    -0.267 OA
HETATM    4  H   UNL     1       5.726  28.468  51.311  1.00  0.00     0.163 HD
ENDROOT
BRANCH   1   5
HETATM    5  C   UNL     1       4.480  30.141  51.741  1.00  0.00     0.122 C 
HETATM    6  C   UNL     1       5.288  31.181  50.935  1.00  0.00     0.039 C 
HETATM    7  C   UNL     1       5.359  30.935  49.394  1.00  0.00    -0.040 C 
HETATM    8  C   UNL     1       6.227  29.704  49.066  1.00  0.00     0.015 C 
HETATM    9  C   UNL     1       6.031  32.163  48.742  1.00  0.00     0.015 C 
HETATM   10  C   UNL     1       3.936  30.763  48.771  1.00  0.00     0.069 C 
HETATM   11  C   UNL     1       3.038  29.953  49.646  1.00  0.00     0.047 A 
HETATM   12  C   UNL     1       3.288  29.681  50.979  1.00  0.00     0.008 A 
HETATM   13  N   UNL     1       1.842  29.319  49.322  1.00  0.00    -0.238 N 
HETATM   14  C   UNL     1       2.227  28.870  51.388  1.00  0.00     0.150 A 
HETATM   15  N   UNL     1       1.374  28.620  50.400  1.00  0.00    -0.179 NA
BRANCH  13  16
HETATM   16  C   UNL     1       1.083  29.292  48.110  1.00  0.00     0.058 A 
HETATM   17  C   UNL     1       0.950  28.068  47.428  1.00  0.00     0.031 A 
HETATM   18  C   UNL     1       0.229  27.985  46.234  1.00  0.00     0.002 A 
HETATM   19  C   UNL     1      -0.377  29.121  45.710  1.00  0.00     0.000 A 
HETATM   20  C   UNL     1      -0.270  30.335  46.385  1.00  0.00     0.002 A 
HETATM   21  C   UNL     1       0.453  30.423  47.581  1.00  0.00     0.031 A 
ENDBRANCH  13  16
ENDBRANCH   1   5
BRANCH   2  22
HETATM   22  C   UNL     1       5.869  27.043  53.406  1.00  0.00     0.100 A 
HETATM   23  C   UNL     1       5.653  25.962  52.399  1.00  0.00     0.261 A 
HETATM   24  O   UNL     1       5.003  26.145  51.372  1.00  0.00    -0.267 OA
HETATM   25  N   UNL     1       6.207  24.736  52.681  1.00  0.00    -0.322 N 
HETATM   26  C   UNL     1       6.933  24.452  53.814  1.00  0.00     0.045 A 
HETATM   27  H   UNL     1       6.057  24.012  51.989  1.00  0.00     0.169 HD
HETATM   28  C   UNL     1       7.152  25.428  54.711  1.00  0.00     0.031 A 
HETATM   29  C   UNL     1       6.609  26.751  54.493  1.00  0.00     0.025 A 
BRANCH  26  30
HETATM   30  C   UNL     1       7.406  23.072  54.021  1.00  0.00    -0.009 A 
HETATM   31  C   UNL     1       7.828  22.298  52.928  1.00  0.00     0.013 A 
HETATM   32  C   UNL     1       8.272  20.986  53.110  1.00  0.00     0.001 A 
HETATM   33  C   UNL     1       8.299  20.431  54.387  1.00  0.00     0.000 A 
HETATM   34  C   UNL     1       7.887  21.188  55.482  1.00  0.00     0.001 A 
HETATM   35  C   UNL     1       7.445  22.501  55.302  1.00  0.00     0.013 A 
ENDBRANCH  26  30
ENDBRANCH   2  22
TORSDOF 4
ENDMDL
MODEL 6
REMARK VINA RESULT:      -9.5      8.495     12.646
REMARK  4 active torsions:
REMARK  status: ('A' for Active; 'I' for Inactive)
REMARK    1  A    between atoms: C_5  and  N_6 
REMARK       I    between atoms: N_6  and  C_7 
REMARK    2  A    between atoms: C_7  and  C_8 
REMARK    3  A    between atoms: C_12  and  C_13 
REMARK    4  A    between atoms: N_24  and  C_25 
ROOT
HETATM    1  N   UNL     1       4.183  29.501  48.646  1.00  0.00    -0.348 N 
HETATM    2  C   UNL     1       3.591  30.421  47.823  1.00  0.00     0.257 C 
HETATM    3  O   UNL     1       2.381  30.456  47.624  1.00  0.00    -0.267 OA
HETATM    4  H   UNL     1       5.198  29.515  48.745  1.00  0.00     0.163 HD
ENDROOT
BRANCH   1   5
HETATM    5  C   UNL     1       3.423  28.614  49.502  1.00  0.00     0.122 C 
HETATM    6  C   UNL     1       2.821  27.417  48.736  1.00  0.00     0.039 C 
HETATM    7  C   UNL     1       3.780  26.203  48.516  1.00  0.00    -0.040 C 
HETATM    8  C   UNL     1       4.895  26.549  47.510  1.00  0.00     0.015 C 
HETATM    9  C   UNL     1       2.957  25.043  47.916  1.00  0.00     0.015 C 
HETATM   10  C   UNL     1       4.410  25.717  49.861  1.00  0.00     0.069 C 
HETATM   11  C   UNL     1       4.791  26.858  50.744  1.00  0.00     0.047 A 
HETATM   12  C   UNL     1       4.341  28.155  50.578  1.00  0.00     0.008 A 
HETATM   13  N   UNL     1       5.645  26.866  51.843  1.00  0.00    -0.238 N 
HETATM   14  C   UNL     1       4.971  28.889  51.585  1.00  0.00     0.150 A 
HETATM   15  N   UNL     1       5.777  28.137  52.328  1.00  0.00    -0.179 NA
BRANCH  13  16
HETATM   16  C   UNL     1       6.357  25.810  52.496  1.00  0.00     0.058 A 
HETATM   17  C   UNL     1       5.928  25.401  53.773  1.00  0.00     0.031 A 
HETATM   18  C   UNL     1       6.592  24.383  54.462  1.00  0.00     0.002 A 
HETATM   19  C   UNL     1       7.686  23.752  53.882  1.00  0.00     0.000 A 
HETATM   20  C   UNL     1       8.110  24.134  52.611  1.00  0.00     0.002 A 
HETATM   21  C   UNL     1       7.448  25.155  51.917  1.00  0.00     0.031 A 
ENDBRANCH  13  16
ENDBRANCH   1   5
BRANCH   2  22
HETATM   22  C   UNL     1       4.514  31.439  47.236  1.00  0.00     0.100 A 
HETATM   23  C   UNL     1       5.347  32.377  48.046  1.00  0.00     0.261 A 
HETATM   24  O   UNL     1       5.384  32.327  49.273  1.00  0.00    -0.267 OA
HETATM   25  N   UNL     1       6.065  33.321  47.351  1.00  0.00    -0.322 N 
HETATM   26  C   UNL     1       6.064  33.449  45.982  1.00  0.00     0.045 A 
HETATM   27  H   UNL     1       6.629  33.950  47.911  1.00  0.00     0.169 HD
HETATM   28  C   UNL     1       5.337  32.590  45.247  1.00  0.00     0.031 A 
HETATM   29  C   UNL     1       4.552  31.562  45.895  1.00  0.00     0.025 A 
BRANCH  26  30
HETATM   30  C   UNL     1       6.826  34.554  45.375  1.00  0.00    -0.009 A 
HETATM   31  C   UNL     1       6.530  34.985  44.072  1.00  0.00     0.013 A 
HETATM   32  C   UNL     1       7.249  36.027  43.482  1.00  0.00     0.001 A 
HETATM   33  C   UNL     1       8.275  36.651  44.189  1.00  0.00     0.000 A 
HETATM   34  C   UNL     1       8.579  36.237  45.484  1.00  0.00     0.001 A 
HETATM   35  C   UNL     1       7.858  35.197  46.075  1.00  0.00     0.013 A 
ENDBRANCH  26  30
ENDBRANCH   2  22
TORSDOF 4
ENDMDL
MODEL 7
REMARK VINA RESULT:      -9.4      4.853     11.931
REMARK  4 active torsions:
REMARK  status: ('A' for Active; 'I' for Inactive)
REMARK    1  A    between atoms: C_5  and  N_6 
REMARK       I    between atoms: N_6  and  C_7 
REMARK    2  A    between atoms: C_7  and  C_8 
REMARK    3  A    between atoms: C_12  and  C_13 
REMARK    4  A    between atoms: N_24  and  C_25 
ROOT
HETATM    1  N   UNL     1       4.732  33.922  61.161  1.00  0.00    -0.348 N 
HETATM    2  C   UNL     1       4.022  34.462  62.200  1.00  0.00     0.257 C 
HETATM    3  O   UNL     1       3.098  33.873  62.752  1.00  0.00    -0.267 OA
HETATM    4  H   UNL     1       5.471  34.480  60.733  1.00  0.00     0.163 HD
ENDROOT
BRANCH   1   5
HETATM    5  C   UNL     1       4.588  32.542  60.749  1.00  0.00     0.122 C 
HETATM    6  C   UNL     1       3.710  32.384  59.488  1.00  0.00     0.039 C 
HETATM    7  C   UNL     1       4.442  32.599  58.125  1.00  0.00    -0.040 C 
HETATM    8  C   UNL     1       4.823  34.080  57.924  1.00  0.00     0.015 C 
HETATM    9  C   UNL     1       3.467  32.214  56.991  1.00  0.00     0.015 C 
HETATM   10  C   UNL     1       5.716  31.703  58.006  1.00  0.00     0.069 C 
HETATM   11  C   UNL     1       6.472  31.635  59.291  1.00  0.00     0.047 A 
HETATM   12  C   UNL     1       5.957  32.011  60.518  1.00  0.00     0.008 A 
HETATM   13  N   UNL     1       7.784  31.225  59.513  1.00  0.00    -0.238 N 
HETATM   14  C   UNL     1       7.005  31.825  61.423  1.00  0.00     0.150 A 
HETATM   15  N   UNL     1       8.111  31.387  60.830  1.00  0.00    -0.179 NA
BRANCH  13  16
HETATM   16  C   UNL     1       8.773  30.696  58.625  1.00  0.00     0.058 A 
HETATM   17  C   UNL     1       8.510  29.473  57.979  1.00  0.00     0.031 A 
HETATM   18  C   UNL     1       9.444  28.903  57.110  1.00  0.00     0.002 A 
HETATM   19  C   UNL     1      10.649  29.552  56.866  1.00  0.00     0.000 A 
HETATM   20  C   UNL     1      10.915  30.772  57.483  1.00  0.00     0.002 A 
HETATM   21  C   UNL     1       9.981  31.345  58.356  1.00  0.00     0.031 A 
ENDBRANCH  13  16
ENDBRANCH   1   5
BRANCH   2  22
HETATM   22  C   UNL     1       4.498  35.797  62.673  1.00  0.00     0.100 A 
HETATM   23  C   UNL     1       4.891  36.914  61.763  1.00  0.00     0.261 A 
HETATM   24  O   UNL     1       4.778  36.834  60.542  1.00  0.00    -0.267 OA
HETATM   25  N   UNL     1       5.405  38.042  62.357  1.00  0.00    -0.322 N 
HETATM   26  C   UNL     1       5.574  38.200  63.713  1.00  0.00     0.045 A 
HETATM   27  H   UNL     1       5.664  38.794  61.731  1.00  0.00     0.169 HD
HETATM   28  C   UNL     1       5.198  37.208  64.537  1.00  0.00     0.031 A 
HETATM   29  C   UNL     1       4.644  35.985  63.999  1.00  0.00     0.025 A 
BRANCH  26  30
HETATM   30  C   UNL     1       6.205  39.437  64.206  1.00  0.00    -0.009 A 
HETATM   31  C   UNL     1       5.864  39.949  65.468  1.00  0.00     0.013 A 
HETATM   32  C   UNL     1       6.449  41.124  65.944  1.00  0.00     0.001 A 
HETATM   33  C   UNL     1       7.383  41.803  65.164  1.00  0.00     0.000 A 
HETATM   34  C   UNL     1       7.734  41.305  63.911  1.00  0.00     0.001 A 
HETATM   35  C   UNL     1       7.151  40.128  63.435  1.00  0.00     0.013 A 
ENDBRANCH  26  30
ENDBRANCH   2  22
TORSDOF 4
ENDMDL
MODEL 8
REMARK VINA RESULT:      -9.4      2.454     10.252
REMARK  4 active torsions:
REMARK  status: ('A' for Active; 'I' for Inactive)
REMARK    1  A    between atoms: C_5  and  N_6 
REMARK       I    between atoms: N_6  and  C_7 
REMARK    2  A    between atoms: C_7  and  C_8 
REMARK    3  A    between atoms: C_12  and  C_13 
REMARK    4  A    between atoms: N_24  and  C_25 
ROOT
HETATM    1  N   UNL     1       7.059  31.154  59.278  1.00  0.00    -0.348 N 
HETATM    2  C   UNL     1       7.753  32.102  59.981  1.00  0.00     0.257 C 
HETATM    3  O   UNL     1       8.710  32.712  59.512  1.00  0.00    -0.267 OA
HETATM    4  H   UNL     1       6.290  30.669  59.741  1.00  0.00     0.163 HD
ENDROOT
BRANCH   1   5
HETATM    5  C   UNL     1       7.264  30.924  57.864  1.00  0.00     0.122 C 
HETATM    6  C   UNL     1       8.740  31.083  57.441  1.00  0.00     0.039 C 
HETATM    7  C   UNL     1       9.647  29.831  57.664  1.00  0.00    -0.040 C 
HETATM    8  C   UNL     1       9.890  29.580  59.165  1.00  0.00     0.015 C 
HETATM    9  C   UNL     1      11.019  30.108  57.011  1.00  0.00     0.015 C 
HETATM   10  C   UNL     1       9.036  28.553  57.004  1.00  0.00     0.069 C 
HETATM   11  C   UNL     1       7.556  28.483  57.187  1.00  0.00     0.047 A 
HETATM   12  C   UNL     1       6.768  29.553  57.570  1.00  0.00     0.008 A 
HETATM   13  N   UNL     1       6.708  27.389  57.041  1.00  0.00    -0.238 N 
HETATM   14  C   UNL     1       5.473  29.036  57.656  1.00  0.00     0.150 A 
HETATM   15  N   UNL     1       5.428  27.738  57.374  1.00  0.00    -0.179 NA
BRANCH  13  16
HETATM   16  C   UNL     1       6.961  26.044  56.623  1.00  0.00     0.058 A 
HETATM   17  C   UNL     1       7.867  25.268  57.370  1.00  0.00     0.031 A 
HETATM   18  C   UNL     1       8.160  23.953  57.002  1.00  0.00     0.002 A 
HETATM   19  C   UNL     1       7.545  23.391  55.888  1.00  0.00     0.000 A 
HETATM   20  C   UNL     1       6.632  24.142  55.151  1.00  0.00     0.002 A 
HETATM   21  C   UNL     1       6.337  25.461  55.516  1.00  0.00     0.031 A 
ENDBRANCH  13  16
ENDBRANCH   1   5
BRANCH   2  22
HETATM   22  C   UNL     1       7.220  32.404  61.344  1.00  0.00     0.100 A 
HETATM   23  C   UNL     1       5.791  32.731  61.627  1.00  0.00     0.261 A 
HETATM   24  O   UNL     1       4.926  32.702  60.754  1.00  0.00    -0.267 OA
HETATM   25  N   UNL     1       5.483  33.085  62.920  1.00  0.00    -0.322 N 
HETATM   26  C   UNL     1       6.395  33.153  63.946  1.00  0.00     0.045 A 
HETATM   27  H   UNL     1       4.510  33.301  63.101  1.00  0.00     0.169 HD
HETATM   28  C   UNL     1       7.678  32.835  63.702  1.00  0.00     0.031 A 
HETATM   29  C   UNL     1       8.090  32.448  62.370  1.00  0.00     0.025 A 
BRANCH  26  30
HETATM   30  C   UNL     1       5.938  33.618  65.268  1.00  0.00    -0.009 A 
HETATM   31  C   UNL     1       6.870  33.892  66.281  1.00  0.00     0.013 A 
HETATM   32  C   UNL     1       6.449  34.327  67.540  1.00  0.00     0.001 A 
HETATM   33  C   UNL     1       5.091  34.492  67.801  1.00  0.00     0.000 A 
HETATM   34  C   UNL     1       4.154  34.226  66.805  1.00  0.00     0.001 A 
HETATM   35  C   UNL     1       4.574  33.794  65.544  1.00  0.00     0.013 A 
ENDBRANCH  26  30
ENDBRANCH   2  22
TORSDOF 4
ENDMDL
MODEL 9
REMARK VINA RESULT:      -9.1      5.144      7.818
REMARK  4 active torsions:
REMARK  status: ('A' for Active; 'I' for Inactive)
REMARK    1  A    between atoms: C_5  and  N_6 
REMARK       I    between atoms: N_6  and  C_7 
REMARK    2  A    between atoms: C_7  and  C_8 
REMARK    3  A    between atoms: C_12  and  C_13 
REMARK    4  A    between atoms: N_24  and  C_25 
ROOT
HETATM    1  N   UNL     1       5.111  29.477  54.386  1.00  0.00    -0.348 N 
HETATM    2  C   UNL     1       4.312  29.156  53.320  1.00  0.00     0.257 C 
HETATM    3  O   UNL     1       3.362  28.385  53.409  1.00  0.00    -0.267 OA
HETATM    4  H   UNL     1       5.899  30.106  54.233  1.00  0.00     0.163 HD
ENDROOT
BRANCH   1   5
HETATM    5  C   UNL     1       4.794  29.091  55.744  1.00  0.00     0.122 C 
HETATM    6  C   UNL     1       5.319  27.684  56.103  1.00  0.00     0.039 C 
HETATM    7  C   UNL     1       6.814  27.614  56.550  1.00  0.00    -0.040 C 
HETATM    8  C   UNL     1       7.762  27.890  55.366  1.00  0.00     0.015 C 
HETATM    9  C   UNL     1       7.100  26.181  57.049  1.00  0.00     0.015 C 
HETATM   10  C   UNL     1       7.115  28.612  57.714  1.00  0.00     0.069 C 
HETATM   11  C   UNL     1       6.422  29.920  57.522  1.00  0.00     0.047 A 
HETATM   12  C   UNL     1       5.379  30.125  56.638  1.00  0.00     0.008 A 
HETATM   13  N   UNL     1       6.676  31.142  58.138  1.00  0.00    -0.238 N 
HETATM   14  C   UNL     1       5.069  31.482  56.754  1.00  0.00     0.150 A 
HETATM   15  N   UNL     1       5.857  32.107  57.623  1.00  0.00    -0.179 NA
BRANCH  13  16
HETATM   16  C   UNL     1       7.605  31.511  59.162  1.00  0.00     0.058 A 
HETATM   17  C   UNL     1       7.102  31.882  60.423  1.00  0.00     0.031 A 
HETATM   18  C   UNL     1       7.962  32.262  61.457  1.00  0.00     0.002 A 
HETATM   19  C   UNL     1       9.337  32.268  61.248  1.00  0.00     0.000 A 
HETATM   20  C   UNL     1       9.849  31.886  60.010  1.00  0.00     0.002 A 
HETATM   21  C   UNL     1       8.990  31.505  58.971  1.00  0.00     0.031 A 
ENDBRANCH  13  16
ENDBRANCH   1   5
BRANCH   2  22
HETATM   22  C   UNL     1       4.629  29.871  52.048  1.00  0.00     0.100 A 
HETATM   23  C   UNL     1       5.290  29.230  50.872  1.00  0.00     0.261 A 
HETATM   24  O   UNL     1       5.558  28.031  50.845  1.00  0.00    -0.267 OA
HETATM   25  N   UNL     1       5.604  30.053  49.816  1.00  0.00    -0.322 N 
HETATM   26  C   UNL     1       5.349  31.404  49.779  1.00  0.00     0.045 A 
HETATM   27  H   UNL     1       6.049  29.607  49.023  1.00  0.00     0.169 HD
HETATM   28  C   UNL     1       4.731  31.980  50.823  1.00  0.00     0.031 A 
HETATM   29  C   UNL     1       4.361  31.189  51.977  1.00  0.00     0.025 A 
BRANCH  26  30
HETATM   30  C   UNL     1       5.807  32.176  48.611  1.00  0.00    -0.009 A 
HETATM   31  C   UNL     1       6.899  33.051  48.726  1.00  0.00     0.013 A 
HETATM   32  C   UNL     1       7.338  33.795  47.628  1.00  0.00     0.001 A 
HETATM   33  C   UNL     1       6.690  33.673  46.401  1.00  0.00     0.000 A 
HETATM   34  C   UNL     1       5.606  32.807  46.270  1.00  0.00     0.001 A 
HETATM   35  C   UNL     1       5.168  32.061  47.367  1.00  0.00     0.013 A 
ENDBRANCH  26  30
ENDBRANCH   2  22
TORSDOF 4
ENDMDL
MODEL 10
REMARK VINA RESULT:      -9.0      2.878      5.138
REMARK  4 active torsions:
REMARK  status: ('A' for Active; 'I' for Inactive)
REMARK    1  A    between atoms: C_5  and  N_6 
REMARK       I    between atoms: N_6  and  C_7 
REMARK    2  A    between atoms: C_7  and  C_8 
REMARK    3  A    between atoms: C_12  and  C_13 
REMARK    4  A    between atoms: N_24  and  C_25 
ROOT
HETATM    1  N   UNL     1       5.184  33.015  59.889  1.00  0.00    -0.348 N 
HETATM    2  C   UNL     1       5.337  32.829  58.541  1.00  0.00     0.257 C 
HETATM    3  O   UNL     1       5.384  33.760  57.742  1.00  0.00    -0.267 OA
HETATM    4  H   UNL     1       5.127  32.193  60.491  1.00  0.00     0.163 HD
ENDROOT
BRANCH   1   5
HETATM    5  C   UNL     1       5.259  34.319  60.513  1.00  0.00     0.122 C 
HETATM    6  C   UNL     1       3.895  35.042  60.549  1.00  0.00     0.039 C 
HETATM    7  C   UNL     1       2.955  34.652  61.734  1.00  0.00    -0.040 C 
HETATM    8  C   UNL     1       2.420  33.216  61.571  1.00  0.00     0.015 C 
HETATM    9  C   UNL     1       1.739  35.605  61.716  1.00  0.00     0.015 C 
HETATM   10  C   UNL     1       3.675  34.796  63.113  1.00  0.00     0.069 C 
HETATM   11  C   UNL     1       5.090  34.324  63.057  1.00  0.00     0.047 A 
HETATM   12  C   UNL     1       5.794  34.115  61.885  1.00  0.00     0.008 A 
HETATM   13  N   UNL     1       5.943  33.992  64.105  1.00  0.00    -0.238 N 
HETATM   14  C   UNL     1       7.044  33.643  62.294  1.00  0.00     0.150 A 
HETATM   15  N   UNL     1       7.134  33.534  63.615  1.00  0.00    -0.179 NA
BRANCH  13  16
HETATM   16  C   UNL     1       5.768  34.055  65.524  1.00  0.00     0.058 A 
HETATM   17  C   UNL     1       4.461  33.997  66.043  1.00  0.00     0.031 A 
HETATM   18  C   UNL     1       4.230  34.066  67.419  1.00  0.00     0.002 A 
HETATM   19  C   UNL     1       5.302  34.182  68.297  1.00  0.00     0.000 A 
HETATM   20  C   UNL     1       6.602  34.220  67.798  1.00  0.00     0.002 A 
HETATM   21  C   UNL     1       6.837  34.154  66.419  1.00  0.00     0.031 A 
ENDBRANCH  13  16
ENDBRANCH   1   5
BRANCH   2  22
HETATM   22  C   UNL     1       5.519  31.411  58.109  1.00  0.00     0.100 A 
HETATM   23  C   UNL     1       4.406  30.423  57.995  1.00  0.00     0.261 A 
HETATM   24  O   UNL     1       3.232  30.735  58.183  1.00  0.00    -0.267 OA
HETATM   25  N   UNL     1       4.757  29.131  57.682  1.00  0.00    -0.322 N 
HETATM   26  C   UNL     1       6.047  28.704  57.470  1.00  0.00     0.045 A 
HETATM   27  H   UNL     1       3.993  28.470  57.604  1.00  0.00     0.169 HD
HETATM   28  C   UNL     1       7.050  29.595  57.546  1.00  0.00     0.031 A 
HETATM   29  C   UNL     1       6.772  30.978  57.867  1.00  0.00     0.025 A 
BRANCH  26  30
HETATM   30  C   UNL     1       6.284  27.273  57.213  1.00  0.00    -0.009 A 
HETATM   31  C   UNL     1       7.546  26.710  57.462  1.00  0.00     0.013 A 
HETATM   32  C   UNL     1       7.786  25.356  57.215  1.00  0.00     0.001 A 
HETATM   33  C   UNL     1       6.766  24.548  56.718  1.00  0.00     0.000 A 
HETATM   34  C   UNL     1       5.508  25.091  56.469  1.00  0.00     0.001 A 
HETATM   35  C   UNL     1       5.266  26.445  56.718  1.00  0.00     0.013 A 
ENDBRANCH  26  30
ENDBRANCH   2  22
TORSDOF 4
ENDMDL
