MODEL 1
REMARK VINA RESULT:      -9.5      0.000      0.000
REMARK  5 active torsions:
REMARK  status: ('A' for Active; 'I' for Inactive)
REMARK    1  A    between atoms: C_3  and  N_4 
REMARK       I    between atoms: N_4  and  C_5 
REMARK    2  A    between atoms: C_5  and  C_6 
REMARK    3  A    between atoms: C_14  and  C_15 
REMARK    4  A    between atoms: C_21  and  O_22 
REMARK    5  A    between atoms: C_24  and  O_25 
ROOT
HETATM    1  N   UNL     1       5.946  25.796  51.670  1.00  0.00    -0.322 N 
HETATM    2  C   UNL     1       5.463  25.058  52.730  1.00  0.00     0.257 C 
HETATM    3  O   UNL     1       4.310  24.767  53.006  1.00  0.00    -0.267 OA
HETATM    4  H   UNL     1       6.953  25.745  51.563  1.00  0.00     0.169 HD
ENDROOT
BRANCH   2   5
HETATM    5  C   UNL     1       6.523  24.513  53.624  1.00  0.00     0.046 A 
HETATM    6  C   UNL     1       6.816  25.066  54.893  1.00  0.00     0.008 A 
HETATM    7  C   UNL     1       7.882  24.467  55.588  1.00  0.00     0.068 A 
HETATM    8  C   UNL     1       6.115  26.134  55.518  1.00  0.00     0.015 A 
HETATM    9  C   UNL     1       8.251  24.978  56.825  1.00  0.00     0.032 A 
HETATM   10  N   UNL     1       8.558  23.404  55.120  1.00  0.00    -0.252 NA
HETATM   11  C   UNL     1       7.582  26.053  57.414  1.00  0.00     0.002 A 
HETATM   12  C   UNL     1       6.502  26.627  56.763  1.00  0.00     0.001 A 
HETATM   13  C   UNL     1       8.215  22.840  53.937  1.00  0.00     0.040 A 
HETATM   14  C   UNL     1       7.204  23.384  53.163  1.00  0.00     0.045 A 
BRANCH  13  15
HETATM   15  C   UNL     1       8.931  21.581  53.514  1.00  0.00     0.038 A 
HETATM   16  C   UNL     1       8.782  20.299  54.299  1.00  0.00     0.011 A 
HETATM   17  C   UNL     1       8.138  20.422  52.951  1.00  0.00     0.011 A 
ENDBRANCH  13  15
ENDBRANCH   2   5
BRANCH   1  18
HETATM   18  C   UNL     1       5.316  26.693  50.769  1.00  0.00     0.043 A 
HETATM   19  C   UNL     1       5.114  28.075  50.909  1.00  0.00    -0.032 A 
HETATM   20  C   UNL     1       5.440  28.885  52.131  1.00  0.00     0.050 C 
HETATM   21  C   UNL     1       4.549  28.798  49.829  1.00  0.00     0.048 A 
HETATM   22  C   UNL     1       4.194  28.184  48.625  1.00  0.00     0.102 A 
HETATM   23  C   UNL     1       4.371  26.805  48.493  1.00  0.00     0.103 A 
HETATM   24  C   UNL     1       4.909  26.078  49.562  1.00  0.00     0.069 A 
BRANCH  22  25
HETATM   25  O   UNL     1       3.667  28.843  47.545  1.00  0.00    -0.353 OA
HETATM   26  C   UNL     1       2.335  29.323  47.669  1.00  0.00     0.210 C 
ENDBRANCH  22  25
BRANCH  23  27
HETATM   27  O   UNL     1       3.983  26.248  47.300  1.00  0.00    -0.353 OA
HETATM   28  C   UNL     1       2.942  25.282  47.348  1.00  0.00     0.210 C 
ENDBRANCH  23  27
ENDBRANCH   1  18
TORSDOF 5
ENDMDL
MODEL 2
REMARK VINA RESULT:      -9.1      4.708      7.268
REMARK  5 active torsions:
REMARK  status: ('A' for Active; 'I' for Inactive)
REMARK    1  A    between atoms: C_3  and  N_4 
REMARK       I    between atoms: N_4  and  C_5 
REMARK    2  A    between atoms: C_5  and  C_6 
REMARK    3  A    between atoms: C_14  and  C_15 
REMARK    4  A    between atoms: C_21  and  O_22 
REMARK    5  A    between atoms: C_24  and  O_25 
ROOT
HETATM    1  N   UNL     1       7.021  26.944  56.641  1.00  0.00    -0.322 N 
HETATM    2  C   UNL     1       7.745  25.842  57.046  1.00  0.00     0.257 C 
HETATM    3  O   UNL     1       8.352  25.660  58.090  1.00  0.00    -0.267 OA
HETATM    4  H   UNL     1       6.461  26.781  55.811  1.00  0.00     0.169 HD
ENDROOT
BRANCH   2   5
HETATM    5  C   UNL     1       7.727  24.713  56.075  1.00  0.00     0.046 A 
HETATM    6  C   UNL     1       7.627  24.904  54.677  1.00  0.00     0.008 A 
HETATM    7  C   UNL     1       7.569  23.732  53.903  1.00  0.00     0.068 A 
HETATM    8  C   UNL     1       7.610  26.159  54.008  1.00  0.00     0.015 A 
HETATM    9  C   UNL     1       7.434  23.840  52.525  1.00  0.00     0.032 A 
HETATM   10  N   UNL     1       7.656  22.500  54.431  1.00  0.00    -0.252 NA
HETATM   11  C   UNL     1       7.379  25.077  51.880  1.00  0.00     0.002 A 
HETATM   12  C   UNL     1       7.478  26.242  52.623  1.00  0.00     0.001 A 
HETATM   13  C   UNL     1       7.828  22.336  55.765  1.00  0.00     0.040 A 
HETATM   14  C   UNL     1       7.857  23.430  56.612  1.00  0.00     0.045 A 
BRANCH  13  15
HETATM   15  C   UNL     1       8.034  20.935  56.290  1.00  0.00     0.038 A 
HETATM   16  C   UNL     1       8.360  19.794  55.356  1.00  0.00     0.011 A 
HETATM   17  C   UNL     1       9.419  20.326  56.274  1.00  0.00     0.011 A 
ENDBRANCH  13  15
ENDBRANCH   2   5
BRANCH   1  18
HETATM   18  C   UNL     1       6.992  28.286  57.102  1.00  0.00     0.043 A 
HETATM   19  C   UNL     1       5.897  29.161  57.175  1.00  0.00    -0.032 A 
HETATM   20  C   UNL     1       4.515  28.875  56.662  1.00  0.00     0.050 C 
HETATM   21  C   UNL     1       6.077  30.435  57.771  1.00  0.00     0.048 A 
HETATM   22  C   UNL     1       7.305  30.846  58.295  1.00  0.00     0.102 A 
HETATM   23  C   UNL     1       8.402  29.986  58.200  1.00  0.00     0.103 A 
HETATM   24  C   UNL     1       8.240  28.734  57.595  1.00  0.00     0.069 A 
BRANCH  22  25
HETATM   25  O   UNL     1       7.523  32.057  58.901  1.00  0.00    -0.353 OA
HETATM   26  C   UNL     1       6.796  32.323  60.092  1.00  0.00     0.210 C 
ENDBRANCH  22  25
BRANCH  23  27
HETATM   27  O   UNL     1       9.590  30.449  58.708  1.00  0.00    -0.353 OA
HETATM   28  C   UNL     1      10.612  30.765  57.772  1.00  0.00     0.210 C 
ENDBRANCH  23  27
ENDBRANCH   1  18
TORSDOF 5
ENDMDL
MODEL 3
REMARK VINA RESULT:      -9.0      0.931      3.450
REMARK  5 active torsions:
REMARK  status: ('A' for Active; 'I' for Inactive)
REMARK    1  A    between atoms: C_3  and  N_4 
REMARK       I    between atoms: N_4  and  C_5 
REMARK    2  A    between atoms: C_5  and  C_6 
REMARK    3  A    between atoms: C_14  and  C_15 
REMARK    4  A    between atoms: C_21  and  O_22 
REMARK    5  A    between atoms: C_24  and  O_25 
ROOT
HETATM    1  N   UNL     1       5.938  26.139  52.107  1.00  0.00    -0.322 N 
HETATM    2  C   UNL     1       5.488  25.307  53.110  1.00  0.00     0.257 C 
HETATM    3  O   UNL     1       4.393  24.784  53.245  1.00  0.00    -0.267 OA
HETATM    4  H   UNL     1       6.940  26.295  52.125  1.00  0.00     0.169 HD
ENDROOT
BRANCH   2   5
HETATM    5  C   UNL     1       6.518  24.978  54.134  1.00  0.00     0.046 A 
HETATM    6  C   UNL     1       7.345  23.833  54.053  1.00  0.00     0.008 A 
HETATM    7  C   UNL     1       8.228  23.640  55.129  1.00  0.00     0.068 A 
HETATM    8  C   UNL     1       7.372  22.901  52.978  1.00  0.00     0.015 A 
HETATM    9  C   UNL     1       9.047  22.518  55.136  1.00  0.00     0.032 A 
HETATM   10  N   UNL     1       8.335  24.502  56.154  1.00  0.00    -0.252 NA
HETATM   11  C   UNL     1       9.039  21.588  54.095  1.00  0.00     0.002 A 
HETATM   12  C   UNL     1       8.206  21.785  53.006  1.00  0.00     0.001 A 
HETATM   13  C   UNL     1       7.590  25.633  56.179  1.00  0.00     0.040 A 
HETATM   14  C   UNL     1       6.664  25.889  55.183  1.00  0.00     0.045 A 
BRANCH  13  15
HETATM   15  C   UNL     1       7.832  26.621  57.294  1.00  0.00     0.038 A 
HETATM   16  C   UNL     1       8.472  27.962  57.021  1.00  0.00     0.011 A 
HETATM   17  C   UNL     1       7.013  27.892  57.359  1.00  0.00     0.011 A 
ENDBRANCH  13  15
ENDBRANCH   2   5
BRANCH   1  18
HETATM   18  C   UNL     1       5.255  26.899  51.122  1.00  0.00     0.043 A 
HETATM   19  C   UNL     1       4.875  28.250  51.169  1.00  0.00    -0.032 A 
HETATM   20  C   UNL     1       5.027  29.159  52.355  1.00  0.00     0.050 C 
HETATM   21  C   UNL     1       4.289  28.837  50.020  1.00  0.00     0.048 A 
HETATM   22  C   UNL     1       4.084  28.120  48.839  1.00  0.00     0.102 A 
HETATM   23  C   UNL     1       4.437  26.769  48.799  1.00  0.00     0.103 A 
HETATM   24  C   UNL     1       4.998  26.174  49.935  1.00  0.00     0.069 A 
BRANCH  22  25
HETATM   25  O   UNL     1       3.542  28.648  47.695  1.00  0.00    -0.353 OA
HETATM   26  C   UNL     1       4.192  29.783  47.138  1.00  0.00     0.210 C 
ENDBRANCH  22  25
BRANCH  23  27
HETATM   27  O   UNL     1       4.191  26.105  47.623  1.00  0.00    -0.353 OA
HETATM   28  C   UNL     1       3.117  25.175  47.621  1.00  0.00     0.210 C 
ENDBRANCH  23  27
ENDBRANCH   1  18
TORSDOF 5
ENDMDL
MODEL 4
REMARK VINA RESULT:      -9.0      3.924      7.850
REMARK  5 active torsions:
REMARK  status: ('A' for Active; 'I' for Inactive)
REMARK    1  A    between atoms: C_3  and  N_4 
REMARK       I    between atoms: N_4  and  C_5 
REMARK    2  A    between atoms: C_5  and  C_6 
REMARK    3  A    between atoms: C_14  and  C_15 
REMARK    4  A    between atoms: C_21  and  O_22 
REMARK    5  A    between atoms: C_24  and  O_25 
ROOT
HETATM    1  N   UNL     1       7.233  26.402  55.160  1.00  0.00    -0.322 N 
HETATM    2  C   UNL     1       7.602  27.698  54.868  1.00  0.00     0.257 C 
HETATM    3  O   UNL     1       8.081  28.150  53.840  1.00  0.00    -0.267 OA
HETATM    4  H   UNL     1       6.694  26.314  56.015  1.00  0.00     0.169 HD
ENDROOT
BRANCH   2   5
HETATM    5  C   UNL     1       7.325  28.670  55.962  1.00  0.00     0.046 A 
HETATM    6  C   UNL     1       8.347  29.376  56.640  1.00  0.00     0.008 A 
HETATM    7  C   UNL     1       7.919  30.216  57.683  1.00  0.00     0.068 A 
HETATM    8  C   UNL     1       9.735  29.325  56.336  1.00  0.00     0.015 A 
HETATM    9  C   UNL     1       8.869  30.913  58.418  1.00  0.00     0.032 A 
HETATM   10  N   UNL     1       6.626  30.393  57.999  1.00  0.00    -0.252 NA
HETATM   11  C   UNL     1      10.234  30.828  58.137  1.00  0.00     0.002 A 
HETATM   12  C   UNL     1      10.669  30.038  57.084  1.00  0.00     0.001 A 
HETATM   13  C   UNL     1       5.655  29.768  57.290  1.00  0.00     0.040 A 
HETATM   14  C   UNL     1       5.981  28.891  56.270  1.00  0.00     0.045 A 
BRANCH  13  15
HETATM   15  C   UNL     1       4.216  30.092  57.613  1.00  0.00     0.038 A 
HETATM   16  C   UNL     1       3.814  31.472  58.078  1.00  0.00     0.011 A 
HETATM   17  C   UNL     1       3.434  31.013  56.703  1.00  0.00     0.011 A 
ENDBRANCH  13  15
ENDBRANCH   2   5
BRANCH   1  18
HETATM   18  C   UNL     1       7.551  25.160  54.551  1.00  0.00     0.043 A 
HETATM   19  C   UNL     1       7.407  24.784  53.206  1.00  0.00    -0.032 A 
HETATM   20  C   UNL     1       6.765  25.614  52.132  1.00  0.00     0.050 C 
HETATM   21  C   UNL     1       7.891  23.518  52.794  1.00  0.00     0.048 A 
HETATM   22  C   UNL     1       8.514  22.633  53.678  1.00  0.00     0.102 A 
HETATM   23  C   UNL     1       8.635  22.995  55.022  1.00  0.00     0.103 A 
HETATM   24  C   UNL     1       8.142  24.236  55.444  1.00  0.00     0.069 A 
BRANCH  22  25
HETATM   25  O   UNL     1       9.018  21.408  53.323  1.00  0.00    -0.353 OA
HETATM   26  C   UNL     1       8.089  20.436  52.863  1.00  0.00     0.210 C 
ENDBRANCH  22  25
BRANCH  23  27
HETATM   27  O   UNL     1       9.232  22.080  55.852  1.00  0.00    -0.353 OA
HETATM   28  C   UNL     1       8.374  21.297  56.671  1.00  0.00     0.210 C 
ENDBRANCH  23  27
ENDBRANCH   1  18
TORSDOF 5
ENDMDL
MODEL 5
REMARK VINA RESULT:      -8.8      1.647      2.788
REMARK  5 active torsions:
REMARK  status: ('A' for Active; 'I' for Inactive)
REMARK    1  A    between atoms: C_3  and  N_4 
REMARK       I    between atoms: N_4  and  C_5 
REMARK    2  A    between atoms: C_5  and  C_6 
REMARK    3  A    between atoms: C_14  and  C_15 
REMARK    4  A    between atoms: C_21  and  O_22 
REMARK    5  A    between atoms: C_24  and  O_25 
ROOT
HETATM    1  N   UNL     1       5.950  26.388  52.316  1.00  0.00    -0.322 N 
HETATM    2  C   UNL     1       5.515  25.292  53.032  1.00  0.00     0.257 C 
HETATM    3  O   UNL     1       4.408  24.779  53.059  1.00  0.00    -0.267 OA
HETATM    4  H   UNL     1       6.957  26.507  52.324  1.00  0.00     0.169 HD
ENDROOT
BRANCH   2   5
HETATM    5  C   UNL     1       6.579  24.634  53.840  1.00  0.00     0.046 A 
HETATM    6  C   UNL     1       6.941  25.073  55.136  1.00  0.00     0.008 A 
HETATM    7  C   UNL     1       8.001  24.376  55.742  1.00  0.00     0.068 A 
HETATM    8  C   UNL     1       6.313  26.119  55.866  1.00  0.00     0.015 A 
HETATM    9  C   UNL     1       8.436  24.773  56.999  1.00  0.00     0.032 A 
HETATM   10  N   UNL     1       8.609  23.323  55.170  1.00  0.00    -0.252 NA
HETATM   11  C   UNL     1       7.839  25.827  57.693  1.00  0.00     0.002 A 
HETATM   12  C   UNL     1       6.765  26.497  57.128  1.00  0.00     0.001 A 
HETATM   13  C   UNL     1       8.199  22.868  53.961  1.00  0.00     0.040 A 
HETATM   14  C   UNL     1       7.189  23.515  53.270  1.00  0.00     0.045 A 
BRANCH  13  15
HETATM   15  C   UNL     1       8.841  21.615  53.417  1.00  0.00     0.038 A 
HETATM   16  C   UNL     1       8.801  20.320  54.193  1.00  0.00     0.011 A 
HETATM   17  C   UNL     1       7.968  20.467  52.956  1.00  0.00     0.011 A 
ENDBRANCH  13  15
ENDBRANCH   2   5
BRANCH   1  18
HETATM   18  C   UNL     1       5.252  27.436  51.661  1.00  0.00     0.043 A 
HETATM   19  C   UNL     1       4.632  27.420  50.402  1.00  0.00    -0.032 A 
HETATM   20  C   UNL     1       4.681  26.285  49.420  1.00  0.00     0.050 C 
HETATM   21  C   UNL     1       3.896  28.557  49.986  1.00  0.00     0.048 A 
HETATM   22  C   UNL     1       3.758  29.691  50.790  1.00  0.00     0.102 A 
HETATM   23  C   UNL     1       4.396  29.719  52.033  1.00  0.00     0.103 A 
HETATM   24  C   UNL     1       5.142  28.609  52.445  1.00  0.00     0.069 A 
BRANCH  22  25
HETATM   25  O   UNL     1       3.038  30.806  50.443  1.00  0.00    -0.353 OA
HETATM   26  C   UNL     1       1.631  30.652  50.317  1.00  0.00     0.210 C 
ENDBRANCH  22  25
BRANCH  23  27
HETATM   27  O   UNL     1       4.249  30.866  52.772  1.00  0.00    -0.353 OA
HETATM   28  C   UNL     1       3.508  30.764  53.981  1.00  0.00     0.210 C 
ENDBRANCH  23  27
ENDBRANCH   1  18
TORSDOF 5
ENDMDL
MODEL 6
REMARK VINA RESULT:      -8.7      4.141      7.662
REMARK  5 active torsions:
REMARK  status: ('A' for Active; 'I' for Inactive)
REMARK    1  A    between atoms: C_3  and  N_4 
REMARK       I    between atoms: N_4  and  C_5 
REMARK    2  A    between atoms: C_5  and  C_6 
REMARK    3  A    between atoms: C_14  and  C_15 
REMARK    4  A    between atoms: C_21  and  O_22 
REMARK    5  A    between atoms: C_24  and  O_25 
ROOT
HETATM    1  N   UNL     1       6.806  27.592  56.323  1.00  0.00    -0.322 N 
HETATM    2  C   UNL     1       6.970  26.268  56.672  1.00  0.00     0.257 C 
HETATM    3  O   UNL     1       7.173  25.780  57.772  1.00  0.00    -0.267 OA
HETATM    4  H   UNL     1       6.469  27.726  55.376  1.00  0.00     0.169 HD
ENDROOT
BRANCH   2   5
HETATM    5  C   UNL     1       6.827  25.318  55.533  1.00  0.00     0.046 A 
HETATM    6  C   UNL     1       7.372  24.013  55.549  1.00  0.00     0.008 A 
HETATM    7  C   UNL     1       7.194  23.262  54.373  1.00  0.00     0.068 A 
HETATM    8  C   UNL     1       8.045  23.405  56.645  1.00  0.00     0.015 A 
HETATM    9  C   UNL     1       7.734  21.984  54.302  1.00  0.00     0.032 A 
HETATM   10  N   UNL     1       6.507  23.715  53.311  1.00  0.00    -0.252 NA
HETATM   11  C   UNL     1       8.426  21.410  55.370  1.00  0.00     0.002 A 
HETATM   12  C   UNL     1       8.574  22.120  56.551  1.00  0.00     0.001 A 
HETATM   13  C   UNL     1       5.926  24.938  53.341  1.00  0.00     0.040 A 
HETATM   14  C   UNL     1       6.080  25.765  54.441  1.00  0.00     0.045 A 
BRANCH  13  15
HETATM   15  C   UNL     1       5.072  25.350  52.167  1.00  0.00     0.038 A 
HETATM   16  C   UNL     1       4.838  26.808  51.847  1.00  0.00     0.011 A 
HETATM   17  C   UNL     1       5.720  25.985  50.956  1.00  0.00     0.011 A 
ENDBRANCH  13  15
ENDBRANCH   2   5
BRANCH   1  18
HETATM   18  C   UNL     1       7.117  28.800  56.999  1.00  0.00     0.043 A 
HETATM   19  C   UNL     1       6.238  29.741  57.557  1.00  0.00    -0.032 A 
HETATM   20  C   UNL     1       4.741  29.708  57.450  1.00  0.00     0.050 C 
HETATM   21  C   UNL     1       6.775  30.833  58.284  1.00  0.00     0.048 A 
HETATM   22  C   UNL     1       8.149  31.001  58.472  1.00  0.00     0.102 A 
HETATM   23  C   UNL     1       9.026  30.080  57.895  1.00  0.00     0.103 A 
HETATM   24  C   UNL     1       8.508  29.008  57.158  1.00  0.00     0.069 A 
BRANCH  22  25
HETATM   25  O   UNL     1       8.714  32.027  59.185  1.00  0.00    -0.353 OA
HETATM   26  C   UNL     1       8.014  32.475  60.338  1.00  0.00     0.210 C 
ENDBRANCH  22  25
BRANCH  23  27
HETATM   27  O   UNL     1      10.366  30.305  58.089  1.00  0.00    -0.353 OA
HETATM   28  C   UNL     1      11.258  29.745  57.135  1.00  0.00     0.210 C 
ENDBRANCH  23  27
ENDBRANCH   1  18
TORSDOF 5
ENDMDL
MODEL 7
REMARK VINA RESULT:      -8.6      4.499      8.242
REMARK  5 active torsions:
REMARK  status: ('A' for Active; 'I' for Inactive)
REMARK    1  A    between atoms: C_3  and  N_4 
REMARK       I    between atoms: N_4  and  C_5 
REMARK    2  A    between atoms: C_5  and  C_6 
REMARK    3  A    between atoms: C_14  and  C_15 
REMARK    4  A    between atoms: C_21  and  O_22 
REMARK    5  A    between atoms: C_24  and  O_25 
ROOT
HETATM    1  N   UNL     1       7.798  28.593  56.101  1.00  0.00    -0.322 N 
HETATM    2  C   UNL     1       7.230  27.340  56.198  1.00  0.00     0.257 C 
HETATM    3  O   UNL     1       6.751  26.784  57.174  1.00  0.00    -0.267 OA
HETATM    4  H   UNL     1       7.957  28.895  55.146  1.00  0.00     0.169 HD
ENDROOT
BRANCH   2   5
HETATM    5  C   UNL     1       7.162  26.601  54.906  1.00  0.00     0.046 A 
HETATM    6  C   UNL     1       7.611  25.267  54.760  1.00  0.00     0.008 A 
HETATM    7  C   UNL     1       7.527  24.734  53.461  1.00  0.00     0.068 A 
HETATM    8  C   UNL     1       8.101  24.435  55.804  1.00  0.00     0.015 A 
HETATM    9  C   UNL     1       7.982  23.442  53.234  1.00  0.00     0.032 A 
HETATM   10  N   UNL     1       7.008  25.410  52.423  1.00  0.00    -0.252 NA
HETATM   11  C   UNL     1       8.498  22.645  54.257  1.00  0.00     0.002 A 
HETATM   12  C   UNL     1       8.548  23.140  55.551  1.00  0.00     0.001 A 
HETATM   13  C   UNL     1       6.513  26.660  52.597  1.00  0.00     0.040 A 
HETATM   14  C   UNL     1       6.588  27.282  53.831  1.00  0.00     0.045 A 
BRANCH  13  15
HETATM   15  C   UNL     1       5.838  27.328  51.423  1.00  0.00     0.038 A 
HETATM   16  C   UNL     1       4.986  26.536  50.460  1.00  0.00     0.011 A 
HETATM   17  C   UNL     1       4.333  27.488  51.417  1.00  0.00     0.011 A 
ENDBRANCH  13  15
ENDBRANCH   2   5
BRANCH   1  18
HETATM   18  C   UNL     1       8.296  29.491  57.080  1.00  0.00     0.043 A 
HETATM   19  C   UNL     1       9.626  29.866  57.326  1.00  0.00    -0.032 A 
HETATM   20  C   UNL     1      10.835  29.288  56.649  1.00  0.00     0.050 C 
HETATM   21  C   UNL     1       9.887  30.867  58.294  1.00  0.00     0.048 A 
HETATM   22  C   UNL     1       8.865  31.500  59.007  1.00  0.00     0.102 A 
HETATM   23  C   UNL     1       7.543  31.110  58.782  1.00  0.00     0.103 A 
HETATM   24  C   UNL     1       7.276  30.108  57.842  1.00  0.00     0.069 A 
BRANCH  22  25
HETATM   25  O   UNL     1       9.066  32.489  59.936  1.00  0.00    -0.353 OA
HETATM   26  C   UNL     1       9.592  32.094  61.196  1.00  0.00     0.210 C 
ENDBRANCH  22  25
BRANCH  23  27
HETATM   27  O   UNL     1       6.581  31.746  59.526  1.00  0.00    -0.353 OA
HETATM   28  C   UNL     1       5.325  31.969  58.899  1.00  0.00     0.210 C 
ENDBRANCH  23  27
ENDBRANCH   1  18
TORSDOF 5
ENDMDL
MODEL 8
REMARK VINA RESULT:      -8.6      4.507      7.839
REMARK  5 active torsions:
REMARK  status: ('A' for Active; 'I' for Inactive)
REMARK    1  A    between atoms: C_3  and  N_4 
REMARK       I    between atoms: N_4  and  C_5 
REMARK    2  A    between atoms: C_5  and  C_6 
REMARK    3  A    between atoms: C_14  and  C_15 
REMARK    4  A    between atoms: C_21  and  O_22 
REMARK    5  A    between atoms: C_24  and  O_25 
ROOT
HETATM    1  N   UNL     1       7.967  28.345  56.191  1.00  0.00    -0.322 N 
HETATM    2  C   UNL     1       7.067  27.306  56.311  1.00  0.00     0.257 C 
HETATM    3  O   UNL     1       6.195  27.135  57.147  1.00  0.00    -0.267 OA
HETATM    4  H   UNL     1       8.469  28.349  55.310  1.00  0.00     0.169 HD
ENDROOT
BRANCH   2   5
HETATM    5  C   UNL     1       7.166  26.289  55.227  1.00  0.00     0.046 A 
HETATM    6  C   UNL     1       6.686  26.515  53.916  1.00  0.00     0.008 A 
HETATM    7  C   UNL     1       6.807  25.432  53.026  1.00  0.00     0.068 A 
HETATM    8  C   UNL     1       6.131  27.731  53.431  1.00  0.00     0.015 A 
HETATM    9  C   UNL     1       6.325  25.568  51.731  1.00  0.00     0.032 A 
HETATM   10  N   UNL     1       7.387  24.268  53.363  1.00  0.00    -0.252 NA
HETATM   11  C   UNL     1       5.746  26.754  51.274  1.00  0.00     0.002 A 
HETATM   12  C   UNL     1       5.658  27.844  52.125  1.00  0.00     0.001 A 
HETATM   13  C   UNL     1       7.909  24.095  54.601  1.00  0.00     0.040 A 
HETATM   14  C   UNL     1       7.802  25.090  55.557  1.00  0.00     0.045 A 
BRANCH  13  15
HETATM   15  C   UNL     1       8.649  22.811  54.888  1.00  0.00     0.038 A 
HETATM   16  C   UNL     1       8.565  22.151  56.244  1.00  0.00     0.011 A 
HETATM   17  C   UNL     1       7.873  21.525  55.071  1.00  0.00     0.011 A 
ENDBRANCH  13  15
ENDBRANCH   2   5
BRANCH   1  18
HETATM   18  C   UNL     1       8.397  29.342  57.104  1.00  0.00     0.043 A 
HETATM   19  C   UNL     1       9.699  29.811  57.337  1.00  0.00    -0.032 A 
HETATM   20  C   UNL     1      10.950  29.254  56.721  1.00  0.00     0.050 C 
HETATM   21  C   UNL     1       9.887  30.897  58.229  1.00  0.00     0.048 A 
HETATM   22  C   UNL     1       8.819  31.522  58.878  1.00  0.00     0.102 A 
HETATM   23  C   UNL     1       7.525  31.040  58.667  1.00  0.00     0.103 A 
HETATM   24  C   UNL     1       7.331  29.955  57.804  1.00  0.00     0.069 A 
BRANCH  22  25
HETATM   25  O   UNL     1       8.948  32.588  59.731  1.00  0.00    -0.353 OA
HETATM   26  C   UNL     1       9.404  32.310  61.048  1.00  0.00     0.210 C 
ENDBRANCH  22  25
BRANCH  23  27
HETATM   27  O   UNL     1       6.516  31.673  59.349  1.00  0.00    -0.353 OA
HETATM   28  C   UNL     1       5.593  32.428  58.576  1.00  0.00     0.210 C 
ENDBRANCH  23  27
ENDBRANCH   1  18
TORSDOF 5
ENDMDL
MODEL 9
REMARK VINA RESULT:      -8.5      7.707     11.389
REMARK  5 active torsions:
REMARK  status: ('A' for Active; 'I' for Inactive)
REMARK    1  A    between atoms: C_3  and  N_4 
REMARK       I    between atoms: N_4  and  C_5 
REMARK    2  A    between atoms: C_5  and  C_6 
REMARK    3  A    between atoms: C_14  and  C_15 
REMARK    4  A    between atoms: C_21  and  O_22 
REMARK    5  A    between atoms: C_24  and  O_25 
ROOT
HETATM    1  N   UNL     1       6.777  31.492  60.476  1.00  0.00    -0.322 N 
HETATM    2  C   UNL     1       6.567  31.792  59.147  1.00  0.00     0.257 C 
HETATM    3  O   UNL     1       6.148  32.824  58.647  1.00  0.00    -0.267 OA
HETATM    4  H   UNL     1       7.301  30.635  60.622  1.00  0.00     0.169 HD
ENDROOT
BRANCH   2   5
HETATM    5  C   UNL     1       6.959  30.704  58.208  1.00  0.00     0.046 A 
HETATM    6  C   UNL     1       8.302  30.448  57.847  1.00  0.00     0.008 A 
HETATM    7  C   UNL     1       8.497  29.420  56.908  1.00  0.00     0.068 A 
HETATM    8  C   UNL     1       9.446  31.115  58.368  1.00  0.00     0.015 A 
HETATM    9  C   UNL     1       9.787  29.135  56.479  1.00  0.00     0.032 A 
HETATM   10  N   UNL     1       7.492  28.679  56.413  1.00  0.00    -0.252 NA
HETATM   11  C   UNL     1      10.900  29.821  56.967  1.00  0.00     0.002 A 
HETATM   12  C   UNL     1      10.730  30.809  57.925  1.00  0.00     0.001 A 
HETATM   13  C   UNL     1       6.218  28.886  56.827  1.00  0.00     0.040 A 
HETATM   14  C   UNL     1       5.924  29.903  57.720  1.00  0.00     0.045 A 
BRANCH  13  15
HETATM   15  C   UNL     1       5.145  27.951  56.326  1.00  0.00     0.038 A 
HETATM   16  C   UNL     1       5.488  26.771  55.447  1.00  0.00     0.011 A 
HETATM   17  C   UNL     1       5.069  26.540  56.868  1.00  0.00     0.011 A 
ENDBRANCH  13  15
ENDBRANCH   2   5
BRANCH   1  18
HETATM   18  C   UNL     1       6.312  32.094  61.674  1.00  0.00     0.043 A 
HETATM   19  C   UNL     1       7.058  32.533  62.778  1.00  0.00    -0.032 A 
HETATM   20  C   UNL     1       8.537  32.347  62.962  1.00  0.00     0.050 C 
HETATM   21  C   UNL     1       6.391  33.207  63.832  1.00  0.00     0.048 A 
HETATM   22  C   UNL     1       5.017  33.456  63.805  1.00  0.00     0.102 A 
HETATM   23  C   UNL     1       4.269  32.997  62.719  1.00  0.00     0.103 A 
HETATM   24  C   UNL     1       4.914  32.313  61.682  1.00  0.00     0.069 A 
BRANCH  22  25
HETATM   25  O   UNL     1       4.331  34.123  64.788  1.00  0.00    -0.353 OA
HETATM   26  C   UNL     1       4.704  33.853  66.132  1.00  0.00     0.210 C 
ENDBRANCH  22  25
BRANCH  23  27
HETATM   27  O   UNL     1       2.919  33.247  62.754  1.00  0.00    -0.353 OA
HETATM   28  C   UNL     1       2.416  34.202  61.829  1.00  0.00     0.210 C 
ENDBRANCH  23  27
ENDBRANCH   1  18
TORSDOF 5
ENDMDL
MODEL 10
REMARK VINA RESULT:      -8.4      4.064      7.515
REMARK  5 active torsions:
REMARK  status: ('A' for Active; 'I' for Inactive)
REMARK    1  A    between atoms: C_3  and  N_4 
REMARK       I    between atoms: N_4  and  C_5 
REMARK    2  A    between atoms: C_5  and  C_6 
REMARK    3  A    between atoms: C_14  and  C_15 
REMARK    4  A    between atoms: C_21  and  O_22 
REMARK    5  A    between atoms: C_24  and  O_25 
ROOT
HETATM    1  N   UNL     1       6.648  28.153  55.850  1.00  0.00    -0.322 N 
HETATM    2  C   UNL     1       5.973  26.961  56.011  1.00  0.00     0.257 C 
HETATM    3  O   UNL     1       5.262  26.596  56.934  1.00  0.00    -0.267 OA
HETATM    4  H   UNL     1       7.022  28.286  54.917  1.00  0.00     0.169 HD
ENDROOT
BRANCH   2   5
HETATM    5  C   UNL     1       6.110  26.025  54.861  1.00  0.00     0.046 A 
HETATM    6  C   UNL     1       5.718  26.363  53.544  1.00  0.00     0.008 A 
HETATM    7  C   UNL     1       5.864  25.347  52.583  1.00  0.00     0.068 A 
HETATM    8  C   UNL     1       5.227  27.629  53.121  1.00  0.00     0.015 A 
HETATM    9  C   UNL     1       5.467  25.594  51.276  1.00  0.00     0.032 A 
HETATM   10  N   UNL     1       6.390  24.143  52.863  1.00  0.00    -0.252 NA
HETATM   11  C   UNL     1       4.950  26.828  50.877  1.00  0.00     0.002 A 
HETATM   12  C   UNL     1       4.839  27.855  51.802  1.00  0.00     0.001 A 
HETATM   13  C   UNL     1       6.831  23.861  54.113  1.00  0.00     0.040 A 
HETATM   14  C   UNL     1       6.692  24.785  55.135  1.00  0.00     0.045 A 
BRANCH  13  15
HETATM   15  C   UNL     1       7.516  22.536  54.345  1.00  0.00     0.038 A 
HETATM   16  C   UNL     1       7.870  21.630  53.190  1.00  0.00     0.011 A 
HETATM   17  C   UNL     1       8.958  22.356  53.922  1.00  0.00     0.011 A 
ENDBRANCH  13  15
ENDBRANCH   2   5
BRANCH   1  18
HETATM   18  C   UNL     1       7.007  29.175  56.767  1.00  0.00     0.043 A 
HETATM   19  C   UNL     1       6.165  30.007  57.521  1.00  0.00    -0.032 A 
HETATM   20  C   UNL     1       4.668  30.055  57.422  1.00  0.00     0.050 C 
HETATM   21  C   UNL     1       6.745  30.896  58.460  1.00  0.00     0.048 A 
HETATM   22  C   UNL     1       8.125  30.967  58.667  1.00  0.00     0.102 A 
HETATM   23  C   UNL     1       8.965  30.158  57.899  1.00  0.00     0.103 A 
HETATM   24  C   UNL     1       8.404  29.291  56.954  1.00  0.00     0.069 A 
BRANCH  22  25
HETATM   25  O   UNL     1       8.730  31.794  59.579  1.00  0.00    -0.353 OA
HETATM   26  C   UNL     1       8.554  31.478  60.954  1.00  0.00     0.210 C 
ENDBRANCH  22  25
BRANCH  23  27
HETATM   27  O   UNL     1      10.313  30.285  58.125  1.00  0.00    -0.353 OA
HETATM   28  C   UNL     1      11.184  29.813  57.106  1.00  0.00     0.210 C 
ENDBRANCH  23  27
ENDBRANCH   1  18
TORSDOF 5
ENDMDL
