MODEL 1
REMARK VINA RESULT:     -10.7      0.000      0.000
REMARK  8 active torsions:
REMARK  status: ('A' for Active; 'I' for Inactive)
REMARK    1  A    between atoms: O_2  and  C_3 
REMARK    2  A    between atoms: C_4  and  N_5 
REMARK       I    between atoms: N_5  and  C_6 
REMARK       I    between atoms: C_6  and  N_7 
REMARK    3  A    between atoms: N_7  and  C_8 
REMARK    4  A    between atoms: C_11  and  C_12 
REMARK    5  A    between atoms: C_12  and  C_13 
REMARK       I    between atoms: C_13  and  N_14 
REMARK    6  A    between atoms: N_14  and  C_15 
REMARK    7  A    between atoms: C_16  and  O_17 
REMARK    8  A    between atoms: O_17  and  C_18 
ROOT
HETATM    1  C   UNL     1       8.092  29.109  57.393  1.00  0.00     0.174 C 
HETATM    2  S   UNL     1       7.212  28.959  55.942  1.00  0.00    -0.062 SA
HETATM    3  C   UNL     1       6.888  27.324  56.338  1.00  0.00     0.081 C 
HETATM    4  C   UNL     1       7.499  26.996  57.536  1.00  0.00     0.052 C 
HETATM    5  N   UNL     1       8.115  28.064  58.183  1.00  0.00    -0.228 NA
ENDROOT
BRANCH   4   6
HETATM    6  C   UNL     1       7.592  25.629  58.132  1.00  0.00     0.163 C 
BRANCH   6   7
HETATM    7  C   UNL     1       8.319  24.700  57.164  1.00  0.00     0.227 C 
HETATM    8  N   UNL     1       7.472  23.910  56.409  1.00  0.00    -0.324 N 
HETATM    9  H   UNL     1       6.487  24.152  56.373  1.00  0.00     0.169 HD
HETATM   10  O   UNL     1       9.548  24.690  57.099  1.00  0.00    -0.273 OA
BRANCH   8  11
HETATM   11  C   UNL     1       7.821  22.771  55.646  1.00  0.00     0.069 A 
HETATM   12  C   UNL     1       8.153  22.958  54.294  1.00  0.00     0.102 A 
HETATM   13  C   UNL     1       8.395  21.864  53.454  1.00  0.00     0.039 A 
HETATM   14  C   UNL     1       8.357  20.572  53.973  1.00  0.00     0.003 A 
HETATM   15  C   UNL     1       8.066  20.376  55.322  1.00  0.00     0.002 A 
HETATM   16  C   UNL     1       7.795  21.469  56.154  1.00  0.00     0.032 A 
BRANCH  12  17
HETATM   17  O   UNL     1       8.188  24.250  53.804  1.00  0.00    -0.309 OA
BRANCH  17  18
HETATM   18  C   UNL     1       7.076  24.699  53.123  1.00  0.00     0.076 A 
HETATM   19  C   UNL     1       7.311  25.347  51.910  1.00  0.00     0.037 A 
HETATM   20  C   UNL     1       6.239  25.824  51.153  1.00  0.00     0.003 A 
HETATM   21  C   UNL     1       4.932  25.641  51.602  1.00  0.00     0.000 A 
HETATM   22  C   UNL     1       4.693  24.971  52.803  1.00  0.00     0.003 A 
HETATM   23  C   UNL     1       5.763  24.488  53.559  1.00  0.00     0.037 A 
ENDBRANCH  17  18
ENDBRANCH  12  17
ENDBRANCH   8  11
ENDBRANCH   6   7
ENDBRANCH   4   6
BRANCH   1  24
HETATM   24  N   UNL     1       8.717  30.310  57.541  1.00  0.00    -0.287 N 
HETATM   25  C   UNL     1       8.734  31.083  58.663  1.00  0.00     0.326 C 
HETATM   26  N   UNL     1       7.754  30.858  59.588  1.00  0.00    -0.306 N 
HETATM   27  O   UNL     1       9.580  31.975  58.728  1.00  0.00    -0.247 OA
HETATM   28  H   UNL     1       6.968  30.290  59.286  1.00  0.00     0.171 HD
HETATM   29  H   UNL     1       9.365  30.585  56.820  1.00  0.00     0.172 HD
BRANCH  26  30
HETATM   30  C   UNL     1       7.574  31.547  60.806  1.00  0.00     0.069 A 
HETATM   31  C   UNL     1       6.489  32.433  60.913  1.00  0.00     0.095 A 
HETATM   32  C   UNL     1       6.243  33.111  62.111  1.00  0.00     0.039 A 
HETATM   33  C   UNL     1       7.094  32.926  63.201  1.00  0.00     0.003 A 
HETATM   34  C   UNL     1       8.181  32.060  63.096  1.00  0.00     0.002 A 
HETATM   35  C   UNL     1       8.422  31.374  61.903  1.00  0.00     0.032 A 
BRANCH  31  36
HETATM   36  O   UNL     1       5.690  32.606  59.807  1.00  0.00    -0.354 OA
HETATM   37  C   UNL     1       4.744  33.661  59.987  1.00  0.00     0.210 C 
ENDBRANCH  31  36
ENDBRANCH  26  30
ENDBRANCH   1  24
TORSDOF 8
ENDMDL
MODEL 2
REMARK VINA RESULT:     -10.6      1.252      1.998
REMARK  8 active torsions:
REMARK  status: ('A' for Active; 'I' for Inactive)
REMARK    1  A    between atoms: O_2  and  C_3 
REMARK    2  A    between atoms: C_4  and  N_5 
REMARK       I    between atoms: N_5  and  C_6 
REMARK       I    between atoms: C_6  and  N_7 
REMARK    3  A    between atoms: N_7  and  C_8 
REMARK    4  A    between atoms: C_11  and  C_12 
REMARK    5  A    between atoms: C_12  and  C_13 
REMARK       I    between atoms: C_13  and  N_14 
REMARK    6  A    between atoms: N_14  and  C_15 
REMARK    7  A    between atoms: C_16  and  O_17 
REMARK    8  A    between atoms: O_17  and  C_18 
ROOT
HETATM    1  C   UNL     1       6.264  29.450  56.792  1.00  0.00     0.174 C 
HETATM    2  S   UNL     1       5.868  28.967  55.207  1.00  0.00    -0.062 SA
HETATM    3  C   UNL     1       6.753  27.521  55.455  1.00  0.00     0.081 C 
HETATM    4  C   UNL     1       7.314  27.520  56.721  1.00  0.00     0.052 C 
HETATM    5  N   UNL     1       6.946  28.600  57.519  1.00  0.00    -0.228 NA
ENDROOT
BRANCH   4   6
HETATM    6  C   UNL     1       8.289  26.519  57.251  1.00  0.00     0.163 C 
BRANCH   6   7
HETATM    7  C   UNL     1       7.748  25.111  57.021  1.00  0.00     0.227 C 
HETATM    8  N   UNL     1       8.700  24.215  56.571  1.00  0.00    -0.324 N 
HETATM    9  H   UNL     1       9.679  24.469  56.649  1.00  0.00     0.169 HD
HETATM   10  O   UNL     1       6.565  24.846  57.230  1.00  0.00    -0.273 OA
BRANCH   8  11
HETATM   11  C   UNL     1       8.472  22.939  56.005  1.00  0.00     0.069 A 
HETATM   12  C   UNL     1       8.303  22.856  54.612  1.00  0.00     0.102 A 
HETATM   13  C   UNL     1       7.959  21.644  54.000  1.00  0.00     0.039 A 
HETATM   14  C   UNL     1       7.832  20.491  54.772  1.00  0.00     0.003 A 
HETATM   15  C   UNL     1       8.035  20.555  56.149  1.00  0.00     0.002 A 
HETATM   16  C   UNL     1       8.350  21.772  56.764  1.00  0.00     0.032 A 
BRANCH  12  17
HETATM   17  O   UNL     1       8.438  24.013  53.869  1.00  0.00    -0.309 OA
BRANCH  17  18
HETATM   18  C   UNL     1       7.300  24.524  53.281  1.00  0.00     0.076 A 
HETATM   19  C   UNL     1       7.469  25.157  52.049  1.00  0.00     0.037 A 
HETATM   20  C   UNL     1       6.367  25.693  51.382  1.00  0.00     0.003 A 
HETATM   21  C   UNL     1       5.093  25.586  51.940  1.00  0.00     0.000 A 
HETATM   22  C   UNL     1       4.918  24.932  53.160  1.00  0.00     0.003 A 
HETATM   23  C   UNL     1       6.018  24.390  53.827  1.00  0.00     0.037 A 
ENDBRANCH  17  18
ENDBRANCH  12  17
ENDBRANCH   8  11
ENDBRANCH   6   7
ENDBRANCH   4   6
BRANCH   1  24
HETATM   24  N   UNL     1       5.851  30.709  57.108  1.00  0.00    -0.287 N 
HETATM   25  C   UNL     1       6.279  31.465  58.158  1.00  0.00     0.326 C 
HETATM   26  N   UNL     1       6.868  30.805  59.200  1.00  0.00    -0.306 N 
HETATM   27  O   UNL     1       6.037  32.671  58.128  1.00  0.00    -0.247 OA
HETATM   28  H   UNL     1       6.754  29.795  59.218  1.00  0.00     0.171 HD
HETATM   29  H   UNL     1       5.303  31.202  56.419  1.00  0.00     0.172 HD
BRANCH  26  30
HETATM   30  C   UNL     1       7.367  31.382  60.385  1.00  0.00     0.069 A 
HETATM   31  C   UNL     1       8.754  31.344  60.610  1.00  0.00     0.095 A 
HETATM   32  C   UNL     1       9.304  31.937  61.750  1.00  0.00     0.039 A 
HETATM   33  C   UNL     1       8.469  32.548  62.686  1.00  0.00     0.003 A 
HETATM   34  C   UNL     1       7.092  32.575  62.479  1.00  0.00     0.002 A 
HETATM   35  C   UNL     1       6.541  31.993  61.333  1.00  0.00     0.032 A 
BRANCH  31  36
HETATM   36  O   UNL     1       9.538  30.709  59.675  1.00  0.00    -0.354 OA
HETATM   37  C   UNL     1      10.086  31.623  58.723  1.00  0.00     0.210 C 
ENDBRANCH  31  36
ENDBRANCH  26  30
ENDBRANCH   1  24
TORSDOF 8
ENDMDL
MODEL 3
REMARK VINA RESULT:     -10.6      1.395      3.343
REMARK  8 active torsions:
REMARK  status: ('A' for Active; 'I' for Inactive)
REMARK    1  A    between atoms: O_2  and  C_3 
REMARK    2  A    between atoms: C_4  and  N_5 
REMARK       I    between atoms: N_5  and  C_6 
REMARK       I    between atoms: C_6  and  N_7 
REMARK    3  A    between atoms: N_7  and  C_8 
REMARK    4  A    between atoms: C_11  and  C_12 
REMARK    5  A    between atoms: C_12  and  C_13 
REMARK       I    between atoms: C_13  and  N_14 
REMARK    6  A    between atoms: N_14  and  C_15 
REMARK    7  A    between atoms: C_16  and  O_17 
REMARK    8  A    between atoms: O_17  and  C_18 
ROOT
HETATM    1  C   UNL     1       7.602  29.990  58.114  1.00  0.00     0.174 C 
HETATM    2  S   UNL     1       6.115  30.186  57.308  1.00  0.00    -0.062 SA
HETATM    3  C   UNL     1       5.976  28.481  57.206  1.00  0.00     0.081 C 
HETATM    4  C   UNL     1       7.090  27.881  57.768  1.00  0.00     0.052 C 
HETATM    5  N   UNL     1       7.979  28.763  58.374  1.00  0.00    -0.228 NA
ENDROOT
BRANCH   4   6
HETATM    6  C   UNL     1       7.420  26.424  57.725  1.00  0.00     0.163 C 
BRANCH   6   7
HETATM    7  C   UNL     1       6.703  25.774  56.545  1.00  0.00     0.227 C 
HETATM    8  N   UNL     1       7.191  26.168  55.312  1.00  0.00    -0.324 N 
HETATM    9  H   UNL     1       8.088  26.640  55.274  1.00  0.00     0.169 HD
HETATM   10  O   UNL     1       5.781  24.981  56.724  1.00  0.00    -0.273 OA
BRANCH   8  11
HETATM   11  C   UNL     1       6.577  25.978  54.051  1.00  0.00     0.069 A 
HETATM   12  C   UNL     1       7.193  25.099  53.144  1.00  0.00     0.102 A 
HETATM   13  C   UNL     1       6.704  24.954  51.839  1.00  0.00     0.039 A 
HETATM   14  C   UNL     1       5.562  25.649  51.447  1.00  0.00     0.003 A 
HETATM   15  C   UNL     1       4.922  26.495  52.351  1.00  0.00     0.002 A 
HETATM   16  C   UNL     1       5.429  26.662  53.646  1.00  0.00     0.032 A 
BRANCH  12  17
HETATM   17  O   UNL     1       8.321  24.418  53.558  1.00  0.00    -0.309 OA
BRANCH  17  18
HETATM   18  C   UNL     1       8.187  23.070  53.820  1.00  0.00     0.076 A 
HETATM   19  C   UNL     1       7.994  22.715  55.156  1.00  0.00     0.037 A 
HETATM   20  C   UNL     1       7.839  21.372  55.506  1.00  0.00     0.003 A 
HETATM   21  C   UNL     1       7.864  20.386  54.520  1.00  0.00     0.000 A 
HETATM   22  C   UNL     1       8.032  20.742  53.181  1.00  0.00     0.003 A 
HETATM   23  C   UNL     1       8.181  22.084  52.827  1.00  0.00     0.037 A 
ENDBRANCH  17  18
ENDBRANCH  12  17
ENDBRANCH   8  11
ENDBRANCH   6   7
ENDBRANCH   4   6
BRANCH   1  24
HETATM   24  N   UNL     1       8.258  31.159  58.360  1.00  0.00    -0.287 N 
HETATM   25  C   UNL     1       8.290  31.839  59.540  1.00  0.00     0.326 C 
HETATM   26  N   UNL     1       7.300  31.568  60.442  1.00  0.00    -0.306 N 
HETATM   27  O   UNL     1       9.159  32.700  59.678  1.00  0.00    -0.247 OA
HETATM   28  H   UNL     1       6.501  31.047  60.092  1.00  0.00     0.171 HD
HETATM   29  H   UNL     1       8.917  31.473  57.664  1.00  0.00     0.172 HD
BRANCH  26  30
HETATM   30  C   UNL     1       7.133  32.161  61.710  1.00  0.00     0.069 A 
HETATM   31  C   UNL     1       5.891  32.747  62.009  1.00  0.00     0.095 A 
HETATM   32  C   UNL     1       5.660  33.314  63.266  1.00  0.00     0.039 A 
HETATM   33  C   UNL     1       6.676  33.322  64.222  1.00  0.00     0.003 A 
HETATM   34  C   UNL     1       7.915  32.758  63.926  1.00  0.00     0.002 A 
HETATM   35  C   UNL     1       8.145  32.180  62.674  1.00  0.00     0.032 A 
BRANCH  31  36
HETATM   36  O   UNL     1       4.925  32.740  61.030  1.00  0.00    -0.354 OA
HETATM   37  C   UNL     1       3.717  32.117  61.471  1.00  0.00     0.210 C 
ENDBRANCH  31  36
ENDBRANCH  26  30
ENDBRANCH   1  24
TORSDOF 8
ENDMDL
MODEL 4
REMARK VINA RESULT:      -9.9      2.532      9.354
REMARK  8 active torsions:
REMARK  status: ('A' for Active; 'I' for Inactive)
REMARK    1  A    between atoms: O_2  and  C_3 
REMARK    2  A    between atoms: C_4  and  N_5 
REMARK       I    between atoms: N_5  and  C_6 
REMARK       I    between atoms: C_6  and  N_7 
REMARK    3  A    between atoms: N_7  and  C_8 
REMARK    4  A    between atoms: C_11  and  C_12 
REMARK    5  A    between atoms: C_12  and  C_13 
REMARK       I    between atoms: C_13  and  N_14 
REMARK    6  A    between atoms: N_14  and  C_15 
REMARK    7  A    between atoms: C_16  and  O_17 
REMARK    8  A    between atoms: O_17  and  C_18 
ROOT
HETATM    1  C   UNL     1       4.377  27.773  53.814  1.00  0.00     0.174 C 
HETATM    2  S   UNL     1       3.921  29.228  53.055  1.00  0.00    -0.062 SA
HETATM    3  C   UNL     1       4.196  30.054  54.530  1.00  0.00     0.081 C 
HETATM    4  C   UNL     1       4.589  29.157  55.509  1.00  0.00     0.052 C 
HETATM    5  N   UNL     1       4.780  27.855  55.058  1.00  0.00    -0.228 NA
ENDROOT
BRANCH   4   6
HETATM    6  C   UNL     1       4.760  29.460  56.962  1.00  0.00     0.163 C 
BRANCH   6   7
HETATM    7  C   UNL     1       6.179  29.100  57.394  1.00  0.00     0.227 C 
HETATM    8  N   UNL     1       7.074  30.149  57.297  1.00  0.00    -0.324 N 
HETATM    9  H   UNL     1       6.708  31.089  57.185  1.00  0.00     0.169 HD
HETATM   10  O   UNL     1       6.452  27.965  57.784  1.00  0.00    -0.273 OA
BRANCH   8  11
HETATM   11  C   UNL     1       8.486  30.074  57.344  1.00  0.00     0.069 A 
HETATM   12  C   UNL     1       9.172  31.031  58.110  1.00  0.00     0.102 A 
HETATM   13  C   UNL     1      10.572  31.086  58.108  1.00  0.00     0.039 A 
HETATM   14  C   UNL     1      11.299  30.148  57.378  1.00  0.00     0.003 A 
HETATM   15  C   UNL     1      10.629  29.170  56.645  1.00  0.00     0.002 A 
HETATM   16  C   UNL     1       9.230  29.135  56.625  1.00  0.00     0.032 A 
BRANCH  12  17
HETATM   17  O   UNL     1       8.428  31.948  58.828  1.00  0.00    -0.309 OA
BRANCH  17  18
HETATM   18  C   UNL     1       8.388  31.798  60.198  1.00  0.00     0.076 A 
HETATM   19  C   UNL     1       7.676  32.766  60.907  1.00  0.00     0.037 A 
HETATM   20  C   UNL     1       7.577  32.682  62.297  1.00  0.00     0.003 A 
HETATM   21  C   UNL     1       8.180  31.624  62.977  1.00  0.00     0.000 A 
HETATM   22  C   UNL     1       8.871  30.642  62.268  1.00  0.00     0.003 A 
HETATM   23  C   UNL     1       8.967  30.720  60.877  1.00  0.00     0.037 A 
ENDBRANCH  17  18
ENDBRANCH  12  17
ENDBRANCH   8  11
ENDBRANCH   6   7
ENDBRANCH   4   6
BRANCH   1  24
HETATM   24  N   UNL     1       4.224  26.668  53.034  1.00  0.00    -0.287 N 
HETATM   25  C   UNL     1       4.949  25.516  53.105  1.00  0.00     0.326 C 
HETATM   26  N   UNL     1       6.166  25.585  53.723  1.00  0.00    -0.306 N 
HETATM   27  O   UNL     1       4.494  24.520  52.543  1.00  0.00    -0.247 OA
HETATM   28  H   UNL     1       6.535  26.516  53.893  1.00  0.00     0.171 HD
HETATM   29  H   UNL     1       3.397  26.620  52.459  1.00  0.00     0.172 HD
BRANCH  26  30
HETATM   30  C   UNL     1       7.082  24.527  53.896  1.00  0.00     0.069 A 
HETATM   31  C   UNL     1       7.691  24.374  55.153  1.00  0.00     0.095 A 
HETATM   32  C   UNL     1       8.576  23.318  55.387  1.00  0.00     0.039 A 
HETATM   33  C   UNL     1       8.878  22.423  54.360  1.00  0.00     0.003 A 
HETATM   34  C   UNL     1       8.291  22.579  53.106  1.00  0.00     0.002 A 
HETATM   35  C   UNL     1       7.397  23.628  52.873  1.00  0.00     0.032 A 
BRANCH  31  36
HETATM   36  O   UNL     1       7.385  25.292  56.130  1.00  0.00    -0.354 OA
HETATM   37  C   UNL     1       6.367  24.818  57.013  1.00  0.00     0.210 C 
ENDBRANCH  31  36
ENDBRANCH  26  30
ENDBRANCH   1  24
TORSDOF 8
ENDMDL
MODEL 5
REMARK VINA RESULT:      -9.9      1.644     10.676
REMARK  8 active torsions:
REMARK  status: ('A' for Active; 'I' for Inactive)
REMARK    1  A    between atoms: O_2  and  C_3 
REMARK    2  A    between atoms: C_4  and  N_5 
REMARK       I    between atoms: N_5  and  C_6 
REMARK       I    between atoms: C_6  and  N_7 
REMARK    3  A    between atoms: N_7  and  C_8 
REMARK    4  A    between atoms: C_11  and  C_12 
REMARK    5  A    between atoms: C_12  and  C_13 
REMARK       I    between atoms: C_13  and  N_14 
REMARK    6  A    between atoms: N_14  and  C_15 
REMARK    7  A    between atoms: C_16  and  O_17 
REMARK    8  A    between atoms: O_17  and  C_18 
ROOT
HETATM    1  C   UNL     1       7.222  28.172  57.219  1.00  0.00     0.174 C 
HETATM    2  S   UNL     1       7.835  28.955  55.836  1.00  0.00    -0.062 SA
HETATM    3  C   UNL     1       8.819  29.923  56.851  1.00  0.00     0.081 C 
HETATM    4  C   UNL     1       8.589  29.602  58.179  1.00  0.00     0.052 C 
HETATM    5  N   UNL     1       7.732  28.523  58.374  1.00  0.00    -0.228 NA
ENDROOT
BRANCH   4   6
HETATM    6  C   UNL     1       9.126  30.333  59.366  1.00  0.00     0.163 C 
BRANCH   6   7
HETATM    7  C   UNL     1       8.279  31.577  59.624  1.00  0.00     0.227 C 
HETATM    8  N   UNL     1       6.934  31.308  59.796  1.00  0.00    -0.324 N 
HETATM    9  H   UNL     1       6.650  30.350  59.972  1.00  0.00     0.169 HD
HETATM   10  O   UNL     1       8.792  32.694  59.663  1.00  0.00    -0.273 OA
BRANCH   8  11
HETATM   11  C   UNL     1       5.867  32.237  59.768  1.00  0.00     0.069 A 
HETATM   12  C   UNL     1       5.088  32.384  60.928  1.00  0.00     0.102 A 
HETATM   13  C   UNL     1       3.948  33.198  60.932  1.00  0.00     0.039 A 
HETATM   14  C   UNL     1       3.608  33.915  59.787  1.00  0.00     0.003 A 
HETATM   15  C   UNL     1       4.395  33.807  58.642  1.00  0.00     0.002 A 
HETATM   16  C   UNL     1       5.517  32.969  58.630  1.00  0.00     0.032 A 
BRANCH  12  17
HETATM   17  O   UNL     1       5.449  31.665  62.051  1.00  0.00    -0.309 OA
BRANCH  17  18
HETATM   18  C   UNL     1       5.938  32.375  63.128  1.00  0.00     0.076 A 
HETATM   19  C   UNL     1       7.320  32.563  63.170  1.00  0.00     0.037 A 
HETATM   20  C   UNL     1       7.896  33.280  64.221  1.00  0.00     0.003 A 
HETATM   21  C   UNL     1       7.089  33.820  65.221  1.00  0.00     0.000 A 
HETATM   22  C   UNL     1       5.705  33.655  65.167  1.00  0.00     0.003 A 
HETATM   23  C   UNL     1       5.126  32.944  64.115  1.00  0.00     0.037 A 
ENDBRANCH  17  18
ENDBRANCH  12  17
ENDBRANCH   8  11
ENDBRANCH   6   7
ENDBRANCH   4   6
BRANCH   1  24
HETATM   24  N   UNL     1       6.222  27.286  56.958  1.00  0.00    -0.287 N 
HETATM   25  C   UNL     1       6.356  26.054  56.391  1.00  0.00     0.326 C 
HETATM   26  N   UNL     1       7.495  25.821  55.673  1.00  0.00    -0.306 N 
HETATM   27  O   UNL     1       5.412  25.271  56.500  1.00  0.00    -0.247 OA
HETATM   28  H   UNL     1       8.053  26.635  55.434  1.00  0.00     0.171 HD
HETATM   29  H   UNL     1       5.319  27.476  57.366  1.00  0.00     0.172 HD
BRANCH  26  30
HETATM   30  C   UNL     1       7.831  24.632  54.994  1.00  0.00     0.069 A 
HETATM   31  C   UNL     1       7.539  24.545  53.622  1.00  0.00     0.095 A 
HETATM   32  C   UNL     1       7.887  23.403  52.894  1.00  0.00     0.039 A 
HETATM   33  C   UNL     1       8.507  22.332  53.537  1.00  0.00     0.003 A 
HETATM   34  C   UNL     1       8.785  22.404  54.901  1.00  0.00     0.002 A 
HETATM   35  C   UNL     1       8.447  23.549  55.628  1.00  0.00     0.032 A 
BRANCH  31  36
HETATM   36  O   UNL     1       6.904  25.613  53.033  1.00  0.00    -0.354 OA
HETATM   37  C   UNL     1       5.540  25.323  52.720  1.00  0.00     0.210 C 
ENDBRANCH  31  36
ENDBRANCH  26  30
ENDBRANCH   1  24
TORSDOF 8
ENDMDL
MODEL 6
REMARK VINA RESULT:      -9.9      2.213      9.071
REMARK  8 active torsions:
REMARK  status: ('A' for Active; 'I' for Inactive)
REMARK    1  A    between atoms: O_2  and  C_3 
REMARK    2  A    between atoms: C_4  and  N_5 
REMARK       I    between atoms: N_5  and  C_6 
REMARK       I    between atoms: C_6  and  N_7 
REMARK    3  A    between atoms: N_7  and  C_8 
REMARK    4  A    between atoms: C_11  and  C_12 
REMARK    5  A    between atoms: C_12  and  C_13 
REMARK       I    between atoms: C_13  and  N_14 
REMARK    6  A    between atoms: N_14  and  C_15 
REMARK    7  A    between atoms: C_16  and  O_17 
REMARK    8  A    between atoms: O_17  and  C_18 
ROOT
HETATM    1  C   UNL     1       7.807  27.768  56.600  1.00  0.00     0.174 C 
HETATM    2  S   UNL     1       7.816  28.443  55.036  1.00  0.00    -0.062 SA
HETATM    3  C   UNL     1       9.216  29.336  55.458  1.00  0.00     0.081 C 
HETATM    4  C   UNL     1       9.562  29.080  56.774  1.00  0.00     0.052 C 
HETATM    5  N   UNL     1       8.794  28.100  57.395  1.00  0.00    -0.228 NA
ENDROOT
BRANCH   4   6
HETATM    6  C   UNL     1      10.617  29.789  57.560  1.00  0.00     0.163 C 
BRANCH   6   7
HETATM    7  C   UNL     1       9.968  30.862  58.431  1.00  0.00     0.227 C 
HETATM    8  N   UNL     1       8.938  30.388  59.223  1.00  0.00    -0.324 N 
HETATM    9  H   UNL     1       8.845  29.386  59.348  1.00  0.00     0.169 HD
HETATM   10  O   UNL     1      10.359  32.028  58.396  1.00  0.00    -0.273 OA
BRANCH   8  11
HETATM   11  C   UNL     1       7.969  31.155  59.912  1.00  0.00     0.069 A 
HETATM   12  C   UNL     1       6.862  31.627  59.186  1.00  0.00     0.102 A 
HETATM   13  C   UNL     1       5.928  32.486  59.777  1.00  0.00     0.039 A 
HETATM   14  C   UNL     1       6.065  32.840  61.118  1.00  0.00     0.003 A 
HETATM   15  C   UNL     1       7.138  32.347  61.857  1.00  0.00     0.002 A 
HETATM   16  C   UNL     1       8.088  31.512  61.258  1.00  0.00     0.032 A 
BRANCH  12  17
HETATM   17  O   UNL     1       6.747  31.258  57.859  1.00  0.00    -0.309 OA
BRANCH  17  18
HETATM   18  C   UNL     1       5.477  31.209  57.324  1.00  0.00     0.076 A 
HETATM   19  C   UNL     1       5.021  32.373  56.704  1.00  0.00     0.037 A 
HETATM   20  C   UNL     1       3.750  32.405  56.127  1.00  0.00     0.003 A 
HETATM   21  C   UNL     1       2.941  31.269  56.157  1.00  0.00     0.000 A 
HETATM   22  C   UNL     1       3.406  30.097  56.754  1.00  0.00     0.003 A 
HETATM   23  C   UNL     1       4.678  30.060  57.327  1.00  0.00     0.037 A 
ENDBRANCH  17  18
ENDBRANCH  12  17
ENDBRANCH   8  11
ENDBRANCH   6   7
ENDBRANCH   4   6
BRANCH   1  24
HETATM   24  N   UNL     1       6.727  26.980  56.858  1.00  0.00    -0.287 N 
HETATM   25  C   UNL     1       6.692  25.618  56.837  1.00  0.00     0.326 C 
HETATM   26  N   UNL     1       7.679  24.981  56.140  1.00  0.00    -0.306 N 
HETATM   27  O   UNL     1       5.736  25.064  57.380  1.00  0.00    -0.247 OA
HETATM   28  H   UNL     1       8.237  25.558  55.517  1.00  0.00     0.171 HD
HETATM   29  H   UNL     1       5.917  27.424  57.264  1.00  0.00     0.172 HD
BRANCH  26  30
HETATM   30  C   UNL     1       7.827  23.589  55.974  1.00  0.00     0.069 A 
HETATM   31  C   UNL     1       7.483  23.027  54.733  1.00  0.00     0.095 A 
HETATM   32  C   UNL     1       7.648  21.658  54.504  1.00  0.00     0.039 A 
HETATM   33  C   UNL     1       8.134  20.837  55.522  1.00  0.00     0.003 A 
HETATM   34  C   UNL     1       8.461  21.384  56.761  1.00  0.00     0.002 A 
HETATM   35  C   UNL     1       8.307  22.755  56.988  1.00  0.00     0.032 A 
BRANCH  31  36
HETATM   36  O   UNL     1       6.984  23.867  53.765  1.00  0.00    -0.354 OA
HETATM   37  C   UNL     1       7.898  24.040  52.680  1.00  0.00     0.210 C 
ENDBRANCH  31  36
ENDBRANCH  26  30
ENDBRANCH   1  24
TORSDOF 8
ENDMDL
MODEL 7
REMARK VINA RESULT:      -9.5      3.354      5.997
REMARK  8 active torsions:
REMARK  status: ('A' for Active; 'I' for Inactive)
REMARK    1  A    between atoms: O_2  and  C_3 
REMARK    2  A    between atoms: C_4  and  N_5 
REMARK       I    between atoms: N_5  and  C_6 
REMARK       I    between atoms: C_6  and  N_7 
REMARK    3  A    between atoms: N_7  and  C_8 
REMARK    4  A    between atoms: C_11  and  C_12 
REMARK    5  A    between atoms: C_12  and  C_13 
REMARK       I    between atoms: C_13  and  N_14 
REMARK    6  A    between atoms: N_14  and  C_15 
REMARK    7  A    between atoms: C_16  and  O_17 
REMARK    8  A    between atoms: O_17  and  C_18 
ROOT
HETATM    1  C   UNL     1       5.764  29.793  57.628  1.00  0.00     0.174 C 
HETATM    2  S   UNL     1       6.968  30.814  58.269  1.00  0.00    -0.062 SA
HETATM    3  C   UNL     1       8.050  29.486  58.282  1.00  0.00     0.081 C 
HETATM    4  C   UNL     1       7.409  28.348  57.824  1.00  0.00     0.052 C 
HETATM    5  N   UNL     1       6.114  28.559  57.361  1.00  0.00    -0.228 NA
ENDROOT
BRANCH   4   6
HETATM    6  C   UNL     1       7.961  26.959  57.844  1.00  0.00     0.163 C 
BRANCH   6   7
HETATM    7  C   UNL     1       7.134  26.070  56.919  1.00  0.00     0.227 C 
HETATM    8  N   UNL     1       7.344  26.316  55.575  1.00  0.00    -0.324 N 
HETATM    9  H   UNL     1       8.155  26.863  55.304  1.00  0.00     0.169 HD
HETATM   10  O   UNL     1       6.363  25.226  57.375  1.00  0.00    -0.273 OA
BRANCH   8  11
HETATM   11  C   UNL     1       6.548  25.877  54.491  1.00  0.00     0.069 A 
HETATM   12  C   UNL     1       7.034  24.823  53.699  1.00  0.00     0.102 A 
HETATM   13  C   UNL     1       6.352  24.418  52.544  1.00  0.00     0.039 A 
HETATM   14  C   UNL     1       5.149  25.030  52.201  1.00  0.00     0.003 A 
HETATM   15  C   UNL     1       4.638  26.050  53.001  1.00  0.00     0.002 A 
HETATM   16  C   UNL     1       5.335  26.475  54.138  1.00  0.00     0.032 A 
BRANCH  12  17
HETATM   17  O   UNL     1       8.228  24.230  54.063  1.00  0.00    -0.309 OA
BRANCH  17  18
HETATM   18  C   UNL     1       8.193  22.896  54.408  1.00  0.00     0.076 A 
HETATM   19  C   UNL     1       8.685  21.998  53.460  1.00  0.00     0.037 A 
HETATM   20  C   UNL     1       8.695  20.629  53.733  1.00  0.00     0.003 A 
HETATM   21  C   UNL     1       8.226  20.159  54.959  1.00  0.00     0.000 A 
HETATM   22  C   UNL     1       7.757  21.057  55.918  1.00  0.00     0.003 A 
HETATM   23  C   UNL     1       7.750  22.427  55.650  1.00  0.00     0.037 A 
ENDBRANCH  17  18
ENDBRANCH  12  17
ENDBRANCH   8  11
ENDBRANCH   6   7
ENDBRANCH   4   6
BRANCH   1  24
HETATM   24  N   UNL     1       4.542  30.382  57.508  1.00  0.00    -0.287 N 
HETATM   25  C   UNL     1       3.828  30.543  56.358  1.00  0.00     0.326 C 
HETATM   26  N   UNL     1       4.518  30.470  55.181  1.00  0.00    -0.306 N 
HETATM   27  O   UNL     1       2.632  30.817  56.464  1.00  0.00    -0.247 OA
HETATM   28  H   UNL     1       5.531  30.516  55.248  1.00  0.00     0.171 HD
HETATM   29  H   UNL     1       4.036  30.573  58.359  1.00  0.00     0.172 HD
BRANCH  26  30
HETATM   30  C   UNL     1       3.986  30.620  53.884  1.00  0.00     0.069 A 
HETATM   31  C   UNL     1       3.978  31.905  53.315  1.00  0.00     0.095 A 
HETATM   32  C   UNL     1       3.498  32.101  52.016  1.00  0.00     0.039 A 
HETATM   33  C   UNL     1       3.000  31.020  51.289  1.00  0.00     0.003 A 
HETATM   34  C   UNL     1       2.989  29.747  51.854  1.00  0.00     0.002 A 
HETATM   35  C   UNL     1       3.479  29.546  53.148  1.00  0.00     0.032 A 
BRANCH  31  36
HETATM   36  O   UNL     1       4.455  32.947  54.075  1.00  0.00    -0.354 OA
HETATM   37  C   UNL     1       3.429  33.886  54.403  1.00  0.00     0.210 C 
ENDBRANCH  31  36
ENDBRANCH  26  30
ENDBRANCH   1  24
TORSDOF 8
ENDMDL
MODEL 8
REMARK VINA RESULT:      -9.4      3.319      6.406
REMARK  8 active torsions:
REMARK  status: ('A' for Active; 'I' for Inactive)
REMARK    1  A    between atoms: O_2  and  C_3 
REMARK    2  A    between atoms: C_4  and  N_5 
REMARK       I    between atoms: N_5  and  C_6 
REMARK       I    between atoms: C_6  and  N_7 
REMARK    3  A    between atoms: N_7  and  C_8 
REMARK    4  A    between atoms: C_11  and  C_12 
REMARK    5  A    between atoms: C_12  and  C_13 
REMARK       I    between atoms: C_13  and  N_14 
REMARK    6  A    between atoms: N_14  and  C_15 
REMARK    7  A    between atoms: C_16  and  O_17 
REMARK    8  A    between atoms: O_17  and  C_18 
ROOT
HETATM    1  C   UNL     1       8.248  23.952  55.560  1.00  0.00     0.174 C 
HETATM    2  S   UNL     1       7.851  22.301  55.419  1.00  0.00    -0.062 SA
HETATM    3  C   UNL     1       7.596  22.533  53.741  1.00  0.00     0.081 C 
HETATM    4  C   UNL     1       7.802  23.862  53.409  1.00  0.00     0.052 C 
HETATM    5  N   UNL     1       8.270  24.653  54.455  1.00  0.00    -0.228 NA
ENDROOT
BRANCH   4   6
HETATM    6  C   UNL     1       7.517  24.493  52.086  1.00  0.00     0.163 C 
BRANCH   6   7
HETATM    7  C   UNL     1       6.163  25.195  52.137  1.00  0.00     0.227 C 
HETATM    8  N   UNL     1       6.239  26.566  51.969  1.00  0.00    -0.324 N 
HETATM    9  H   UNL     1       7.100  26.962  51.605  1.00  0.00     0.169 HD
HETATM   10  O   UNL     1       5.126  24.558  52.316  1.00  0.00    -0.273 OA
BRANCH   8  11
HETATM   11  C   UNL     1       5.228  27.517  52.242  1.00  0.00     0.069 A 
HETATM   12  C   UNL     1       4.737  28.284  51.171  1.00  0.00     0.102 A 
HETATM   13  C   UNL     1       3.822  29.321  51.390  1.00  0.00     0.039 A 
HETATM   14  C   UNL     1       3.350  29.567  52.677  1.00  0.00     0.003 A 
HETATM   15  C   UNL     1       3.801  28.787  53.740  1.00  0.00     0.002 A 
HETATM   16  C   UNL     1       4.738  27.770  53.525  1.00  0.00     0.032 A 
BRANCH  12  17
HETATM   17  O   UNL     1       5.219  28.018  49.904  1.00  0.00    -0.309 OA
BRANCH  17  18
HETATM   18  C   UNL     1       4.338  27.475  48.993  1.00  0.00     0.076 A 
HETATM   19  C   UNL     1       4.131  26.097  49.076  1.00  0.00     0.037 A 
HETATM   20  C   UNL     1       3.247  25.469  48.198  1.00  0.00     0.003 A 
HETATM   21  C   UNL     1       2.560  26.219  47.244  1.00  0.00     0.000 A 
HETATM   22  C   UNL     1       2.747  27.599  47.175  1.00  0.00     0.003 A 
HETATM   23  C   UNL     1       3.626  28.232  48.056  1.00  0.00     0.037 A 
ENDBRANCH  17  18
ENDBRANCH  12  17
ENDBRANCH   8  11
ENDBRANCH   6   7
ENDBRANCH   4   6
BRANCH   1  24
HETATM   24  N   UNL     1       8.457  24.364  56.841  1.00  0.00    -0.287 N 
HETATM   25  C   UNL     1       7.975  25.501  57.417  1.00  0.00     0.326 C 
HETATM   26  N   UNL     1       7.579  26.504  56.578  1.00  0.00    -0.306 N 
HETATM   27  O   UNL     1       8.003  25.574  58.646  1.00  0.00    -0.247 OA
HETATM   28  H   UNL     1       7.866  26.420  55.607  1.00  0.00     0.171 HD
HETATM   29  H   UNL     1       8.865  23.699  57.480  1.00  0.00     0.172 HD
BRANCH  26  30
HETATM   30  C   UNL     1       7.067  27.762  56.955  1.00  0.00     0.069 A 
HETATM   31  C   UNL     1       7.979  28.799  57.216  1.00  0.00     0.095 A 
HETATM   32  C   UNL     1       7.522  30.076  57.555  1.00  0.00     0.039 A 
HETATM   33  C   UNL     1       6.152  30.319  57.660  1.00  0.00     0.003 A 
HETATM   34  C   UNL     1       5.242  29.291  57.419  1.00  0.00     0.002 A 
HETATM   35  C   UNL     1       5.697  28.016  57.069  1.00  0.00     0.032 A 
BRANCH  31  36
HETATM   36  O   UNL     1       9.320  28.511  57.125  1.00  0.00    -0.354 OA
HETATM   37  C   UNL     1      10.131  29.682  57.247  1.00  0.00     0.210 C 
ENDBRANCH  31  36
ENDBRANCH  26  30
ENDBRANCH   1  24
TORSDOF 8
ENDMDL
MODEL 9
REMARK VINA RESULT:      -9.4      2.085     10.115
REMARK  8 active torsions:
REMARK  status: ('A' for Active; 'I' for Inactive)
REMARK    1  A    between atoms: O_2  and  C_3 
REMARK    2  A    between atoms: C_4  and  N_5 
REMARK       I    between atoms: N_5  and  C_6 
REMARK       I    between atoms: C_6  and  N_7 
REMARK    3  A    between atoms: N_7  and  C_8 
REMARK    4  A    between atoms: C_11  and  C_12 
REMARK    5  A    between atoms: C_12  and  C_13 
REMARK       I    between atoms: C_13  and  N_14 
REMARK    6  A    between atoms: N_14  and  C_15 
REMARK    7  A    between atoms: C_16  and  O_17 
REMARK    8  A    between atoms: O_17  and  C_18 
ROOT
HETATM    1  C   UNL     1       5.254  27.866  54.677  1.00  0.00     0.174 C 
HETATM    2  S   UNL     1       4.106  28.585  55.711  1.00  0.00    -0.062 SA
HETATM    3  C   UNL     1       5.371  29.464  56.461  1.00  0.00     0.081 C 
HETATM    4  C   UNL     1       6.587  29.126  55.889  1.00  0.00     0.052 C 
HETATM    5  N   UNL     1       6.494  28.271  54.795  1.00  0.00    -0.228 NA
ENDROOT
BRANCH   4   6
HETATM    6  C   UNL     1       7.935  29.548  56.375  1.00  0.00     0.163 C 
BRANCH   6   7
HETATM    7  C   UNL     1       7.935  29.596  57.900  1.00  0.00     0.227 C 
HETATM    8  N   UNL     1       7.885  30.878  58.417  1.00  0.00    -0.324 N 
HETATM    9  H   UNL     1       7.624  31.639  57.800  1.00  0.00     0.169 HD
HETATM   10  O   UNL     1       7.978  28.562  58.566  1.00  0.00    -0.273 OA
BRANCH   8  11
HETATM   11  C   UNL     1       8.152  31.272  59.750  1.00  0.00     0.069 A 
HETATM   12  C   UNL     1       7.088  31.782  60.513  1.00  0.00     0.102 A 
HETATM   13  C   UNL     1       7.307  32.298  61.797  1.00  0.00     0.039 A 
HETATM   14  C   UNL     1       8.585  32.260  62.349  1.00  0.00     0.003 A 
HETATM   15  C   UNL     1       9.640  31.721  61.615  1.00  0.00     0.002 A 
HETATM   16  C   UNL     1       9.427  31.233  60.321  1.00  0.00     0.032 A 
BRANCH  12  17
HETATM   17  O   UNL     1       5.830  31.805  59.944  1.00  0.00    -0.309 OA
BRANCH  17  18
HETATM   18  C   UNL     1       4.925  32.719  60.444  1.00  0.00     0.076 A 
HETATM   19  C   UNL     1       4.149  32.295  61.523  1.00  0.00     0.037 A 
HETATM   20  C   UNL     1       3.217  33.162  62.096  1.00  0.00     0.003 A 
HETATM   21  C   UNL     1       3.069  34.456  61.598  1.00  0.00     0.000 A 
HETATM   22  C   UNL     1       3.861  34.890  60.534  1.00  0.00     0.003 A 
HETATM   23  C   UNL     1       4.799  34.027  59.964  1.00  0.00     0.037 A 
ENDBRANCH  17  18
ENDBRANCH  12  17
ENDBRANCH   8  11
ENDBRANCH   6   7
ENDBRANCH   4   6
BRANCH   1  24
HETATM   24  N   UNL     1       4.740  26.904  53.861  1.00  0.00    -0.287 N 
HETATM   25  C   UNL     1       5.166  25.614  53.759  1.00  0.00     0.326 C 
HETATM   26  N   UNL     1       6.429  25.339  54.200  1.00  0.00    -0.306 N 
HETATM   27  O   UNL     1       4.415  24.808  53.209  1.00  0.00    -0.247 OA
HETATM   28  H   UNL     1       7.033  26.139  54.371  1.00  0.00     0.171 HD
HETATM   29  H   UNL     1       3.862  27.104  53.408  1.00  0.00     0.172 HD
BRANCH  26  30
HETATM   30  C   UNL     1       7.074  24.085  54.176  1.00  0.00     0.069 A 
HETATM   31  C   UNL     1       7.460  23.513  55.401  1.00  0.00     0.095 A 
HETATM   32  C   UNL     1       8.066  22.254  55.435  1.00  0.00     0.039 A 
HETATM   33  C   UNL     1       8.314  21.570  54.245  1.00  0.00     0.003 A 
HETATM   34  C   UNL     1       7.950  22.139  53.026  1.00  0.00     0.002 A 
HETATM   35  C   UNL     1       7.333  23.393  52.990  1.00  0.00     0.032 A 
BRANCH  31  36
HETATM   36  O   UNL     1       7.220  24.232  56.548  1.00  0.00    -0.354 OA
HETATM   37  C   UNL     1       8.400  24.396  57.337  1.00  0.00     0.210 C 
ENDBRANCH  31  36
ENDBRANCH  26  30
ENDBRANCH   1  24
TORSDOF 8
ENDMDL
MODEL 10
REMARK VINA RESULT:      -9.4      1.910      3.938
REMARK  8 active torsions:
REMARK  status: ('A' for Active; 'I' for Inactive)
REMARK    1  A    between atoms: O_2  and  C_3 
REMARK    2  A    between atoms: C_4  and  N_5 
REMARK       I    between atoms: N_5  and  C_6 
REMARK       I    between atoms: C_6  and  N_7 
REMARK    3  A    between atoms: N_7  and  C_8 
REMARK    4  A    between atoms: C_11  and  C_12 
REMARK    5  A    between atoms: C_12  and  C_13 
REMARK       I    between atoms: C_13  and  N_14 
REMARK    6  A    between atoms: N_14  and  C_15 
REMARK    7  A    between atoms: C_16  and  O_17 
REMARK    8  A    between atoms: O_17  and  C_18 
ROOT
HETATM    1  C   UNL     1       8.514  30.074  57.675  1.00  0.00     0.174 C 
HETATM    2  S   UNL     1       9.422  28.744  57.120  1.00  0.00    -0.062 SA
HETATM    3  C   UNL     1       7.960  27.897  56.837  1.00  0.00     0.081 C 
HETATM    4  C   UNL     1       6.880  28.678  57.214  1.00  0.00     0.052 C 
HETATM    5  N   UNL     1       7.210  29.971  57.610  1.00  0.00    -0.228 NA
ENDROOT
BRANCH   4   6
HETATM    6  C   UNL     1       5.455  28.235  57.279  1.00  0.00     0.163 C 
BRANCH   6   7
HETATM    7  C   UNL     1       4.859  28.228  55.873  1.00  0.00     0.227 C 
HETATM    8  N   UNL     1       5.425  27.286  55.033  1.00  0.00    -0.324 N 
HETATM    9  H   UNL     1       5.989  26.549  55.443  1.00  0.00     0.169 HD
HETATM   10  O   UNL     1       3.961  29.009  55.563  1.00  0.00    -0.273 OA
BRANCH   8  11
HETATM   11  C   UNL     1       5.304  27.215  53.626  1.00  0.00     0.069 A 
HETATM   12  C   UNL     1       5.232  25.943  53.033  1.00  0.00     0.102 A 
HETATM   13  C   UNL     1       5.228  25.798  51.640  1.00  0.00     0.039 A 
HETATM   14  C   UNL     1       5.244  26.929  50.827  1.00  0.00     0.003 A 
HETATM   15  C   UNL     1       5.276  28.197  51.405  1.00  0.00     0.002 A 
HETATM   16  C   UNL     1       5.310  28.340  52.797  1.00  0.00     0.032 A 
BRANCH  12  17
HETATM   17  O   UNL     1       5.215  24.838  53.861  1.00  0.00    -0.309 OA
BRANCH  17  18
HETATM   18  C   UNL     1       6.405  24.166  54.046  1.00  0.00     0.076 A 
HETATM   19  C   UNL     1       6.895  24.122  55.351  1.00  0.00     0.037 A 
HETATM   20  C   UNL     1       8.089  23.453  55.627  1.00  0.00     0.003 A 
HETATM   21  C   UNL     1       8.785  22.816  54.600  1.00  0.00     0.000 A 
HETATM   22  C   UNL     1       8.284  22.837  53.299  1.00  0.00     0.003 A 
HETATM   23  C   UNL     1       7.087  23.501  53.021  1.00  0.00     0.037 A 
ENDBRANCH  17  18
ENDBRANCH  12  17
ENDBRANCH   8  11
ENDBRANCH   6   7
ENDBRANCH   4   6
BRANCH   1  24
HETATM   24  N   UNL     1       9.269  31.093  58.172  1.00  0.00    -0.287 N 
HETATM   25  C   UNL     1       9.121  31.697  59.385  1.00  0.00     0.326 C 
HETATM   26  N   UNL     1       7.910  31.561  60.003  1.00  0.00    -0.306 N 
HETATM   27  O   UNL     1      10.057  32.381  59.798  1.00  0.00    -0.247 OA
HETATM   28  H   UNL     1       7.147  31.210  59.431  1.00  0.00     0.171 HD
HETATM   29  H   UNL     1      10.120  31.319  57.680  1.00  0.00     0.172 HD
BRANCH  26  30
HETATM   30  C   UNL     1       7.535  32.111  61.246  1.00  0.00     0.069 A 
HETATM   31  C   UNL     1       6.333  32.835  61.316  1.00  0.00     0.095 A 
HETATM   32  C   UNL     1       5.896  33.367  62.533  1.00  0.00     0.039 A 
HETATM   33  C   UNL     1       6.670  33.201  63.682  1.00  0.00     0.003 A 
HETATM   34  C   UNL     1       7.872  32.498  63.616  1.00  0.00     0.002 A 
HETATM   35  C   UNL     1       8.305  31.956  62.402  1.00  0.00     0.032 A 
BRANCH  31  36
HETATM   36  O   UNL     1       5.613  32.997  60.156  1.00  0.00    -0.354 OA
HETATM   37  C   UNL     1       4.253  32.584  60.305  1.00  0.00     0.210 C 
ENDBRANCH  31  36
ENDBRANCH  26  30
ENDBRANCH   1  24
TORSDOF 8
ENDMDL
