MODEL 1
REMARK VINA RESULT:      -8.2      0.000      0.000
REMARK  11 active torsions:
REMARK  status: ('A' for Active; 'I' for Inactive)
REMARK    1  A    between atoms: C_2  and  N_3 
REMARK    2  A    between atoms: N_3  and  C_5 
REMARK    3  A    between atoms: N_3  and  C_32 
REMARK    4  A    between atoms: C_5  and  C_6 
REMARK    5  A    between atoms: N_7  and  C_8 
REMARK    6  A    between atoms: C_12  and  N_13 
REMARK    7  A    between atoms: C_16  and  C_17 
REMARK       I    between atoms: C_17  and  N_18 
REMARK    8  A    between atoms: N_18  and  N_19 
REMARK    9  A    between atoms: C_20  and  C_21 
REMARK   10  A    between atoms: C_25  and  O_26 
REMARK   11  A    between atoms: C_27  and  O_28 
ROOT
HETATM    1  C   UNL     1       5.300  31.727  59.265  1.00  0.00     0.096 A 
HETATM    2  N   UNL     1       4.355  32.298  60.112  1.00  0.00    -0.215 N 
HETATM    3  N   UNL     1       3.115  32.047  59.615  1.00  0.00     0.012 NA
HETATM    4  N   UNL     1       3.220  31.262  58.554  1.00  0.00    -0.152 NA
HETATM    5  C   UNL     1       4.546  31.043  58.320  1.00  0.00     0.170 A 
ENDROOT
BRANCH   5   6
HETATM    6  C   UNL     1       5.054  30.208  57.240  1.00  0.00     0.293 C 
HETATM    7  N   UNL     1       4.940  28.850  57.471  1.00  0.00    -0.242 N 
HETATM    8  H   UNL     1       4.527  28.507  58.336  1.00  0.00     0.192 HD
HETATM    9  O   UNL     1       5.554  30.728  56.245  1.00  0.00    -0.264 OA
BRANCH   7  10
HETATM   10  N   UNL     1       5.357  27.978  56.514  1.00  0.00    -0.184 NA
HETATM   11  C   UNL     1       5.553  26.756  56.893  1.00  0.00     0.150 C 
BRANCH  11  12
HETATM   12  C   UNL     1       5.985  25.722  55.929  1.00  0.00    -0.013 A 
HETATM   13  C   UNL     1       6.895  24.734  56.318  1.00  0.00     0.035 A 
HETATM   14  C   UNL     1       7.301  23.777  55.392  1.00  0.00     0.047 A 
HETATM   15 BR   UNL     1       8.542  22.451  55.933  1.00  0.00    -0.048 Br
HETATM   16  C   UNL     1       6.798  23.803  54.088  1.00  0.00     0.116 A 
HETATM   17  C   UNL     1       5.879  24.789  53.696  1.00  0.00     0.103 A 
HETATM   18  C   UNL     1       5.477  25.755  54.624  1.00  0.00     0.052 A 
BRANCH  16  19
HETATM   19  O   UNL     1       7.189  22.866  53.165  1.00  0.00    -0.357 OA
HETATM   20  H   UNL     1       7.777  23.299  52.521  1.00  0.00     0.218 HD
ENDBRANCH  16  19
BRANCH  17  21
HETATM   21  O   UNL     1       5.448  24.724  52.397  1.00  0.00    -0.353 OA
HETATM   22  C   UNL     1       5.745  25.814  51.538  1.00  0.00     0.210 C 
ENDBRANCH  17  21
ENDBRANCH  11  12
ENDBRANCH   7  10
ENDBRANCH   5   6
BRANCH   1  23
HETATM   23  C   UNL     1       6.769  31.928  59.343  1.00  0.00     0.296 C 
BRANCH  23  24
HETATM   24  N   UNL     1       7.562  30.821  60.016  1.00  0.00    -0.066 N 
HETATM   25  H   UNL     1       6.927  30.013  60.093  1.00  0.00     0.280 HD
BRANCH  24  26
HETATM   26  C   UNL     1       7.961  31.221  61.432  1.00  0.00     0.231 C 
HETATM   27  C   UNL     1       9.461  31.426  61.549  1.00  0.00     0.034 C 
ENDBRANCH  24  26
BRANCH  24  28
HETATM   28  C   UNL     1       8.778  30.400  59.203  1.00  0.00     0.231 C 
HETATM   29  C   UNL     1       8.419  29.304  58.211  1.00  0.00     0.034 C 
ENDBRANCH  24  28
ENDBRANCH  23  24
ENDBRANCH   1  23
BRANCH   2  30
HETATM   30  C   UNL     1       4.563  32.985  61.332  1.00  0.00     0.225 A 
HETATM   31  N   UNL     1       4.686  34.316  61.332  1.00  0.00    -0.081 NA
HETATM   32  O   UNL     1       4.895  34.626  62.679  1.00  0.00    -0.103 OA
HETATM   33  N   UNL     1       4.920  33.480  63.460  1.00  0.00    -0.083 NA
HETATM   34  C   UNL     1       4.717  32.462  62.626  1.00  0.00     0.201 A 
BRANCH  34  35
HETATM   35  N   UNL     1       4.667  31.174  62.995  1.00  0.00    -0.379 N 
HETATM   36  H   UNL     1       5.523  30.631  63.087  1.00  0.00     0.158 HD
HETATM   37  H   UNL     1       3.810  30.626  63.038  1.00  0.00     0.158 HD
ENDBRANCH  34  35
ENDBRANCH   2  30
TORSDOF 11
ENDMDL
MODEL 2
REMARK VINA RESULT:      -8.1      2.207      2.901
REMARK  11 active torsions:
REMARK  status: ('A' for Active; 'I' for Inactive)
REMARK    1  A    between atoms: C_2  and  N_3 
REMARK    2  A    between atoms: N_3  and  C_5 
REMARK    3  A    between atoms: N_3  and  C_32 
REMARK    4  A    between atoms: C_5  and  C_6 
REMARK    5  A    between atoms: N_7  and  C_8 
REMARK    6  A    between atoms: C_12  and  N_13 
REMARK    7  A    between atoms: C_16  and  C_17 
REMARK       I    between atoms: C_17  and  N_18 
REMARK    8  A    between atoms: N_18  and  N_19 
REMARK    9  A    between atoms: C_20  and  C_21 
REMARK   10  A    between atoms: C_25  and  O_26 
REMARK   11  A    between atoms: C_27  and  O_28 
ROOT
HETATM    1  C   UNL     1       5.142  32.574  60.819  1.00  0.00     0.096 A 
HETATM    2  N   UNL     1       4.106  32.977  61.655  1.00  0.00    -0.215 N 
HETATM    3  N   UNL     1       2.956  33.027  60.933  1.00  0.00     0.012 NA
HETATM    4  N   UNL     1       3.190  32.582  59.709  1.00  0.00    -0.152 NA
HETATM    5  C   UNL     1       4.518  32.288  59.611  1.00  0.00     0.170 A 
ENDROOT
BRANCH   5   6
HETATM    6  C   UNL     1       5.147  31.753  58.411  1.00  0.00     0.293 C 
HETATM    7  N   UNL     1       4.901  30.412  58.192  1.00  0.00    -0.242 N 
HETATM    8  H   UNL     1       4.321  29.881  58.838  1.00  0.00     0.192 HD
HETATM    9  O   UNL     1       5.849  32.480  57.710  1.00  0.00    -0.264 OA
BRANCH   7  10
HETATM   10  N   UNL     1       5.417  29.816  57.083  1.00  0.00    -0.184 NA
HETATM   11  C   UNL     1       5.319  28.527  57.022  1.00  0.00     0.150 C 
BRANCH  11  12
HETATM   12  C   UNL     1       5.827  27.781  55.851  1.00  0.00    -0.013 A 
HETATM   13  C   UNL     1       5.505  28.200  54.556  1.00  0.00     0.035 A 
HETATM   14  C   UNL     1       5.982  27.478  53.466  1.00  0.00     0.047 A 
HETATM   15 BR   UNL     1       5.527  28.054  51.719  1.00  0.00    -0.048 Br
HETATM   16  C   UNL     1       6.778  26.347  53.667  1.00  0.00     0.116 A 
HETATM   17  C   UNL     1       7.111  25.928  54.965  1.00  0.00     0.103 A 
HETATM   18  C   UNL     1       6.625  26.649  56.061  1.00  0.00     0.052 A 
BRANCH  16  19
HETATM   19  O   UNL     1       7.255  25.625  52.602  1.00  0.00    -0.357 OA
HETATM   20  H   UNL     1       6.657  25.764  51.847  1.00  0.00     0.218 HD
ENDBRANCH  16  19
BRANCH  17  21
HETATM   21  O   UNL     1       7.897  24.810  55.051  1.00  0.00    -0.353 OA
HETATM   22  C   UNL     1       7.293  23.597  55.477  1.00  0.00     0.210 C 
ENDBRANCH  17  21
ENDBRANCH  11  12
ENDBRANCH   7  10
ENDBRANCH   5   6
BRANCH   1  23
HETATM   23  C   UNL     1       6.586  32.572  61.165  1.00  0.00     0.296 C 
BRANCH  23  24
HETATM   24  N   UNL     1       7.233  31.207  61.332  1.00  0.00    -0.066 N 
HETATM   25  H   UNL     1       6.464  30.525  61.391  1.00  0.00     0.280 HD
BRANCH  24  26
HETATM   26  C   UNL     1       8.010  31.129  62.641  1.00  0.00     0.231 C 
HETATM   27  C   UNL     1       8.130  32.494  63.298  1.00  0.00     0.034 C 
ENDBRANCH  24  26
BRANCH  24  28
HETATM   28  C   UNL     1       8.115  30.834  60.149  1.00  0.00     0.231 C 
HETATM   29  C   UNL     1       8.969  32.014  59.711  1.00  0.00     0.034 C 
ENDBRANCH  24  28
ENDBRANCH  23  24
ENDBRANCH   1  23
BRANCH   2  30
HETATM   30  C   UNL     1       4.146  33.248  63.044  1.00  0.00     0.225 A 
HETATM   31  N   UNL     1       4.778  32.406  63.868  1.00  0.00    -0.081 NA
HETATM   32  O   UNL     1       4.591  32.980  65.130  1.00  0.00    -0.103 OA
HETATM   33  N   UNL     1       3.832  34.137  65.047  1.00  0.00    -0.083 NA
HETATM   34  C   UNL     1       3.553  34.303  63.756  1.00  0.00     0.201 A 
BRANCH  34  35
HETATM   35  N   UNL     1       2.834  35.320  63.256  1.00  0.00    -0.379 N 
HETATM   36  H   UNL     1       2.013  35.661  63.751  1.00  0.00     0.158 HD
HETATM   37  H   UNL     1       2.946  35.689  62.314  1.00  0.00     0.158 HD
ENDBRANCH  34  35
ENDBRANCH   2  30
TORSDOF 11
ENDMDL
MODEL 3
REMARK VINA RESULT:      -8.1      1.228      1.987
REMARK  11 active torsions:
REMARK  status: ('A' for Active; 'I' for Inactive)
REMARK    1  A    between atoms: C_2  and  N_3 
REMARK    2  A    between atoms: N_3  and  C_5 
REMARK    3  A    between atoms: N_3  and  C_32 
REMARK    4  A    between atoms: C_5  and  C_6 
REMARK    5  A    between atoms: N_7  and  C_8 
REMARK    6  A    between atoms: C_12  and  N_13 
REMARK    7  A    between atoms: C_16  and  C_17 
REMARK       I    between atoms: C_17  and  N_18 
REMARK    8  A    between atoms: N_18  and  N_19 
REMARK    9  A    between atoms: C_20  and  C_21 
REMARK   10  A    between atoms: C_25  and  O_26 
REMARK   11  A    between atoms: C_27  and  O_28 
ROOT
HETATM    1  C   UNL     1       5.283  31.875  59.326  1.00  0.00     0.096 A 
HETATM    2  N   UNL     1       4.393  32.479  60.209  1.00  0.00    -0.215 N 
HETATM    3  N   UNL     1       3.126  32.261  59.769  1.00  0.00     0.012 NA
HETATM    4  N   UNL     1       3.162  31.467  58.711  1.00  0.00    -0.152 NA
HETATM    5  C   UNL     1       4.469  31.207  58.420  1.00  0.00     0.170 A 
ENDROOT
BRANCH   5   6
HETATM    6  C   UNL     1       4.904  30.351  57.325  1.00  0.00     0.293 C 
HETATM    7  N   UNL     1       4.746  29.000  57.565  1.00  0.00    -0.242 N 
HETATM    8  H   UNL     1       4.351  28.674  58.444  1.00  0.00     0.192 HD
HETATM    9  O   UNL     1       5.388  30.850  56.312  1.00  0.00    -0.264 OA
BRANCH   7  10
HETATM   10  N   UNL     1       5.092  28.111  56.595  1.00  0.00    -0.184 NA
HETATM   11  C   UNL     1       5.789  27.087  56.974  1.00  0.00     0.150 C 
BRANCH  11  12
HETATM   12  C   UNL     1       6.202  26.049  56.006  1.00  0.00    -0.013 A 
HETATM   13  C   UNL     1       5.547  25.934  54.776  1.00  0.00     0.035 A 
HETATM   14  C   UNL     1       5.940  24.942  53.883  1.00  0.00     0.047 A 
HETATM   15 BR   UNL     1       5.035  24.794  52.224  1.00  0.00    -0.048 Br
HETATM   16  C   UNL     1       6.984  24.073  54.214  1.00  0.00     0.116 A 
HETATM   17  C   UNL     1       7.649  24.189  55.445  1.00  0.00     0.103 A 
HETATM   18  C   UNL     1       7.249  25.182  56.345  1.00  0.00     0.052 A 
BRANCH  16  19
HETATM   19  O   UNL     1       7.382  23.090  53.343  1.00  0.00    -0.357 OA
HETATM   20  H   UNL     1       7.620  22.301  53.861  1.00  0.00     0.218 HD
ENDBRANCH  16  19
BRANCH  17  21
HETATM   21  O   UNL     1       8.658  23.290  55.669  1.00  0.00    -0.353 OA
HETATM   22  C   UNL     1       8.409  22.215  56.563  1.00  0.00     0.210 C 
ENDBRANCH  17  21
ENDBRANCH  11  12
ENDBRANCH   7  10
ENDBRANCH   5   6
BRANCH   1  23
HETATM   23  C   UNL     1       6.759  32.034  59.338  1.00  0.00     0.296 C 
BRANCH  23  24
HETATM   24  N   UNL     1       7.552  30.877  59.921  1.00  0.00    -0.066 N 
HETATM   25  H   UNL     1       6.908  30.074  59.965  1.00  0.00     0.280 HD
BRANCH  24  26
HETATM   26  C   UNL     1       7.993  31.183  61.348  1.00  0.00     0.231 C 
HETATM   27  C   UNL     1       9.354  30.580  61.651  1.00  0.00     0.034 C 
ENDBRANCH  24  26
BRANCH  24  28
HETATM   28  C   UNL     1       8.741  30.490  59.053  1.00  0.00     0.231 C 
HETATM   29  C   UNL     1       8.390  29.334  58.129  1.00  0.00     0.034 C 
ENDBRANCH  24  28
ENDBRANCH  23  24
ENDBRANCH   1  23
BRANCH   2  30
HETATM   30  C   UNL     1       4.674  33.167  61.414  1.00  0.00     0.225 A 
HETATM   31  N   UNL     1       4.831  34.494  61.399  1.00  0.00    -0.081 NA
HETATM   32  O   UNL     1       5.110  34.807  62.734  1.00  0.00    -0.103 OA
HETATM   33  N   UNL     1       5.142  33.664  63.520  1.00  0.00    -0.083 NA
HETATM   34  C   UNL     1       4.875  32.648  62.703  1.00  0.00     0.201 A 
BRANCH  34  35
HETATM   35  N   UNL     1       4.809  31.363  63.082  1.00  0.00    -0.379 N 
HETATM   36  H   UNL     1       4.414  30.662  62.459  1.00  0.00     0.158 HD
HETATM   37  H   UNL     1       4.978  31.039  64.032  1.00  0.00     0.158 HD
ENDBRANCH  34  35
ENDBRANCH   2  30
TORSDOF 11
ENDMDL
MODEL 4
REMARK VINA RESULT:      -8.1      1.980      2.404
REMARK  11 active torsions:
REMARK  status: ('A' for Active; 'I' for Inactive)
REMARK    1  A    between atoms: C_2  and  N_3 
REMARK    2  A    between atoms: N_3  and  C_5 
REMARK    3  A    between atoms: N_3  and  C_32 
REMARK    4  A    between atoms: C_5  and  C_6 
REMARK    5  A    between atoms: N_7  and  C_8 
REMARK    6  A    between atoms: C_12  and  N_13 
REMARK    7  A    between atoms: C_16  and  C_17 
REMARK       I    between atoms: C_17  and  N_18 
REMARK    8  A    between atoms: N_18  and  N_19 
REMARK    9  A    between atoms: C_20  and  C_21 
REMARK   10  A    between atoms: C_25  and  O_26 
REMARK   11  A    between atoms: C_27  and  O_28 
ROOT
HETATM    1  C   UNL     1       5.035  32.678  60.822  1.00  0.00     0.096 A 
HETATM    2  N   UNL     1       3.995  33.032  61.676  1.00  0.00    -0.215 N 
HETATM    3  N   UNL     1       2.829  33.009  60.976  1.00  0.00     0.012 NA
HETATM    4  N   UNL     1       3.064  32.562  59.752  1.00  0.00    -0.152 NA
HETATM    5  C   UNL     1       4.405  32.343  59.631  1.00  0.00     0.170 A 
ENDROOT
BRANCH   5   6
HETATM    6  C   UNL     1       5.039  31.831  58.424  1.00  0.00     0.293 C 
HETATM    7  N   UNL     1       4.822  30.485  58.197  1.00  0.00    -0.242 N 
HETATM    8  H   UNL     1       4.258  29.937  58.843  1.00  0.00     0.192 HD
HETATM    9  O   UNL     1       5.719  32.577  57.724  1.00  0.00    -0.264 OA
BRANCH   7  10
HETATM   10  N   UNL     1       5.345  29.909  57.081  1.00  0.00    -0.184 NA
HETATM   11  C   UNL     1       5.542  28.630  57.130  1.00  0.00     0.150 C 
BRANCH  11  12
HETATM   12  C   UNL     1       6.086  27.900  55.966  1.00  0.00    -0.013 A 
HETATM   13  C   UNL     1       6.644  26.629  56.131  1.00  0.00     0.035 A 
HETATM   14  C   UNL     1       7.163  25.962  55.024  1.00  0.00     0.047 A 
HETATM   15 BR   UNL     1       7.925  24.244  55.267  1.00  0.00    -0.048 Br
HETATM   16  C   UNL     1       7.122  26.560  53.762  1.00  0.00     0.116 A 
HETATM   17  C   UNL     1       6.555  27.833  53.590  1.00  0.00     0.103 A 
HETATM   18  C   UNL     1       6.040  28.506  54.703  1.00  0.00     0.052 A 
BRANCH  16  19
HETATM   19  O   UNL     1       7.630  25.914  52.662  1.00  0.00    -0.357 OA
HETATM   20  H   UNL     1       6.884  25.613  52.113  1.00  0.00     0.218 HD
ENDBRANCH  16  19
BRANCH  17  21
HETATM   21  O   UNL     1       6.563  28.326  52.312  1.00  0.00    -0.353 OA
HETATM   22  C   UNL     1       5.419  29.037  51.863  1.00  0.00     0.210 C 
ENDBRANCH  17  21
ENDBRANCH  11  12
ENDBRANCH   7  10
ENDBRANCH   5   6
BRANCH   1  23
HETATM   23  C   UNL     1       6.483  32.762  61.139  1.00  0.00     0.296 C 
BRANCH  23  24
HETATM   24  N   UNL     1       7.246  31.447  61.141  1.00  0.00    -0.066 N 
HETATM   25  H   UNL     1       6.557  30.711  60.928  1.00  0.00     0.280 HD
BRANCH  24  26
HETATM   26  C   UNL     1       7.815  31.150  62.524  1.00  0.00     0.231 C 
HETATM   27  C   UNL     1       8.126  32.429  63.282  1.00  0.00     0.034 C 
ENDBRANCH  24  26
BRANCH  24  28
HETATM   28  C   UNL     1       8.337  31.406  60.080  1.00  0.00     0.231 C 
HETATM   29  C   UNL     1       8.268  30.117  59.277  1.00  0.00     0.034 C 
ENDBRANCH  24  28
ENDBRANCH  23  24
ENDBRANCH   1  23
BRANCH   2  30
HETATM   30  C   UNL     1       4.047  33.321  63.060  1.00  0.00     0.225 A 
HETATM   31  N   UNL     1       4.682  32.488  63.890  1.00  0.00    -0.081 NA
HETATM   32  O   UNL     1       4.507  33.079  65.145  1.00  0.00    -0.103 OA
HETATM   33  N   UNL     1       3.752  34.238  65.053  1.00  0.00    -0.083 NA
HETATM   34  C   UNL     1       3.464  34.388  63.762  1.00  0.00     0.201 A 
BRANCH  34  35
HETATM   35  N   UNL     1       2.745  35.401  63.255  1.00  0.00    -0.379 N 
HETATM   36  H   UNL     1       2.361  36.116  63.867  1.00  0.00     0.158 HD
HETATM   37  H   UNL     1       2.402  35.433  62.297  1.00  0.00     0.158 HD
ENDBRANCH  34  35
ENDBRANCH   2  30
TORSDOF 11
ENDMDL
MODEL 5
REMARK VINA RESULT:      -7.6      4.355     10.391
REMARK  11 active torsions:
REMARK  status: ('A' for Active; 'I' for Inactive)
REMARK    1  A    between atoms: C_2  and  N_3 
REMARK    2  A    between atoms: N_3  and  C_5 
REMARK    3  A    between atoms: N_3  and  C_32 
REMARK    4  A    between atoms: C_5  and  C_6 
REMARK    5  A    between atoms: N_7  and  C_8 
REMARK    6  A    between atoms: C_12  and  N_13 
REMARK    7  A    between atoms: C_16  and  C_17 
REMARK       I    between atoms: C_17  and  N_18 
REMARK    8  A    between atoms: N_18  and  N_19 
REMARK    9  A    between atoms: C_20  and  C_21 
REMARK   10  A    between atoms: C_25  and  O_26 
REMARK   11  A    between atoms: C_27  and  O_28 
ROOT
HETATM    1  C   UNL     1       7.424  23.848  55.337  1.00  0.00     0.096 A 
HETATM    2  N   UNL     1       8.257  22.739  55.230  1.00  0.00    -0.215 N 
HETATM    3  N   UNL     1       9.059  22.688  56.327  1.00  0.00     0.012 NA
HETATM    4  N   UNL     1       8.709  23.648  57.168  1.00  0.00    -0.152 NA
HETATM    5  C   UNL     1       7.704  24.369  56.593  1.00  0.00     0.170 A 
ENDROOT
BRANCH   5   6
HETATM    6  C   UNL     1       7.047  25.501  57.233  1.00  0.00     0.293 C 
HETATM    7  N   UNL     1       7.890  26.557  57.522  1.00  0.00    -0.242 N 
HETATM    8  H   UNL     1       8.879  26.507  57.287  1.00  0.00     0.192 HD
HETATM    9  O   UNL     1       5.847  25.448  57.491  1.00  0.00    -0.264 OA
BRANCH   7  10
HETATM   10  N   UNL     1       7.375  27.679  58.093  1.00  0.00    -0.184 NA
HETATM   11  C   UNL     1       7.417  28.760  57.382  1.00  0.00     0.150 C 
BRANCH  11  12
HETATM   12  C   UNL     1       6.866  30.030  57.898  1.00  0.00    -0.013 A 
HETATM   13  C   UNL     1       5.723  30.589  57.317  1.00  0.00     0.035 A 
HETATM   14  C   UNL     1       5.226  31.793  57.809  1.00  0.00     0.047 A 
HETATM   15 BR   UNL     1       3.683  32.541  57.003  1.00  0.00    -0.048 Br
HETATM   16  C   UNL     1       5.863  32.432  58.876  1.00  0.00     0.116 A 
HETATM   17  C   UNL     1       7.006  31.871  59.467  1.00  0.00     0.103 A 
HETATM   18  C   UNL     1       7.510  30.665  58.969  1.00  0.00     0.052 A 
BRANCH  16  19
HETATM   19  O   UNL     1       5.385  33.620  59.370  1.00  0.00    -0.357 OA
HETATM   20  H   UNL     1       5.844  34.348  58.916  1.00  0.00     0.218 HD
ENDBRANCH  16  19
BRANCH  17  21
HETATM   21  O   UNL     1       7.552  32.577  60.507  1.00  0.00    -0.353 OA
HETATM   22  C   UNL     1       7.571  31.970  61.790  1.00  0.00     0.210 C 
ENDBRANCH  17  21
ENDBRANCH  11  12
ENDBRANCH   7  10
ENDBRANCH   5   6
BRANCH   1  23
HETATM   23  C   UNL     1       6.532  24.369  54.270  1.00  0.00     0.296 C 
BRANCH  23  24
HETATM   24  N   UNL     1       7.207  25.152  53.156  1.00  0.00    -0.066 N 
HETATM   25  H   UNL     1       8.042  24.612  52.885  1.00  0.00     0.280 HD
BRANCH  24  26
HETATM   26  C   UNL     1       7.688  26.508  53.659  1.00  0.00     0.231 C 
HETATM   27  C   UNL     1       6.526  27.385  54.090  1.00  0.00     0.034 C 
ENDBRANCH  24  26
BRANCH  24  28
HETATM   28  C   UNL     1       6.317  25.307  51.932  1.00  0.00     0.231 C 
HETATM   29  C   UNL     1       4.919  24.772  52.203  1.00  0.00     0.034 C 
ENDBRANCH  24  28
ENDBRANCH  23  24
ENDBRANCH   1  23
BRANCH   2  30
HETATM   30  C   UNL     1       8.288  21.751  54.217  1.00  0.00     0.225 A 
HETATM   31  N   UNL     1       7.941  22.070  52.967  1.00  0.00    -0.081 NA
HETATM   32  O   UNL     1       8.071  20.863  52.272  1.00  0.00    -0.103 OA
HETATM   33  N   UNL     1       8.468  19.838  53.117  1.00  0.00    -0.083 NA
HETATM   34  C   UNL     1       8.599  20.386  54.323  1.00  0.00     0.201 A 
BRANCH  34  35
HETATM   35  N   UNL     1       8.975  19.720  55.426  1.00  0.00    -0.379 N 
HETATM   36  H   UNL     1       8.279  19.400  56.095  1.00  0.00     0.158 HD
HETATM   37  H   UNL     1       9.939  19.642  55.744  1.00  0.00     0.158 HD
ENDBRANCH  34  35
ENDBRANCH   2  30
TORSDOF 11
ENDMDL
MODEL 6
REMARK VINA RESULT:      -7.6      6.716     10.651
REMARK  11 active torsions:
REMARK  status: ('A' for Active; 'I' for Inactive)
REMARK    1  A    between atoms: C_2  and  N_3 
REMARK    2  A    between atoms: N_3  and  C_5 
REMARK    3  A    between atoms: N_3  and  C_32 
REMARK    4  A    between atoms: C_5  and  C_6 
REMARK    5  A    between atoms: N_7  and  C_8 
REMARK    6  A    between atoms: C_12  and  N_13 
REMARK    7  A    between atoms: C_16  and  C_17 
REMARK       I    between atoms: C_17  and  N_18 
REMARK    8  A    between atoms: N_18  and  N_19 
REMARK    9  A    between atoms: C_20  and  C_21 
REMARK   10  A    between atoms: C_25  and  O_26 
REMARK   11  A    between atoms: C_27  and  O_28 
ROOT
HETATM    1  C   UNL     1       2.949  27.853  48.742  1.00  0.00     0.096 A 
HETATM    2  N   UNL     1       2.387  27.514  47.516  1.00  0.00    -0.215 N 
HETATM    3  N   UNL     1       3.191  26.605  46.903  1.00  0.00     0.012 NA
HETATM    4  N   UNL     1       4.179  26.276  47.720  1.00  0.00    -0.152 NA
HETATM    5  C   UNL     1       4.053  27.017  48.858  1.00  0.00     0.170 A 
ENDROOT
BRANCH   5   6
HETATM    6  C   UNL     1       4.953  26.916  49.998  1.00  0.00     0.293 C 
HETATM    7  N   UNL     1       4.856  25.726  50.694  1.00  0.00    -0.242 N 
HETATM    8  H   UNL     1       4.199  25.007  50.397  1.00  0.00     0.192 HD
HETATM    9  O   UNL     1       5.692  27.856  50.282  1.00  0.00    -0.264 OA
BRANCH   7  10
HETATM   10  N   UNL     1       5.673  25.514  51.760  1.00  0.00    -0.184 NA
HETATM   11  C   UNL     1       5.174  24.834  52.743  1.00  0.00     0.150 C 
BRANCH  11  12
HETATM   12  C   UNL     1       5.982  24.528  53.942  1.00  0.00    -0.013 A 
HETATM   13  C   UNL     1       6.906  23.478  53.918  1.00  0.00     0.035 A 
HETATM   14  C   UNL     1       7.649  23.196  55.061  1.00  0.00     0.047 A 
HETATM   15 BR   UNL     1       8.890  21.765  55.014  1.00  0.00    -0.048 Br
HETATM   16  C   UNL     1       7.473  23.959  56.219  1.00  0.00     0.116 A 
HETATM   17  C   UNL     1       6.551  25.019  56.245  1.00  0.00     0.103 A 
HETATM   18  C   UNL     1       5.800  25.297  55.098  1.00  0.00     0.052 A 
BRANCH  16  19
HETATM   19  O   UNL     1       8.198  23.693  57.353  1.00  0.00    -0.357 OA
HETATM   20  H   UNL     1       7.945  22.810  57.676  1.00  0.00     0.218 HD
ENDBRANCH  16  19
BRANCH  17  21
HETATM   21  O   UNL     1       6.458  25.703  57.427  1.00  0.00    -0.353 OA
HETATM   22  C   UNL     1       6.961  27.030  57.473  1.00  0.00     0.210 C 
ENDBRANCH  17  21
ENDBRANCH  11  12
ENDBRANCH   7  10
ENDBRANCH   5   6
BRANCH   1  23
HETATM   23  C   UNL     1       2.488  28.945  49.635  1.00  0.00     0.296 C 
BRANCH  23  24
HETATM   24  N   UNL     1       3.536  29.970  50.037  1.00  0.00    -0.066 N 
HETATM   25  H   UNL     1       4.440  29.475  50.043  1.00  0.00     0.280 HD
BRANCH  24  26
HETATM   26  C   UNL     1       3.287  30.476  51.453  1.00  0.00     0.231 C 
HETATM   27  C   UNL     1       4.000  31.794  51.705  1.00  0.00     0.034 C 
ENDBRANCH  24  26
BRANCH  24  28
HETATM   28  C   UNL     1       3.627  31.125  49.051  1.00  0.00     0.231 C 
HETATM   29  C   UNL     1       4.828  30.965  48.132  1.00  0.00     0.034 C 
ENDBRANCH  24  28
ENDBRANCH  23  24
ENDBRANCH   1  23
BRANCH   2  30
HETATM   30  C   UNL     1       1.162  27.948  46.955  1.00  0.00     0.225 A 
HETATM   31  N   UNL     1       0.088  27.154  47.007  1.00  0.00    -0.081 NA
HETATM   32  O   UNL     1      -0.900  27.894  46.350  1.00  0.00    -0.103 OA
HETATM   33  N   UNL     1      -0.399  29.104  45.892  1.00  0.00    -0.083 NA
HETATM   34  C   UNL     1       0.879  29.137  46.264  1.00  0.00     0.201 A 
BRANCH  34  35
HETATM   35  N   UNL     1       1.719  30.153  46.012  1.00  0.00    -0.379 N 
HETATM   36  H   UNL     1       2.615  29.979  45.562  1.00  0.00     0.158 HD
HETATM   37  H   UNL     1       1.608  31.092  46.387  1.00  0.00     0.158 HD
ENDBRANCH  34  35
ENDBRANCH   2  30
TORSDOF 11
ENDMDL
MODEL 7
REMARK VINA RESULT:      -7.6      4.060     10.360
REMARK  11 active torsions:
REMARK  status: ('A' for Active; 'I' for Inactive)
REMARK    1  A    between atoms: C_2  and  N_3 
REMARK    2  A    between atoms: N_3  and  C_5 
REMARK    3  A    between atoms: N_3  and  C_32 
REMARK    4  A    between atoms: C_5  and  C_6 
REMARK    5  A    between atoms: N_7  and  C_8 
REMARK    6  A    between atoms: C_12  and  N_13 
REMARK    7  A    between atoms: C_16  and  C_17 
REMARK       I    between atoms: C_17  and  N_18 
REMARK    8  A    between atoms: N_18  and  N_19 
REMARK    9  A    between atoms: C_20  and  C_21 
REMARK   10  A    between atoms: C_25  and  O_26 
REMARK   11  A    between atoms: C_27  and  O_28 
ROOT
HETATM    1  C   UNL     1       6.791  30.060  57.844  1.00  0.00     0.096 A 
HETATM    2  N   UNL     1       7.253  28.863  57.304  1.00  0.00    -0.215 N 
HETATM    3  N   UNL     1       8.431  28.541  57.900  1.00  0.00     0.012 NA
HETATM    4  N   UNL     1       8.688  29.417  58.859  1.00  0.00    -0.152 NA
HETATM    5  C   UNL     1       7.697  30.354  58.854  1.00  0.00     0.170 A 
ENDROOT
BRANCH   5   6
HETATM    6  C   UNL     1       7.631  31.472  59.785  1.00  0.00     0.293 C 
HETATM    7  N   UNL     1       6.933  31.203  60.947  1.00  0.00    -0.242 N 
HETATM    8  H   UNL     1       6.519  30.286  61.099  1.00  0.00     0.192 HD
HETATM    9  O   UNL     1       8.149  32.547  59.490  1.00  0.00    -0.264 OA
BRANCH   7  10
HETATM   10  N   UNL     1       6.835  32.169  61.899  1.00  0.00    -0.184 NA
HETATM   11  C   UNL     1       5.711  32.810  61.957  1.00  0.00     0.150 C 
BRANCH  11  12
HETATM   12  C   UNL     1       5.490  33.865  62.968  1.00  0.00    -0.013 A 
HETATM   13  C   UNL     1       5.801  35.197  62.675  1.00  0.00     0.035 A 
HETATM   14  C   UNL     1       5.598  36.175  63.645  1.00  0.00     0.047 A 
HETATM   15 BR   UNL     1       6.035  37.973  63.235  1.00  0.00    -0.048 Br
HETATM   16  C   UNL     1       5.084  35.826  64.897  1.00  0.00     0.116 A 
HETATM   17  C   UNL     1       4.763  34.491  65.192  1.00  0.00     0.103 A 
HETATM   18  C   UNL     1       4.974  33.508  64.220  1.00  0.00     0.052 A 
BRANCH  16  19
HETATM   19  O   UNL     1       4.879  36.779  65.862  1.00  0.00    -0.357 OA
HETATM   20  H   UNL     1       3.958  37.087  65.798  1.00  0.00     0.218 HD
ENDBRANCH  16  19
BRANCH  17  21
HETATM   21  O   UNL     1       4.264  34.258  66.446  1.00  0.00    -0.353 OA
HETATM   22  C   UNL     1       5.187  34.046  67.504  1.00  0.00     0.210 C 
ENDBRANCH  17  21
ENDBRANCH  11  12
ENDBRANCH   7  10
ENDBRANCH   5   6
BRANCH   1  23
HETATM   23  C   UNL     1       5.640  30.851  57.341  1.00  0.00     0.296 C 
BRANCH  23  24
HETATM   24  N   UNL     1       4.304  30.595  58.016  1.00  0.00    -0.066 N 
HETATM   25  H   UNL     1       4.431  29.760  58.607  1.00  0.00     0.280 HD
BRANCH  24  26
HETATM   26  C   UNL     1       3.229  30.261  56.987  1.00  0.00     0.231 C 
HETATM   27  C   UNL     1       3.790  30.272  55.575  1.00  0.00     0.034 C 
ENDBRANCH  24  26
BRANCH  24  28
HETATM   28  C   UNL     1       3.869  31.751  58.905  1.00  0.00     0.231 C 
HETATM   29  C   UNL     1       4.503  33.057  58.450  1.00  0.00     0.034 C 
ENDBRANCH  24  28
ENDBRANCH  23  24
ENDBRANCH   1  23
BRANCH   2  30
HETATM   30  C   UNL     1       6.634  28.032  56.340  1.00  0.00     0.225 A 
HETATM   31  N   UNL     1       5.661  27.194  56.712  1.00  0.00    -0.081 NA
HETATM   32  O   UNL     1       5.319  26.541  55.523  1.00  0.00    -0.103 OA
HETATM   33  N   UNL     1       6.106  26.976  54.468  1.00  0.00    -0.083 NA
HETATM   34  C   UNL     1       6.923  27.897  54.973  1.00  0.00     0.201 A 
BRANCH  34  35
HETATM   35  N   UNL     1       7.845  28.567  54.266  1.00  0.00    -0.379 N 
HETATM   36  H   UNL     1       7.865  29.584  54.280  1.00  0.00     0.158 HD
HETATM   37  H   UNL     1       8.449  28.140  53.566  1.00  0.00     0.158 HD
ENDBRANCH  34  35
ENDBRANCH   2  30
TORSDOF 11
ENDMDL
MODEL 8
REMARK VINA RESULT:      -7.6      3.686      9.824
REMARK  11 active torsions:
REMARK  status: ('A' for Active; 'I' for Inactive)
REMARK    1  A    between atoms: C_2  and  N_3 
REMARK    2  A    between atoms: N_3  and  C_5 
REMARK    3  A    between atoms: N_3  and  C_32 
REMARK    4  A    between atoms: C_5  and  C_6 
REMARK    5  A    between atoms: N_7  and  C_8 
REMARK    6  A    between atoms: C_12  and  N_13 
REMARK    7  A    between atoms: C_16  and  C_17 
REMARK       I    between atoms: C_17  and  N_18 
REMARK    8  A    between atoms: N_18  and  N_19 
REMARK    9  A    between atoms: C_20  and  C_21 
REMARK   10  A    between atoms: C_25  and  O_26 
REMARK   11  A    between atoms: C_27  and  O_28 
ROOT
HETATM    1  C   UNL     1       6.131  29.186  57.366  1.00  0.00     0.096 A 
HETATM    2  N   UNL     1       5.557  28.234  56.529  1.00  0.00    -0.215 N 
HETATM    3  N   UNL     1       4.288  28.621  56.232  1.00  0.00     0.012 NA
HETATM    4  N   UNL     1       4.063  29.816  56.755  1.00  0.00    -0.152 NA
HETATM    5  C   UNL     1       5.176  30.192  57.448  1.00  0.00     0.170 A 
ENDROOT
BRANCH   5   6
HETATM    6  C   UNL     1       5.308  31.462  58.149  1.00  0.00     0.293 C 
HETATM    7  N   UNL     1       4.642  31.514  59.359  1.00  0.00    -0.242 N 
HETATM    8  H   UNL     1       4.119  30.708  59.695  1.00  0.00     0.192 HD
HETATM    9  O   UNL     1       5.948  32.380  57.640  1.00  0.00    -0.264 OA
BRANCH   7  10
HETATM   10  N   UNL     1       4.723  32.645  60.111  1.00  0.00    -0.184 NA
HETATM   11  C   UNL     1       5.102  32.494  61.340  1.00  0.00     0.150 C 
BRANCH  11  12
HETATM   12  C   UNL     1       5.243  33.659  62.239  1.00  0.00    -0.013 A 
HETATM   13  C   UNL     1       5.266  34.954  61.713  1.00  0.00     0.035 A 
HETATM   14  C   UNL     1       5.413  36.038  62.574  1.00  0.00     0.047 A 
HETATM   15 BR   UNL     1       5.452  37.787  61.844  1.00  0.00    -0.048 Br
HETATM   16  C   UNL     1       5.533  35.830  63.951  1.00  0.00     0.116 A 
HETATM   17  C   UNL     1       5.504  34.531  64.484  1.00  0.00     0.103 A 
HETATM   18  C   UNL     1       5.363  33.442  63.618  1.00  0.00     0.052 A 
BRANCH  16  19
HETATM   19  O   UNL     1       5.680  36.889  64.812  1.00  0.00    -0.357 OA
HETATM   20  H   UNL     1       5.376  37.695  64.358  1.00  0.00     0.218 HD
ENDBRANCH  16  19
BRANCH  17  21
HETATM   21  O   UNL     1       5.628  34.438  65.845  1.00  0.00    -0.353 OA
HETATM   22  C   UNL     1       4.490  34.037  66.594  1.00  0.00     0.210 C 
ENDBRANCH  17  21
ENDBRANCH  11  12
ENDBRANCH   7  10
ENDBRANCH   5   6
BRANCH   1  23
HETATM   23  C   UNL     1       7.432  29.052  58.068  1.00  0.00     0.296 C 
BRANCH  23  24
HETATM   24  N   UNL     1       8.563  29.928  57.557  1.00  0.00    -0.066 N 
HETATM   25  H   UNL     1       8.178  30.472  56.770  1.00  0.00     0.280 HD
BRANCH  24  26
HETATM   26  C   UNL     1       9.703  29.079  57.006  1.00  0.00     0.231 C 
HETATM   27  C   UNL     1      11.039  29.788  57.143  1.00  0.00     0.034 C 
ENDBRANCH  24  26
BRANCH  24  28
HETATM   28  C   UNL     1       9.067  30.902  58.612  1.00  0.00     0.231 C 
HETATM   29  C   UNL     1       8.459  30.596  59.972  1.00  0.00     0.034 C 
ENDBRANCH  24  28
ENDBRANCH  23  24
ENDBRANCH   1  23
BRANCH   2  30
HETATM   30  C   UNL     1       6.145  27.067  55.984  1.00  0.00     0.225 A 
HETATM   31  N   UNL     1       7.176  27.174  55.140  1.00  0.00    -0.081 NA
HETATM   32  O   UNL     1       7.465  25.847  54.806  1.00  0.00    -0.103 OA
HETATM   33  N   UNL     1       6.591  24.971  55.431  1.00  0.00    -0.083 NA
HETATM   34  C   UNL     1       5.771  25.725  56.159  1.00  0.00     0.201 A 
BRANCH  34  35
HETATM   35  N   UNL     1       4.775  25.251  56.923  1.00  0.00    -0.379 N 
HETATM   36  H   UNL     1       4.147  25.889  57.404  1.00  0.00     0.158 HD
HETATM   37  H   UNL     1       4.685  24.276  57.202  1.00  0.00     0.158 HD
ENDBRANCH  34  35
ENDBRANCH   2  30
TORSDOF 11
ENDMDL
MODEL 9
REMARK VINA RESULT:      -7.5      2.106      3.610
REMARK  11 active torsions:
REMARK  status: ('A' for Active; 'I' for Inactive)
REMARK    1  A    between atoms: C_2  and  N_3 
REMARK    2  A    between atoms: N_3  and  C_5 
REMARK    3  A    between atoms: N_3  and  C_32 
REMARK    4  A    between atoms: C_5  and  C_6 
REMARK    5  A    between atoms: N_7  and  C_8 
REMARK    6  A    between atoms: C_12  and  N_13 
REMARK    7  A    between atoms: C_16  and  C_17 
REMARK       I    between atoms: C_17  and  N_18 
REMARK    8  A    between atoms: N_18  and  N_19 
REMARK    9  A    between atoms: C_20  and  C_21 
REMARK   10  A    between atoms: C_25  and  O_26 
REMARK   11  A    between atoms: C_27  and  O_28 
ROOT
HETATM    1  C   UNL     1       6.610  30.496  58.226  1.00  0.00     0.096 A 
HETATM    2  N   UNL     1       6.661  31.438  59.249  1.00  0.00    -0.215 N 
HETATM    3  N   UNL     1       7.809  31.255  59.954  1.00  0.00     0.012 NA
HETATM    4  N   UNL     1       8.534  30.313  59.371  1.00  0.00    -0.152 NA
HETATM    5  C   UNL     1       7.829  29.836  58.305  1.00  0.00     0.170 A 
ENDROOT
BRANCH   5   6
HETATM    6  C   UNL     1       8.317  28.797  57.408  1.00  0.00     0.293 C 
HETATM    7  N   UNL     1       7.939  27.516  57.765  1.00  0.00    -0.242 N 
HETATM    8  H   UNL     1       7.366  27.359  58.591  1.00  0.00     0.192 HD
HETATM    9  O   UNL     1       9.023  29.097  56.448  1.00  0.00    -0.264 OA
BRANCH   7  10
HETATM   10  N   UNL     1       8.316  26.472  56.979  1.00  0.00    -0.184 NA
HETATM   11  C   UNL     1       7.426  25.553  56.775  1.00  0.00     0.150 C 
BRANCH  11  12
HETATM   12  C   UNL     1       7.722  24.385  55.919  1.00  0.00    -0.013 A 
HETATM   13  C   UNL     1       8.060  23.157  56.497  1.00  0.00     0.035 A 
HETATM   14  C   UNL     1       8.348  22.072  55.675  1.00  0.00     0.047 A 
HETATM   15 BR   UNL     1       8.814  20.418  56.474  1.00  0.00    -0.048 Br
HETATM   16  C   UNL     1       8.297  22.211  54.285  1.00  0.00     0.116 A 
HETATM   17  C   UNL     1       7.951  23.440  53.701  1.00  0.00     0.103 A 
HETATM   18  C   UNL     1       7.668  24.532  54.527  1.00  0.00     0.052 A 
BRANCH  16  19
HETATM   19  O   UNL     1       8.579  21.150  53.462  1.00  0.00    -0.357 OA
HETATM   20  H   UNL     1       9.052  21.486  52.680  1.00  0.00     0.218 HD
ENDBRANCH  16  19
BRANCH  17  21
HETATM   21  O   UNL     1       7.928  23.468  52.331  1.00  0.00    -0.353 OA
HETATM   22  C   UNL     1       7.564  24.683  51.693  1.00  0.00     0.210 C 
ENDBRANCH  17  21
ENDBRANCH  11  12
ENDBRANCH   7  10
ENDBRANCH   5   6
BRANCH   1  23
HETATM   23  C   UNL     1       5.443  30.232  57.348  1.00  0.00     0.296 C 
BRANCH  23  24
HETATM   24  N   UNL     1       5.629  30.547  55.873  1.00  0.00    -0.066 N 
HETATM   25  H   UNL     1       6.607  30.853  55.762  1.00  0.00     0.280 HD
BRANCH  24  26
HETATM   26  C   UNL     1       4.739  31.710  55.448  1.00  0.00     0.231 C 
HETATM   27  C   UNL     1       3.338  31.574  56.020  1.00  0.00     0.034 C 
ENDBRANCH  24  26
BRANCH  24  28
HETATM   28  C   UNL     1       5.403  29.332  54.986  1.00  0.00     0.231 C 
HETATM   29  C   UNL     1       4.871  28.158  55.793  1.00  0.00     0.034 C 
ENDBRANCH  24  28
ENDBRANCH  23  24
ENDBRANCH   1  23
BRANCH   2  30
HETATM   30  C   UNL     1       5.748  32.480  59.537  1.00  0.00     0.225 A 
HETATM   31  N   UNL     1       5.499  33.418  58.619  1.00  0.00    -0.081 NA
HETATM   32  O   UNL     1       4.587  34.267  59.256  1.00  0.00    -0.103 OA
HETATM   33  N   UNL     1       4.325  33.841  60.549  1.00  0.00    -0.083 NA
HETATM   34  C   UNL     1       5.045  32.735  60.726  1.00  0.00     0.201 A 
BRANCH  34  35
HETATM   35  N   UNL     1       5.065  32.012  61.856  1.00  0.00    -0.379 N 
HETATM   36  H   UNL     1       5.180  31.002  61.817  1.00  0.00     0.158 HD
HETATM   37  H   UNL     1       4.809  32.376  62.771  1.00  0.00     0.158 HD
ENDBRANCH  34  35
ENDBRANCH   2  30
TORSDOF 11
ENDMDL
MODEL 10
REMARK VINA RESULT:      -7.5      6.124      9.769
REMARK  11 active torsions:
REMARK  status: ('A' for Active; 'I' for Inactive)
REMARK    1  A    between atoms: C_2  and  N_3 
REMARK    2  A    between atoms: N_3  and  C_5 
REMARK    3  A    between atoms: N_3  and  C_32 
REMARK    4  A    between atoms: C_5  and  C_6 
REMARK    5  A    between atoms: N_7  and  C_8 
REMARK    6  A    between atoms: C_12  and  N_13 
REMARK    7  A    between atoms: C_16  and  C_17 
REMARK       I    between atoms: C_17  and  N_18 
REMARK    8  A    between atoms: N_18  and  N_19 
REMARK    9  A    between atoms: C_20  and  C_21 
REMARK   10  A    between atoms: C_25  and  O_26 
REMARK   11  A    between atoms: C_27  and  O_28 
ROOT
HETATM    1  C   UNL     1       6.655  24.837  53.917  1.00  0.00     0.096 A 
HETATM    2  N   UNL     1       7.563  23.797  54.093  1.00  0.00    -0.215 N 
HETATM    3  N   UNL     1       8.185  23.557  52.909  1.00  0.00     0.012 NA
HETATM    4  N   UNL     1       7.793  24.455  52.019  1.00  0.00    -0.152 NA
HETATM    5  C   UNL     1       6.862  25.258  52.610  1.00  0.00     0.170 A 
ENDROOT
BRANCH   5   6
HETATM    6  C   UNL     1       6.213  26.377  51.943  1.00  0.00     0.293 C 
HETATM    7  N   UNL     1       5.667  26.065  50.712  1.00  0.00    -0.242 N 
HETATM    8  H   UNL     1       5.733  25.119  50.344  1.00  0.00     0.192 HD
HETATM    9  O   UNL     1       6.209  27.488  52.469  1.00  0.00    -0.264 OA
BRANCH   7  10
HETATM   10  N   UNL     1       5.009  27.030  50.015  1.00  0.00    -0.184 NA
HETATM   11  C   UNL     1       4.310  26.634  49.000  1.00  0.00     0.150 C 
BRANCH  11  12
HETATM   12  C   UNL     1       3.539  27.597  48.186  1.00  0.00    -0.013 A 
HETATM   13  C   UNL     1       2.282  27.247  47.685  1.00  0.00     0.035 A 
HETATM   14  C   UNL     1       1.576  28.163  46.909  1.00  0.00     0.047 A 
HETATM   15 BR   UNL     1      -0.122  27.668  46.230  1.00  0.00    -0.048 Br
HETATM   16  C   UNL     1       2.121  29.421  46.639  1.00  0.00     0.116 A 
HETATM   17  C   UNL     1       3.380  29.780  47.147  1.00  0.00     0.103 A 
HETATM   18  C   UNL     1       4.092  28.857  47.920  1.00  0.00     0.052 A 
BRANCH  16  19
HETATM   19  O   UNL     1       1.437  30.334  45.876  1.00  0.00    -0.357 OA
HETATM   20  H   UNL     1       0.487  30.237  46.063  1.00  0.00     0.218 HD
ENDBRANCH  16  19
BRANCH  17  21
HETATM   21  O   UNL     1       3.821  31.036  46.826  1.00  0.00    -0.353 OA
HETATM   22  C   UNL     1       4.846  31.156  45.851  1.00  0.00     0.210 C 
ENDBRANCH  17  21
ENDBRANCH  11  12
ENDBRANCH   7  10
ENDBRANCH   5   6
BRANCH   1  23
HETATM   23  C   UNL     1       5.644  25.282  54.909  1.00  0.00     0.296 C 
BRANCH  23  24
HETATM   24  N   UNL     1       6.165  26.105  56.075  1.00  0.00    -0.066 N 
HETATM   25  H   UNL     1       6.519  25.432  56.771  1.00  0.00     0.280 HD
BRANCH  24  26
HETATM   26  C   UNL     1       5.037  26.889  56.735  1.00  0.00     0.231 C 
HETATM   27  C   UNL     1       4.590  28.054  55.869  1.00  0.00     0.034 C 
ENDBRANCH  24  26
BRANCH  24  28
HETATM   28  C   UNL     1       7.309  27.025  55.672  1.00  0.00     0.231 C 
HETATM   29  C   UNL     1       8.153  27.407  56.878  1.00  0.00     0.034 C 
ENDBRANCH  24  28
ENDBRANCH  23  24
ENDBRANCH   1  23
BRANCH   2  30
HETATM   30  C   UNL     1       7.886  23.097  55.280  1.00  0.00     0.225 A 
HETATM   31  N   UNL     1       8.212  23.776  56.384  1.00  0.00    -0.081 NA
HETATM   32  O   UNL     1       8.481  22.772  57.320  1.00  0.00    -0.103 OA
HETATM   33  N   UNL     1       8.338  21.512  56.758  1.00  0.00    -0.083 NA
HETATM   34  C   UNL     1       7.972  21.712  55.494  1.00  0.00     0.201 A 
BRANCH  34  35
HETATM   35  N   UNL     1       7.729  20.735  54.607  1.00  0.00    -0.379 N 
HETATM   36  H   UNL     1       8.020  20.835  53.638  1.00  0.00     0.158 HD
HETATM   37  H   UNL     1       7.117  19.941  54.787  1.00  0.00     0.158 HD
ENDBRANCH  34  35
ENDBRANCH   2  30
TORSDOF 11
ENDMDL
