MODEL 1
REMARK VINA RESULT:     -10.3      0.000      0.000
REMARK  6 active torsions:
REMARK  status: ('A' for Active; 'I' for Inactive)
REMARK    1  A    between atoms: C_5  and  C_6 
REMARK    2  A    between atoms: C_12  and  C_13 
REMARK       I    between atoms: C_13  and  N_14 
REMARK    3  A    between atoms: N_14  and  C_15 
REMARK    4  A    between atoms: C_18  and  C_19 
REMARK    5  A    between atoms: C_19  and  O_20 
REMARK    6  A    between atoms: C_25  and  C_26 
ROOT
HETATM    1  C   UNL     1       8.154  25.174  52.689  1.00  0.00     0.118 C 
HETATM    2  N   UNL     1       8.058  26.424  53.471  1.00  0.00    -0.365 N 
HETATM    3  C   UNL     1       6.817  26.942  53.730  1.00  0.00     0.138 A 
HETATM    4  N   UNL     1       5.701  26.471  53.074  1.00  0.00    -0.240 N 
HETATM    5  N   UNL     1       4.555  27.018  53.499  1.00  0.00    -0.181 NA
HETATM    6  C   UNL     1       4.960  27.932  54.384  1.00  0.00     0.160 A 
HETATM    7  C   UNL     1       6.364  27.942  54.574  1.00  0.00     0.096 A 
HETATM    8  C   UNL     1       5.722  25.459  52.031  1.00  0.00     0.221 C 
HETATM    9  C   UNL     1       7.163  25.265  51.519  1.00  0.00     0.066 C 
HETATM   10  H   UNL     1       8.779  27.093  53.192  1.00  0.00     0.161 HD
ENDROOT
BRANCH   7  11
HETATM   11  C   UNL     1       7.088  28.820  55.483  1.00  0.00     0.261 C 
HETATM   12  N   UNL     1       6.313  29.337  56.504  1.00  0.00    -0.323 N 
HETATM   13  H   UNL     1       5.321  29.140  56.436  1.00  0.00     0.169 HD
HETATM   14  O   UNL     1       8.283  29.029  55.312  1.00  0.00    -0.267 OA
BRANCH  12  15
HETATM   15  C   UNL     1       6.748  30.053  57.636  1.00  0.00     0.035 A 
HETATM   16  C   UNL     1       6.205  31.269  58.045  1.00  0.00     0.030 A 
HETATM   17  C   UNL     1       6.732  31.957  59.148  1.00  0.00     0.012 A 
HETATM   18  C   UNL     1       7.818  31.448  59.871  1.00  0.00    -0.030 A 
HETATM   19  C   UNL     1       8.353  30.219  59.454  1.00  0.00     0.012 A 
HETATM   20  C   UNL     1       7.818  29.523  58.361  1.00  0.00     0.030 A 
BRANCH  18  21
HETATM   21  C   UNL     1       8.472  32.207  61.011  1.00  0.00     0.147 C 
HETATM   22  C   UNL     1       8.385  31.550  62.388  1.00  0.00     0.044 C 
BRANCH  21  23
HETATM   23  O   UNL     1       9.855  32.406  60.708  1.00  0.00    -0.391 OA
HETATM   24  H   UNL     1      10.360  31.771  61.242  1.00  0.00     0.210 HD
ENDBRANCH  21  23
ENDBRANCH  18  21
ENDBRANCH  12  15
ENDBRANCH   7  11
BRANCH   1  25
HETATM   25  C   UNL     1       7.957  23.913  53.527  1.00  0.00    -0.035 A 
HETATM   26  C   UNL     1       7.924  22.623  52.975  1.00  0.00     0.010 A 
HETATM   27  C   UNL     1       7.811  21.489  53.788  1.00  0.00     0.007 A 
HETATM   28  C   UNL     1       7.706  21.615  55.174  1.00  0.00    -0.062 A 
HETATM   29  C   UNL     1       7.633  20.405  56.058  1.00  0.00     0.048 C 
HETATM   30  C   UNL     1       7.703  22.895  55.735  1.00  0.00     0.007 A 
HETATM   31  C   UNL     1       7.815  24.027  54.922  1.00  0.00     0.010 A 
ENDBRANCH   1  25
BRANCH   8  32
HETATM   32  C   UNL     1       4.828  25.824  50.865  1.00  0.00     0.409 C 
HETATM   33  F   UNL     1       4.078  26.921  51.118  1.00  0.00    -0.169 F 
HETATM   34  F   UNL     1       5.597  26.130  49.784  1.00  0.00    -0.169 F 
HETATM   35  F   UNL     1       4.009  24.829  50.470  1.00  0.00    -0.169 F 
ENDBRANCH   8  32
TORSDOF 6
ENDMDL
MODEL 2
REMARK VINA RESULT:     -10.0      5.386      8.459
REMARK  6 active torsions:
REMARK  status: ('A' for Active; 'I' for Inactive)
REMARK    1  A    between atoms: C_5  and  C_6 
REMARK    2  A    between atoms: C_12  and  C_13 
REMARK       I    between atoms: C_13  and  N_14 
REMARK    3  A    between atoms: N_14  and  C_15 
REMARK    4  A    between atoms: C_18  and  C_19 
REMARK    5  A    between atoms: C_19  and  O_20 
REMARK    6  A    between atoms: C_25  and  C_26 
ROOT
HETATM    1  C   UNL     1       5.064  28.243  48.459  1.00  0.00     0.118 C 
HETATM    2  N   UNL     1       5.375  27.297  49.550  1.00  0.00    -0.365 N 
HETATM    3  C   UNL     1       4.931  27.584  50.813  1.00  0.00     0.138 A 
HETATM    4  N   UNL     1       4.434  28.830  51.124  1.00  0.00    -0.240 N 
HETATM    5  N   UNL     1       3.963  28.926  52.374  1.00  0.00    -0.181 NA
HETATM    6  C   UNL     1       4.253  27.736  52.905  1.00  0.00     0.160 A 
HETATM    7  C   UNL     1       4.864  26.848  51.984  1.00  0.00     0.096 A 
HETATM    8  C   UNL     1       4.387  29.953  50.203  1.00  0.00     0.221 C 
HETATM    9  C   UNL     1       5.287  29.668  48.984  1.00  0.00     0.066 C 
HETATM   10  H   UNL     1       6.333  26.945  49.475  1.00  0.00     0.161 HD
ENDROOT
BRANCH   7  11
HETATM   11  C   UNL     1       5.280  25.483  52.276  1.00  0.00     0.261 C 
HETATM   12  N   UNL     1       6.461  25.393  52.987  1.00  0.00    -0.323 N 
HETATM   13  H   UNL     1       6.953  26.270  53.122  1.00  0.00     0.169 HD
HETATM   14  O   UNL     1       4.589  24.540  51.909  1.00  0.00    -0.267 OA
BRANCH  12  15
HETATM   15  C   UNL     1       7.023  24.246  53.580  1.00  0.00     0.035 A 
HETATM   16  C   UNL     1       6.940  23.951  54.939  1.00  0.00     0.030 A 
HETATM   17  C   UNL     1       7.580  22.821  55.470  1.00  0.00     0.012 A 
HETATM   18  C   UNL     1       8.320  21.955  54.655  1.00  0.00    -0.030 A 
HETATM   19  C   UNL     1       8.390  22.258  53.286  1.00  0.00     0.012 A 
HETATM   20  C   UNL     1       7.740  23.379  52.753  1.00  0.00     0.030 A 
BRANCH  18  21
HETATM   21  C   UNL     1       9.099  20.775  55.207  1.00  0.00     0.147 C 
HETATM   22  C   UNL     1       8.795  20.391  56.654  1.00  0.00     0.044 C 
BRANCH  21  23
HETATM   23  O   UNL     1       8.853  19.628  54.389  1.00  0.00    -0.391 OA
HETATM   24  H   UNL     1       9.345  19.756  53.561  1.00  0.00     0.210 HD
ENDBRANCH  21  23
ENDBRANCH  18  21
ENDBRANCH  12  15
ENDBRANCH   7  11
BRANCH   1  25
HETATM   25  C   UNL     1       3.672  28.049  47.861  1.00  0.00    -0.035 A 
HETATM   26  C   UNL     1       2.960  26.843  47.952  1.00  0.00     0.010 A 
HETATM   27  C   UNL     1       1.658  26.731  47.450  1.00  0.00     0.007 A 
HETATM   28  C   UNL     1       1.040  27.816  46.826  1.00  0.00    -0.062 A 
HETATM   29  C   UNL     1      -0.372  27.721  46.328  1.00  0.00     0.048 C 
HETATM   30  C   UNL     1       1.750  29.013  46.698  1.00  0.00     0.007 A 
HETATM   31  C   UNL     1       3.051  29.123  47.198  1.00  0.00     0.010 A 
ENDBRANCH   1  25
BRANCH   8  32
HETATM   32  C   UNL     1       4.833  31.244  50.856  1.00  0.00     0.409 C 
HETATM   33  F   UNL     1       6.123  31.541  50.577  1.00  0.00    -0.169 F 
HETATM   34  F   UNL     1       4.091  32.277  50.368  1.00  0.00    -0.169 F 
HETATM   35  F   UNL     1       4.668  31.267  52.194  1.00  0.00    -0.169 F 
ENDBRANCH   8  32
TORSDOF 6
ENDMDL
MODEL 3
REMARK VINA RESULT:      -9.9      3.522      8.299
REMARK  6 active torsions:
REMARK  status: ('A' for Active; 'I' for Inactive)
REMARK    1  A    between atoms: C_5  and  C_6 
REMARK    2  A    between atoms: C_12  and  C_13 
REMARK       I    between atoms: C_13  and  N_14 
REMARK    3  A    between atoms: N_14  and  C_15 
REMARK    4  A    between atoms: C_18  and  C_19 
REMARK    5  A    between atoms: C_19  and  O_20 
REMARK    6  A    between atoms: C_25  and  C_26 
ROOT
HETATM    1  C   UNL     1       5.410  29.139  57.549  1.00  0.00     0.118 C 
HETATM    2  N   UNL     1       5.250  28.134  56.478  1.00  0.00    -0.365 N 
HETATM    3  C   UNL     1       5.051  28.569  55.195  1.00  0.00     0.138 A 
HETATM    4  N   UNL     1       4.748  29.887  54.932  1.00  0.00    -0.240 N 
HETATM    5  N   UNL     1       4.668  30.170  53.626  1.00  0.00    -0.181 NA
HETATM    6  C   UNL     1       4.830  28.981  53.041  1.00  0.00     0.160 A 
HETATM    7  C   UNL     1       5.070  27.933  53.965  1.00  0.00     0.096 A 
HETATM    8  C   UNL     1       4.552  30.907  55.948  1.00  0.00     0.221 C 
HETATM    9  C   UNL     1       4.367  30.244  57.327  1.00  0.00     0.066 C 
HETATM   10  H   UNL     1       4.670  27.351  56.787  1.00  0.00     0.161 HD
ENDROOT
BRANCH   7  11
HETATM   11  C   UNL     1       5.294  26.537  53.619  1.00  0.00     0.261 C 
HETATM   12  N   UNL     1       6.545  26.064  53.965  1.00  0.00    -0.323 N 
HETATM   13  H   UNL     1       7.192  26.764  54.311  1.00  0.00     0.169 HD
HETATM   14  O   UNL     1       4.404  25.887  53.082  1.00  0.00    -0.267 OA
BRANCH  12  15
HETATM   15  C   UNL     1       6.998  24.730  53.940  1.00  0.00     0.035 A 
HETATM   16  C   UNL     1       6.995  23.885  55.048  1.00  0.00     0.030 A 
HETATM   17  C   UNL     1       7.522  22.588  54.964  1.00  0.00     0.012 A 
HETATM   18  C   UNL     1       8.065  22.100  53.769  1.00  0.00    -0.030 A 
HETATM   19  C   UNL     1       8.056  22.958  52.658  1.00  0.00     0.012 A 
HETATM   20  C   UNL     1       7.518  24.249  52.737  1.00  0.00     0.030 A 
BRANCH  18  21
HETATM   21  C   UNL     1       8.725  20.737  53.664  1.00  0.00     0.147 C 
HETATM   22  C   UNL     1       8.714  19.889  54.935  1.00  0.00     0.044 C 
BRANCH  21  23
HETATM   23  O   UNL     1       8.082  19.985  52.632  1.00  0.00    -0.391 OA
HETATM   24  H   UNL     1       7.846  20.610  51.926  1.00  0.00     0.210 HD
ENDBRANCH  21  23
ENDBRANCH  18  21
ENDBRANCH  12  15
ENDBRANCH   7  11
BRANCH   1  25
HETATM   25  C   UNL     1       6.830  29.689  57.664  1.00  0.00    -0.035 A 
HETATM   26  C   UNL     1       7.171  30.766  58.497  1.00  0.00     0.010 A 
HETATM   27  C   UNL     1       8.498  31.193  58.624  1.00  0.00     0.007 A 
HETATM   28  C   UNL     1       9.518  30.567  57.907  1.00  0.00    -0.062 A 
HETATM   29  C   UNL     1      10.949  30.985  58.072  1.00  0.00     0.048 C 
HETATM   30  C   UNL     1       9.190  29.515  57.047  1.00  0.00     0.007 A 
HETATM   31  C   UNL     1       7.864  29.091  56.920  1.00  0.00     0.010 A 
ENDBRANCH   1  25
BRANCH   8  32
HETATM   32  C   UNL     1       3.350  31.780  55.653  1.00  0.00     0.409 C 
HETATM   33  F   UNL     1       3.587  32.657  54.650  1.00  0.00    -0.169 F 
HETATM   34  F   UNL     1       2.315  30.998  55.239  1.00  0.00    -0.169 F 
HETATM   35  F   UNL     1       2.895  32.464  56.721  1.00  0.00    -0.169 F 
ENDBRANCH   8  32
TORSDOF 6
ENDMDL
MODEL 4
REMARK VINA RESULT:      -9.9      4.236      8.221
REMARK  6 active torsions:
REMARK  status: ('A' for Active; 'I' for Inactive)
REMARK    1  A    between atoms: C_5  and  C_6 
REMARK    2  A    between atoms: C_12  and  C_13 
REMARK       I    between atoms: C_13  and  N_14 
REMARK    3  A    between atoms: N_14  and  C_15 
REMARK    4  A    between atoms: C_18  and  C_19 
REMARK    5  A    between atoms: C_19  and  O_20 
REMARK    6  A    between atoms: C_25  and  C_26 
ROOT
HETATM    1  C   UNL     1       5.835  24.830  55.877  1.00  0.00     0.118 C 
HETATM    2  N   UNL     1       5.152  25.746  54.940  1.00  0.00    -0.365 N 
HETATM    3  C   UNL     1       5.845  26.820  54.449  1.00  0.00     0.138 A 
HETATM    4  N   UNL     1       7.052  27.195  54.997  1.00  0.00    -0.240 N 
HETATM    5  N   UNL     1       7.644  28.208  54.352  1.00  0.00    -0.181 NA
HETATM    6  C   UNL     1       6.747  28.551  53.425  1.00  0.00     0.160 A 
HETATM    7  C   UNL     1       5.595  27.725  53.432  1.00  0.00     0.096 A 
HETATM    8  C   UNL     1       7.668  26.560  56.151  1.00  0.00     0.221 C 
HETATM    9  C   UNL     1       6.633  25.679  56.878  1.00  0.00     0.066 C 
HETATM   10  H   UNL     1       4.187  25.923  55.231  1.00  0.00     0.161 HD
ENDROOT
BRANCH   7  11
HETATM   11  C   UNL     1       4.459  27.853  52.530  1.00  0.00     0.261 C 
HETATM   12  N   UNL     1       4.806  27.964  51.197  1.00  0.00    -0.323 N 
HETATM   13  H   UNL     1       5.799  28.057  51.015  1.00  0.00     0.169 HD
HETATM   14  O   UNL     1       3.317  27.841  52.976  1.00  0.00    -0.267 OA
BRANCH  12  15
HETATM   15  C   UNL     1       3.952  27.912  50.079  1.00  0.00     0.035 A 
HETATM   16  C   UNL     1       3.950  26.875  49.147  1.00  0.00     0.030 A 
HETATM   17  C   UNL     1       3.115  26.922  48.021  1.00  0.00     0.012 A 
HETATM   18  C   UNL     1       2.258  28.007  47.797  1.00  0.00    -0.030 A 
HETATM   19  C   UNL     1       2.263  29.041  48.746  1.00  0.00     0.012 A 
HETATM   20  C   UNL     1       3.087  28.990  49.878  1.00  0.00     0.030 A 
BRANCH  18  21
HETATM   21  C   UNL     1       1.407  28.135  46.546  1.00  0.00     0.147 C 
HETATM   22  C   UNL     1      -0.029  27.627  46.659  1.00  0.00     0.044 C 
BRANCH  21  23
HETATM   23  O   UNL     1       1.356  29.508  46.153  1.00  0.00    -0.391 OA
HETATM   24  H   UNL     1       0.959  30.003  46.890  1.00  0.00     0.210 HD
ENDBRANCH  21  23
ENDBRANCH  18  21
ENDBRANCH  12  15
ENDBRANCH   7  11
BRANCH   1  25
HETATM   25  C   UNL     1       6.697  23.778  55.184  1.00  0.00    -0.035 A 
HETATM   26  C   UNL     1       7.409  22.789  55.881  1.00  0.00     0.010 A 
HETATM   27  C   UNL     1       8.131  21.801  55.201  1.00  0.00     0.007 A 
HETATM   28  C   UNL     1       8.177  21.787  53.806  1.00  0.00    -0.062 A 
HETATM   29  C   UNL     1       8.908  20.704  53.068  1.00  0.00     0.048 C 
HETATM   30  C   UNL     1       7.501  22.785  53.100  1.00  0.00     0.007 A 
HETATM   31  C   UNL     1       6.782  23.772  53.779  1.00  0.00     0.010 A 
ENDBRANCH   1  25
BRANCH   8  32
HETATM   32  C   UNL     1       8.228  27.574  57.126  1.00  0.00     0.409 C 
HETATM   33  F   UNL     1       7.584  28.762  57.056  1.00  0.00    -0.169 F 
HETATM   34  F   UNL     1       8.053  27.120  58.398  1.00  0.00    -0.169 F 
HETATM   35  F   UNL     1       9.550  27.794  56.989  1.00  0.00    -0.169 F 
ENDBRANCH   8  32
TORSDOF 6
ENDMDL
MODEL 5
REMARK VINA RESULT:      -9.7      4.789      9.023
REMARK  6 active torsions:
REMARK  status: ('A' for Active; 'I' for Inactive)
REMARK    1  A    between atoms: C_5  and  C_6 
REMARK    2  A    between atoms: C_12  and  C_13 
REMARK       I    between atoms: C_13  and  N_14 
REMARK    3  A    between atoms: N_14  and  C_15 
REMARK    4  A    between atoms: C_18  and  C_19 
REMARK    5  A    between atoms: C_19  and  O_20 
REMARK    6  A    between atoms: C_25  and  C_26 
ROOT
HETATM    1  C   UNL     1       4.918  25.418  54.376  1.00  0.00     0.118 C 
HETATM    2  N   UNL     1       4.424  25.938  53.083  1.00  0.00    -0.365 N 
HETATM    3  C   UNL     1       5.034  27.039  52.544  1.00  0.00     0.138 A 
HETATM    4  N   UNL     1       5.906  27.803  53.288  1.00  0.00    -0.240 N 
HETATM    5  N   UNL     1       6.483  28.792  52.594  1.00  0.00    -0.181 NA
HETATM    6  C   UNL     1       5.892  28.716  51.400  1.00  0.00     0.160 A 
HETATM    7  C   UNL     1       4.970  27.644  51.300  1.00  0.00     0.096 A 
HETATM    8  C   UNL     1       6.215  27.573  54.690  1.00  0.00     0.221 C 
HETATM    9  C   UNL     1       5.177  26.613  55.304  1.00  0.00     0.066 C 
HETATM   10  H   UNL     1       3.403  25.918  53.041  1.00  0.00     0.161 HD
ENDROOT
BRANCH   7  11
HETATM   11  C   UNL     1       4.188  27.309  50.118  1.00  0.00     0.261 C 
HETATM   12  N   UNL     1       3.046  28.072  49.964  1.00  0.00    -0.323 N 
HETATM   13  H   UNL     1       2.828  28.688  50.739  1.00  0.00     0.169 HD
HETATM   14  O   UNL     1       4.572  26.429  49.357  1.00  0.00    -0.267 OA
BRANCH  12  15
HETATM   15  C   UNL     1       2.192  28.125  48.845  1.00  0.00     0.035 A 
HETATM   16  C   UNL     1       1.566  29.286  48.396  1.00  0.00     0.030 A 
HETATM   17  C   UNL     1       0.677  29.251  47.312  1.00  0.00     0.012 A 
HETATM   18  C   UNL     1       0.390  28.053  46.646  1.00  0.00    -0.030 A 
HETATM   19  C   UNL     1       1.032  26.890  47.102  1.00  0.00     0.012 A 
HETATM   20  C   UNL     1       1.930  26.926  48.176  1.00  0.00     0.030 A 
BRANCH  18  21
HETATM   21  C   UNL     1      -0.633  27.960  45.528  1.00  0.00     0.147 C 
HETATM   22  C   UNL     1      -0.927  29.260  44.782  1.00  0.00     0.044 C 
BRANCH  21  23
HETATM   23  O   UNL     1      -0.193  26.995  44.570  1.00  0.00    -0.391 OA
HETATM   24  H   UNL     1      -0.024  27.472  43.740  1.00  0.00     0.210 HD
ENDBRANCH  21  23
ENDBRANCH  18  21
ENDBRANCH  12  15
ENDBRANCH   7  11
BRANCH   1  25
HETATM   25  C   UNL     1       6.134  24.505  54.242  1.00  0.00    -0.035 A 
HETATM   26  C   UNL     1       6.852  24.018  55.346  1.00  0.00     0.010 A 
HETATM   27  C   UNL     1       7.920  23.128  55.180  1.00  0.00     0.007 A 
HETATM   28  C   UNL     1       8.311  22.715  53.906  1.00  0.00    -0.062 A 
HETATM   29  C   UNL     1       9.422  21.724  53.720  1.00  0.00     0.048 C 
HETATM   30  C   UNL     1       7.627  23.218  52.796  1.00  0.00     0.007 A 
HETATM   31  C   UNL     1       6.562  24.109  52.962  1.00  0.00     0.010 A 
ENDBRANCH   1  25
BRANCH   8  32
HETATM   32  C   UNL     1       6.232  28.860  55.487  1.00  0.00     0.409 C 
HETATM   33  F   UNL     1       5.327  29.758  55.031  1.00  0.00    -0.169 F 
HETATM   34  F   UNL     1       5.888  28.596  56.778  1.00  0.00    -0.169 F 
HETATM   35  F   UNL     1       7.439  29.458  55.538  1.00  0.00    -0.169 F 
ENDBRANCH   8  32
TORSDOF 6
ENDMDL
MODEL 6
REMARK VINA RESULT:      -9.6      4.413      8.263
REMARK  6 active torsions:
REMARK  status: ('A' for Active; 'I' for Inactive)
REMARK    1  A    between atoms: C_5  and  C_6 
REMARK    2  A    between atoms: C_12  and  C_13 
REMARK       I    between atoms: C_13  and  N_14 
REMARK    3  A    between atoms: N_14  and  C_15 
REMARK    4  A    between atoms: C_18  and  C_19 
REMARK    5  A    between atoms: C_19  and  O_20 
REMARK    6  A    between atoms: C_25  and  C_26 
ROOT
HETATM    1  C   UNL     1       4.999  30.001  50.660  1.00  0.00     0.118 C 
HETATM    2  N   UNL     1       5.733  29.147  51.618  1.00  0.00    -0.365 N 
HETATM    3  C   UNL     1       5.207  28.965  52.869  1.00  0.00     0.138 A 
HETATM    4  N   UNL     1       4.168  29.746  53.323  1.00  0.00    -0.240 N 
HETATM    5  N   UNL     1       3.711  29.388  54.529  1.00  0.00    -0.181 NA
HETATM    6  C   UNL     1       4.544  28.411  54.897  1.00  0.00     0.160 A 
HETATM    7  C   UNL     1       5.508  28.098  53.906  1.00  0.00     0.096 A 
HETATM    8  C   UNL     1       3.580  30.849  52.581  1.00  0.00     0.221 C 
HETATM    9  C   UNL     1       4.502  31.244  51.411  1.00  0.00     0.066 C 
HETATM   10  H   UNL     1       6.740  29.316  51.569  1.00  0.00     0.161 HD
ENDROOT
BRANCH   7  11
HETATM   11  C   UNL     1       6.535  27.072  54.021  1.00  0.00     0.261 C 
HETATM   12  N   UNL     1       6.040  25.783  54.080  1.00  0.00    -0.323 N 
HETATM   13  H   UNL     1       5.031  25.709  54.151  1.00  0.00     0.169 HD
HETATM   14  O   UNL     1       7.719  27.389  54.043  1.00  0.00    -0.267 OA
BRANCH  12  15
HETATM   15  C   UNL     1       6.766  24.579  54.003  1.00  0.00     0.035 A 
HETATM   16  C   UNL     1       7.198  24.004  52.810  1.00  0.00     0.030 A 
HETATM   17  C   UNL     1       7.861  22.768  52.805  1.00  0.00     0.012 A 
HETATM   18  C   UNL     1       8.112  22.074  53.996  1.00  0.00    -0.030 A 
HETATM   19  C   UNL     1       7.680  22.666  55.193  1.00  0.00     0.012 A 
HETATM   20  C   UNL     1       7.029  23.907  55.199  1.00  0.00     0.030 A 
BRANCH  18  21
HETATM   21  C   UNL     1       8.747  20.695  54.023  1.00  0.00     0.147 C 
HETATM   22  C   UNL     1       8.478  19.860  55.274  1.00  0.00     0.044 C 
BRANCH  21  23
HETATM   23  O   UNL     1       8.290  19.948  52.892  1.00  0.00    -0.391 OA
HETATM   24  H   UNL     1       8.647  20.382  52.099  1.00  0.00     0.210 HD
ENDBRANCH  21  23
ENDBRANCH  18  21
ENDBRANCH  12  15
ENDBRANCH   7  11
BRANCH   1  25
HETATM   25  C   UNL     1       3.876  29.270  49.928  1.00  0.00    -0.035 A 
HETATM   26  C   UNL     1       2.632  29.859  49.649  1.00  0.00     0.010 A 
HETATM   27  C   UNL     1       1.656  29.176  48.914  1.00  0.00     0.007 A 
HETATM   28  C   UNL     1       1.888  27.879  48.455  1.00  0.00    -0.062 A 
HETATM   29  C   UNL     1       0.867  27.157  47.626  1.00  0.00     0.048 C 
HETATM   30  C   UNL     1       3.108  27.267  48.754  1.00  0.00     0.007 A 
HETATM   31  C   UNL     1       4.083  27.949  49.490  1.00  0.00     0.010 A 
ENDBRANCH   1  25
BRANCH   8  32
HETATM   32  C   UNL     1       3.343  32.062  53.456  1.00  0.00     0.409 C 
HETATM   33  F   UNL     1       4.416  32.355  54.227  1.00  0.00    -0.169 F 
HETATM   34  F   UNL     1       3.131  33.152  52.668  1.00  0.00    -0.169 F 
HETATM   35  F   UNL     1       2.260  31.961  54.251  1.00  0.00    -0.169 F 
ENDBRANCH   8  32
TORSDOF 6
ENDMDL
MODEL 7
REMARK VINA RESULT:      -9.5      2.074      3.245
REMARK  6 active torsions:
REMARK  status: ('A' for Active; 'I' for Inactive)
REMARK    1  A    between atoms: C_5  and  C_6 
REMARK    2  A    between atoms: C_12  and  C_13 
REMARK       I    between atoms: C_13  and  N_14 
REMARK    3  A    between atoms: N_14  and  C_15 
REMARK    4  A    between atoms: C_18  and  C_19 
REMARK    5  A    between atoms: C_19  and  O_20 
REMARK    6  A    between atoms: C_25  and  C_26 
ROOT
HETATM    1  C   UNL     1       7.518  27.950  53.765  1.00  0.00     0.118 C 
HETATM    2  N   UNL     1       7.390  28.801  54.967  1.00  0.00    -0.365 N 
HETATM    3  C   UNL     1       6.147  28.985  55.511  1.00  0.00     0.138 A 
HETATM    4  N   UNL     1       5.012  28.609  54.828  1.00  0.00    -0.240 N 
HETATM    5  N   UNL     1       3.883  28.775  55.528  1.00  0.00    -0.181 NA
HETATM    6  C   UNL     1       4.300  29.361  56.653  1.00  0.00     0.160 A 
HETATM    7  C   UNL     1       5.707  29.526  56.707  1.00  0.00     0.096 A 
HETATM    8  C   UNL     1       5.001  28.058  53.483  1.00  0.00     0.221 C 
HETATM    9  C   UNL     1       6.367  28.296  52.810  1.00  0.00     0.066 C 
HETATM   10  H   UNL     1       7.982  29.632  54.897  1.00  0.00     0.161 HD
ENDROOT
BRANCH   7  11
HETATM   11  C   UNL     1       6.446  30.122  57.811  1.00  0.00     0.261 C 
HETATM   12  N   UNL     1       5.794  31.176  58.421  1.00  0.00    -0.323 N 
HETATM   13  H   UNL     1       4.942  31.482  57.964  1.00  0.00     0.169 HD
HETATM   14  O   UNL     1       7.539  29.670  58.132  1.00  0.00    -0.267 OA
BRANCH  12  15
HETATM   15  C   UNL     1       6.149  31.830  59.617  1.00  0.00     0.035 A 
HETATM   16  C   UNL     1       7.463  32.039  60.031  1.00  0.00     0.030 A 
HETATM   17  C   UNL     1       7.740  32.642  61.267  1.00  0.00     0.012 A 
HETATM   18  C   UNL     1       6.710  33.054  62.122  1.00  0.00    -0.030 A 
HETATM   19  C   UNL     1       5.391  32.846  61.691  1.00  0.00     0.012 A 
HETATM   20  C   UNL     1       5.112  32.256  60.451  1.00  0.00     0.030 A 
BRANCH  18  21
HETATM   21  C   UNL     1       6.971  33.627  63.504  1.00  0.00     0.147 C 
HETATM   22  C   UNL     1       5.855  33.437  64.528  1.00  0.00     0.044 C 
BRANCH  21  23
HETATM   23  O   UNL     1       8.160  33.038  64.037  1.00  0.00    -0.391 OA
HETATM   24  H   UNL     1       8.352  32.247  63.506  1.00  0.00     0.210 HD
ENDBRANCH  21  23
ENDBRANCH  18  21
ENDBRANCH  12  15
ENDBRANCH   7  11
BRANCH   1  25
HETATM   25  C   UNL     1       7.590  26.457  54.080  1.00  0.00    -0.035 A 
HETATM   26  C   UNL     1       7.448  25.939  55.377  1.00  0.00     0.010 A 
HETATM   27  C   UNL     1       7.451  24.559  55.610  1.00  0.00     0.007 A 
HETATM   28  C   UNL     1       7.617  23.660  54.556  1.00  0.00    -0.062 A 
HETATM   29  C   UNL     1       7.575  22.178  54.789  1.00  0.00     0.048 C 
HETATM   30  C   UNL     1       7.794  24.161  53.264  1.00  0.00     0.007 A 
HETATM   31  C   UNL     1       7.792  25.540  53.032  1.00  0.00     0.010 A 
ENDBRANCH   1  25
BRANCH   8  32
HETATM   32  C   UNL     1       3.913  28.669  52.626  1.00  0.00     0.409 C 
HETATM   33  F   UNL     1       4.114  28.446  51.306  1.00  0.00    -0.169 F 
HETATM   34  F   UNL     1       2.719  28.091  52.932  1.00  0.00    -0.169 F 
HETATM   35  F   UNL     1       3.745  29.993  52.815  1.00  0.00    -0.169 F 
ENDBRANCH   8  32
TORSDOF 6
ENDMDL
MODEL 8
REMARK VINA RESULT:      -9.5      3.925      6.798
REMARK  6 active torsions:
REMARK  status: ('A' for Active; 'I' for Inactive)
REMARK    1  A    between atoms: C_5  and  C_6 
REMARK    2  A    between atoms: C_12  and  C_13 
REMARK       I    between atoms: C_13  and  N_14 
REMARK    3  A    between atoms: N_14  and  C_15 
REMARK    4  A    between atoms: C_18  and  C_19 
REMARK    5  A    between atoms: C_19  and  O_20 
REMARK    6  A    between atoms: C_25  and  C_26 
ROOT
HETATM    1  C   UNL     1       4.648  29.294  57.109  1.00  0.00     0.118 C 
HETATM    2  N   UNL     1       5.525  30.002  58.065  1.00  0.00    -0.365 N 
HETATM    3  C   UNL     1       6.881  29.922  57.894  1.00  0.00     0.138 A 
HETATM    4  N   UNL     1       7.433  29.010  57.022  1.00  0.00    -0.240 N 
HETATM    5  N   UNL     1       8.763  29.115  56.903  1.00  0.00    -0.181 NA
HETATM    6  C   UNL     1       9.079  30.057  57.795  1.00  0.00     0.160 A 
HETATM    7  C   UNL     1       7.949  30.603  58.454  1.00  0.00     0.096 A 
HETATM    8  C   UNL     1       6.675  28.027  56.267  1.00  0.00     0.221 C 
HETATM    9  C   UNL     1       5.251  27.907  56.844  1.00  0.00     0.066 C 
HETATM   10  H   UNL     1       5.182  29.906  59.024  1.00  0.00     0.161 HD
ENDROOT
BRANCH   7  11
HETATM   11  C   UNL     1       7.985  31.651  59.464  1.00  0.00     0.261 C 
HETATM   12  N   UNL     1       7.041  31.505  60.462  1.00  0.00    -0.323 N 
HETATM   13  H   UNL     1       6.368  30.760  60.316  1.00  0.00     0.169 HD
HETATM   14  O   UNL     1       8.816  32.549  59.387  1.00  0.00    -0.267 OA
BRANCH  12  15
HETATM   15  C   UNL     1       6.941  32.231  61.665  1.00  0.00     0.035 A 
HETATM   16  C   UNL     1       7.855  32.135  62.711  1.00  0.00     0.030 A 
HETATM   17  C   UNL     1       7.657  32.841  63.907  1.00  0.00     0.012 A 
HETATM   18  C   UNL     1       6.538  33.663  64.088  1.00  0.00    -0.030 A 
HETATM   19  C   UNL     1       5.627  33.759  63.024  1.00  0.00     0.012 A 
HETATM   20  C   UNL     1       5.831  33.065  61.824  1.00  0.00     0.030 A 
BRANCH  18  21
HETATM   21  C   UNL     1       6.243  34.371  65.398  1.00  0.00     0.147 C 
HETATM   22  C   UNL     1       4.974  33.930  66.126  1.00  0.00     0.044 C 
BRANCH  21  23
HETATM   23  O   UNL     1       7.346  34.184  66.289  1.00  0.00    -0.391 OA
HETATM   24  H   UNL     1       8.031  33.698  65.799  1.00  0.00     0.210 HD
ENDBRANCH  21  23
ENDBRANCH  18  21
ENDBRANCH  12  15
ENDBRANCH   7  11
BRANCH   1  25
HETATM   25  C   UNL     1       4.390  30.076  55.823  1.00  0.00    -0.035 A 
HETATM   26  C   UNL     1       4.546  31.468  55.727  1.00  0.00     0.010 A 
HETATM   27  C   UNL     1       4.366  32.136  54.510  1.00  0.00     0.007 A 
HETATM   28  C   UNL     1       4.005  31.433  53.360  1.00  0.00    -0.062 A 
HETATM   29  C   UNL     1       3.856  32.132  52.041  1.00  0.00     0.048 C 
HETATM   30  C   UNL     1       3.812  30.051  53.447  1.00  0.00     0.007 A 
HETATM   31  C   UNL     1       3.991  29.385  54.664  1.00  0.00     0.010 A 
ENDBRANCH   1  25
BRANCH   8  32
HETATM   32  C   UNL     1       7.333  26.663  56.286  1.00  0.00     0.409 C 
HETATM   33  F   UNL     1       8.120  26.458  55.204  1.00  0.00    -0.169 F 
HETATM   34  F   UNL     1       8.148  26.570  57.373  1.00  0.00    -0.169 F 
HETATM   35  F   UNL     1       6.465  25.637  56.383  1.00  0.00    -0.169 F 
ENDBRANCH   8  32
TORSDOF 6
ENDMDL
MODEL 9
REMARK VINA RESULT:      -9.3      5.191      8.582
REMARK  6 active torsions:
REMARK  status: ('A' for Active; 'I' for Inactive)
REMARK    1  A    between atoms: C_5  and  C_6 
REMARK    2  A    between atoms: C_12  and  C_13 
REMARK       I    between atoms: C_13  and  N_14 
REMARK    3  A    between atoms: N_14  and  C_15 
REMARK    4  A    between atoms: C_18  and  C_19 
REMARK    5  A    between atoms: C_19  and  O_20 
REMARK    6  A    between atoms: C_25  and  C_26 
ROOT
HETATM    1  C   UNL     1       3.184  30.495  50.252  1.00  0.00     0.118 C 
HETATM    2  N   UNL     1       3.790  29.352  50.967  1.00  0.00    -0.365 N 
HETATM    3  C   UNL     1       4.018  28.193  50.276  1.00  0.00     0.138 A 
HETATM    4  N   UNL     1       3.473  27.993  49.027  1.00  0.00    -0.240 N 
HETATM    5  N   UNL     1       3.859  26.849  48.448  1.00  0.00    -0.181 NA
HETATM    6  C   UNL     1       4.594  26.258  49.392  1.00  0.00     0.160 A 
HETATM    7  C   UNL     1       4.732  27.042  50.565  1.00  0.00     0.096 A 
HETATM    8  C   UNL     1       2.580  28.923  48.357  1.00  0.00     0.221 C 
HETATM    9  C   UNL     1       2.049  29.959  49.368  1.00  0.00     0.066 C 
HETATM   10  H   UNL     1       3.396  29.251  51.906  1.00  0.00     0.161 HD
ENDROOT
BRANCH   7  11
HETATM   11  C   UNL     1       5.485  26.662  51.752  1.00  0.00     0.261 C 
HETATM   12  N   UNL     1       5.433  25.313  52.045  1.00  0.00    -0.323 N 
HETATM   13  H   UNL     1       4.793  24.770  51.475  1.00  0.00     0.169 HD
HETATM   14  O   UNL     1       6.104  27.511  52.383  1.00  0.00    -0.267 OA
BRANCH  12  15
HETATM   15  C   UNL     1       6.194  24.609  52.998  1.00  0.00     0.035 A 
HETATM   16  C   UNL     1       6.022  24.729  54.376  1.00  0.00     0.030 A 
HETATM   17  C   UNL     1       6.861  24.045  55.268  1.00  0.00     0.012 A 
HETATM   18  C   UNL     1       7.895  23.221  54.806  1.00  0.00    -0.030 A 
HETATM   19  C   UNL     1       8.054  23.102  53.416  1.00  0.00     0.012 A 
HETATM   20  C   UNL     1       7.208  23.774  52.524  1.00  0.00     0.030 A 
BRANCH  18  21
HETATM   21  C   UNL     1       8.877  22.537  55.739  1.00  0.00     0.147 C 
HETATM   22  C   UNL     1       8.278  21.535  56.724  1.00  0.00     0.044 C 
BRANCH  21  23
HETATM   23  O   UNL     1       9.861  21.851  54.961  1.00  0.00    -0.391 OA
HETATM   24  H   UNL     1      10.676  21.822  55.490  1.00  0.00     0.210 HD
ENDBRANCH  21  23
ENDBRANCH  18  21
ENDBRANCH  12  15
ENDBRANCH   7  11
BRANCH   1  25
HETATM   25  C   UNL     1       4.195  31.328  49.466  1.00  0.00    -0.035 A 
HETATM   26  C   UNL     1       3.846  32.105  48.350  1.00  0.00     0.010 A 
HETATM   27  C   UNL     1       4.791  32.908  47.701  1.00  0.00     0.007 A 
HETATM   28  C   UNL     1       6.116  32.940  48.139  1.00  0.00    -0.062 A 
HETATM   29  C   UNL     1       7.126  33.834  47.481  1.00  0.00     0.048 C 
HETATM   30  C   UNL     1       6.486  32.147  49.227  1.00  0.00     0.007 A 
HETATM   31  C   UNL     1       5.541  31.344  49.874  1.00  0.00     0.010 A 
ENDBRANCH   1  25
BRANCH   8  32
HETATM   32  C   UNL     1       1.407  28.219  47.708  1.00  0.00     0.409 C 
HETATM   33  F   UNL     1       0.861  27.282  48.516  1.00  0.00    -0.169 F 
HETATM   34  F   UNL     1       0.422  29.124  47.454  1.00  0.00    -0.169 F 
HETATM   35  F   UNL     1       1.700  27.646  46.524  1.00  0.00    -0.169 F 
ENDBRANCH   8  32
TORSDOF 6
ENDMDL
MODEL 10
REMARK VINA RESULT:      -9.3      4.539      7.815
REMARK  6 active torsions:
REMARK  status: ('A' for Active; 'I' for Inactive)
REMARK    1  A    between atoms: C_5  and  C_6 
REMARK    2  A    between atoms: C_12  and  C_13 
REMARK       I    between atoms: C_13  and  N_14 
REMARK    3  A    between atoms: N_14  and  C_15 
REMARK    4  A    between atoms: C_18  and  C_19 
REMARK    5  A    between atoms: C_19  and  O_20 
REMARK    6  A    between atoms: C_25  and  C_26 
ROOT
HETATM    1  C   UNL     1       5.673  24.751  55.464  1.00  0.00     0.118 C 
HETATM    2  N   UNL     1       5.276  25.799  54.500  1.00  0.00    -0.365 N 
HETATM    3  C   UNL     1       6.123  26.855  54.295  1.00  0.00     0.138 A 
HETATM    4  N   UNL     1       7.189  27.083  55.137  1.00  0.00    -0.240 N 
HETATM    5  N   UNL     1       7.969  28.101  54.754  1.00  0.00    -0.181 NA
HETATM    6  C   UNL     1       7.331  28.596  53.691  1.00  0.00     0.160 A 
HETATM    7  C   UNL     1       6.165  27.866  53.351  1.00  0.00     0.096 A 
HETATM    8  C   UNL     1       7.486  26.300  56.325  1.00  0.00     0.221 C 
HETATM    9  C   UNL     1       6.264  25.440  56.703  1.00  0.00     0.066 C 
HETATM   10  H   UNL     1       4.282  26.023  54.585  1.00  0.00     0.161 HD
ENDROOT
BRANCH   7  11
HETATM   11  C   UNL     1       5.276  28.165  52.236  1.00  0.00     0.261 C 
HETATM   12  N   UNL     1       5.701  29.212  51.441  1.00  0.00    -0.323 N 
HETATM   13  H   UNL     1       6.509  29.718  51.787  1.00  0.00     0.169 HD
HETATM   14  O   UNL     1       4.264  27.496  52.063  1.00  0.00    -0.267 OA
BRANCH  12  15
HETATM   15  C   UNL     1       5.176  29.618  50.199  1.00  0.00     0.035 A 
HETATM   16  C   UNL     1       5.324  28.895  49.017  1.00  0.00     0.030 A 
HETATM   17  C   UNL     1       4.828  29.393  47.803  1.00  0.00     0.012 A 
HETATM   18  C   UNL     1       4.169  30.627  47.739  1.00  0.00    -0.030 A 
HETATM   19  C   UNL     1       4.018  31.342  48.937  1.00  0.00     0.012 A 
HETATM   20  C   UNL     1       4.502  30.840  50.152  1.00  0.00     0.030 A 
BRANCH  18  21
HETATM   21  C   UNL     1       3.699  31.238  46.431  1.00  0.00     0.147 C 
HETATM   22  C   UNL     1       4.778  31.471  45.376  1.00  0.00     0.044 C 
BRANCH  21  23
HETATM   23  O   UNL     1       2.697  30.396  45.854  1.00  0.00    -0.391 OA
HETATM   24  H   UNL     1       3.014  30.135  44.974  1.00  0.00     0.210 HD
ENDBRANCH  21  23
ENDBRANCH  18  21
ENDBRANCH  12  15
ENDBRANCH   7  11
BRANCH   1  25
HETATM   25  C   UNL     1       6.612  23.702  54.873  1.00  0.00    -0.035 A 
HETATM   26  C   UNL     1       7.260  22.728  55.650  1.00  0.00     0.010 A 
HETATM   27  C   UNL     1       8.058  21.742  55.058  1.00  0.00     0.007 A 
HETATM   28  C   UNL     1       8.247  21.715  53.675  1.00  0.00    -0.062 A 
HETATM   29  C   UNL     1       9.061  20.634  53.027  1.00  0.00     0.048 C 
HETATM   30  C   UNL     1       7.636  22.698  52.893  1.00  0.00     0.007 A 
HETATM   31  C   UNL     1       6.840  23.683  53.485  1.00  0.00     0.010 A 
ENDBRANCH   1  25
BRANCH   8  32
HETATM   32  C   UNL     1       7.860  27.173  57.504  1.00  0.00     0.409 C 
HETATM   33  F   UNL     1       9.091  27.719  57.367  1.00  0.00    -0.169 F 
HETATM   34  F   UNL     1       6.988  28.216  57.588  1.00  0.00    -0.169 F 
HETATM   35  F   UNL     1       7.802  26.542  58.693  1.00  0.00    -0.169 F 
ENDBRANCH   8  32
TORSDOF 6
ENDMDL
