MODEL 1
REMARK VINA RESULT:     -10.1      0.000      0.000
REMARK  7 active torsions:
REMARK  status: ('A' for Active; 'I' for Inactive)
REMARK    1  A    between atoms: S_2  and  C_3 
REMARK    2  A    between atoms: C_3  and  C_4 
REMARK    3  A    between atoms: C_4  and  C_5 
REMARK    4  A    between atoms: C_5  and  N_6 
REMARK    5  A    between atoms: C_5  and  C_26 
REMARK       I    between atoms: N_6  and  C_7 
REMARK    6  A    between atoms: C_7  and  C_8 
REMARK    7  A    between atoms: C_8  and  N_9 
ROOT
HETATM    1  N   UNL     1       6.155  29.938  58.107  1.00  0.00    -0.348 N 
HETATM    2  C   UNL     1       6.771  29.242  57.082  1.00  0.00     0.236 C 
HETATM    3  O   UNL     1       7.229  29.788  56.084  1.00  0.00    -0.272 OA
HETATM    4  H   UNL     1       6.312  29.505  59.017  1.00  0.00     0.163 HD
ENDROOT
BRANCH   2   5
HETATM    5  C   UNL     1       7.025  27.757  57.351  1.00  0.00     0.239 C 
BRANCH   5   6
HETATM    6  N   UNL     1       6.512  26.854  56.340  1.00  0.00    -0.259 N 
HETATM    7  C   UNL     1       5.364  26.143  56.452  1.00  0.00     0.326 A 
HETATM    8  O   UNL     1       4.510  26.291  57.311  1.00  0.00    -0.247 OA
HETATM    9  N   UNL     1       5.276  25.260  55.410  1.00  0.00    -0.320 N 
HETATM   10  C   UNL     1       6.432  25.313  54.534  1.00  0.00     0.144 A 
HETATM   11  H   UNL     1       4.545  24.563  55.360  1.00  0.00     0.165 HD
HETATM   12  C   UNL     1       7.253  24.031  54.591  1.00  0.00    -0.014 A 
HETATM   13  C   UNL     1       5.973  25.699  53.121  1.00  0.00     0.047 C 
HETATM   14  C   UNL     1       7.192  26.487  55.210  1.00  0.00     0.261 A 
HETATM   15  C   UNL     1       7.823  23.487  53.421  1.00  0.00    -0.049 A 
HETATM   16  C   UNL     1       7.520  23.401  55.824  1.00  0.00     0.011 A 
HETATM   17  C   UNL     1       8.622  22.335  53.507  1.00  0.00     0.007 A 
HETATM   18  C   UNL     1       7.558  24.071  52.055  1.00  0.00     0.039 C 
HETATM   19  C   UNL     1       8.878  21.731  54.736  1.00  0.00     0.001 A 
HETATM   20  C   UNL     1       8.325  22.263  55.894  1.00  0.00     0.001 A 
HETATM   21  C   UNL     1       7.087  25.520  52.095  1.00  0.00     0.008 C 
HETATM   22  O   UNL     1       8.240  26.985  54.821  1.00  0.00    -0.270 OA
ENDBRANCH   5   6
ENDBRANCH   2   5
BRANCH   1  23
HETATM   23  C   UNL     1       6.153  31.402  58.149  1.00  0.00     0.155 C 
BRANCH  23  24
HETATM   24  C   UNL     1       4.921  32.122  57.564  1.00  0.00     0.043 C 
BRANCH  24  25
HETATM   25  C   UNL     1       3.684  31.243  57.391  1.00  0.00     0.076 C 
BRANCH  25  26
HETATM   26  S   UNL     1       3.109  31.351  55.660  1.00  0.00    -0.173 SA
HETATM   27  C   UNL     1       3.809  29.810  55.029  1.00  0.00     0.089 C 
ENDBRANCH  25  26
ENDBRANCH  24  25
ENDBRANCH  23  24
BRANCH  23  28
HETATM   28  C   UNL     1       6.418  31.853  59.563  1.00  0.00     0.128 A 
HETATM   29  N   UNL     1       5.812  32.843  60.189  1.00  0.00    -0.231 NA
HETATM   30  C   UNL     1       6.398  32.923  61.427  1.00  0.00     0.085 A 
HETATM   31  C   UNL     1       7.385  31.955  61.570  1.00  0.00     0.062 A 
HETATM   32  C   UNL     1       6.146  33.808  62.484  1.00  0.00     0.034 A 
HETATM   33  N   UNL     1       7.358  31.271  60.384  1.00  0.00    -0.341 N 
HETATM   34  C   UNL     1       8.166  31.821  62.721  1.00  0.00     0.032 A 
HETATM   35  H   UNL     1       7.956  30.500  60.129  1.00  0.00     0.167 HD
HETATM   36  C   UNL     1       7.907  32.721  63.762  1.00  0.00     0.002 A 
HETATM   37  C   UNL     1       6.913  33.696  63.651  1.00  0.00     0.002 A 
ENDBRANCH  23  28
ENDBRANCH   1  23
TORSDOF 7
ENDMDL
MODEL 2
REMARK VINA RESULT:      -9.4      4.457      9.105
REMARK  7 active torsions:
REMARK  status: ('A' for Active; 'I' for Inactive)
REMARK    1  A    between atoms: S_2  and  C_3 
REMARK    2  A    between atoms: C_3  and  C_4 
REMARK    3  A    between atoms: C_4  and  C_5 
REMARK    4  A    between atoms: C_5  and  N_6 
REMARK    5  A    between atoms: C_5  and  C_26 
REMARK       I    between atoms: N_6  and  C_7 
REMARK    6  A    between atoms: C_7  and  C_8 
REMARK    7  A    between atoms: C_8  and  N_9 
ROOT
HETATM    1  N   UNL     1       5.336  26.467  54.535  1.00  0.00    -0.348 N 
HETATM    2  C   UNL     1       5.117  27.682  53.909  1.00  0.00     0.236 C 
HETATM    3  O   UNL     1       5.903  28.621  53.978  1.00  0.00    -0.272 OA
HETATM    4  H   UNL     1       4.953  25.685  54.006  1.00  0.00     0.163 HD
ENDROOT
BRANCH   2   5
HETATM    5  C   UNL     1       3.922  27.727  52.956  1.00  0.00     0.239 C 
BRANCH   5   6
HETATM    6  N   UNL     1       4.260  27.744  51.547  1.00  0.00    -0.259 N 
HETATM    7  C   UNL     1       5.378  27.191  51.015  1.00  0.00     0.326 A 
HETATM    8  O   UNL     1       6.155  26.449  51.594  1.00  0.00    -0.247 OA
HETATM    9  N   UNL     1       5.475  27.547  49.698  1.00  0.00    -0.320 N 
HETATM   10  C   UNL     1       4.400  28.427  49.276  1.00  0.00     0.144 A 
HETATM   11  H   UNL     1       6.290  27.324  49.142  1.00  0.00     0.165 HD
HETATM   12  C   UNL     1       4.904  29.822  48.931  1.00  0.00    -0.014 A 
HETATM   13  C   UNL     1       3.612  27.750  48.146  1.00  0.00     0.047 C 
HETATM   14  C   UNL     1       3.575  28.446  50.592  1.00  0.00     0.261 A 
HETATM   15  C   UNL     1       4.375  30.529  47.831  1.00  0.00    -0.049 A 
HETATM   16  C   UNL     1       5.860  30.465  49.745  1.00  0.00     0.011 A 
HETATM   17  C   UNL     1       4.815  31.837  47.566  1.00  0.00     0.007 A 
HETATM   18  C   UNL     1       3.379  29.906  46.884  1.00  0.00     0.039 C 
HETATM   19  C   UNL     1       5.756  32.454  48.387  1.00  0.00     0.001 A 
HETATM   20  C   UNL     1       6.280  31.768  49.475  1.00  0.00     0.001 A 
HETATM   21  C   UNL     1       2.638  28.714  47.478  1.00  0.00     0.008 C 
HETATM   22  O   UNL     1       2.507  29.018  50.764  1.00  0.00    -0.270 OA
ENDBRANCH   5   6
ENDBRANCH   2   5
BRANCH   1  23
HETATM   23  C   UNL     1       6.608  26.161  55.196  1.00  0.00     0.155 C 
BRANCH  23  24
HETATM   24  C   UNL     1       6.725  26.505  56.694  1.00  0.00     0.043 C 
BRANCH  24  25
HETATM   25  C   UNL     1       7.999  27.249  57.086  1.00  0.00     0.076 C 
BRANCH  25  26
HETATM   26  S   UNL     1       7.547  28.834  57.877  1.00  0.00    -0.173 SA
HETATM   27  C   UNL     1       5.808  28.909  57.396  1.00  0.00     0.089 C 
ENDBRANCH  25  26
ENDBRANCH  24  25
ENDBRANCH  23  24
BRANCH  23  28
HETATM   28  C   UNL     1       6.953  24.714  54.947  1.00  0.00     0.128 A 
HETATM   29  N   UNL     1       7.119  23.786  55.869  1.00  0.00    -0.231 NA
HETATM   30  C   UNL     1       7.464  22.641  55.195  1.00  0.00     0.085 A 
HETATM   31  C   UNL     1       7.506  22.868  53.825  1.00  0.00     0.062 A 
HETATM   32  C   UNL     1       7.768  21.366  55.690  1.00  0.00     0.034 A 
HETATM   33  N   UNL     1       7.150  24.183  53.692  1.00  0.00    -0.341 N 
HETATM   34  C   UNL     1       7.857  21.885  52.896  1.00  0.00     0.032 A 
HETATM   35  H   UNL     1       7.088  24.698  52.826  1.00  0.00     0.167 HD
HETATM   36  C   UNL     1       8.167  20.620  53.410  1.00  0.00     0.002 A 
HETATM   37  C   UNL     1       8.121  20.360  54.782  1.00  0.00     0.002 A 
ENDBRANCH  23  28
ENDBRANCH   1  23
TORSDOF 7
ENDMDL
MODEL 3
REMARK VINA RESULT:      -9.3      1.700      3.019
REMARK  7 active torsions:
REMARK  status: ('A' for Active; 'I' for Inactive)
REMARK    1  A    between atoms: S_2  and  C_3 
REMARK    2  A    between atoms: C_3  and  C_4 
REMARK    3  A    between atoms: C_4  and  C_5 
REMARK    4  A    between atoms: C_5  and  N_6 
REMARK    5  A    between atoms: C_5  and  C_26 
REMARK       I    between atoms: N_6  and  C_7 
REMARK    6  A    between atoms: C_7  and  C_8 
REMARK    7  A    between atoms: C_8  and  N_9 
ROOT
HETATM    1  N   UNL     1       4.682  30.184  57.498  1.00  0.00    -0.348 N 
HETATM    2  C   UNL     1       4.063  29.757  56.337  1.00  0.00     0.236 C 
HETATM    3  O   UNL     1       3.553  30.526  55.528  1.00  0.00    -0.272 OA
HETATM    4  H   UNL     1       5.464  29.585  57.763  1.00  0.00     0.163 HD
ENDROOT
BRANCH   2   5
HETATM    5  C   UNL     1       4.218  28.270  56.014  1.00  0.00     0.239 C 
BRANCH   5   6
HETATM    6  N   UNL     1       5.581  27.776  56.032  1.00  0.00    -0.259 N 
HETATM    7  C   UNL     1       6.662  28.482  55.619  1.00  0.00     0.326 A 
HETATM    8  O   UNL     1       6.682  29.673  55.356  1.00  0.00    -0.247 OA
HETATM    9  N   UNL     1       7.756  27.659  55.597  1.00  0.00    -0.320 N 
HETATM   10  C   UNL     1       7.436  26.294  55.973  1.00  0.00     0.144 A 
HETATM   11  H   UNL     1       8.645  27.962  55.221  1.00  0.00     0.165 HD
HETATM   12  C   UNL     1       7.600  25.327  54.808  1.00  0.00    -0.014 A 
HETATM   13  C   UNL     1       8.247  25.915  57.220  1.00  0.00     0.047 C 
HETATM   14  C   UNL     1       5.936  26.487  56.325  1.00  0.00     0.261 A 
HETATM   15  C   UNL     1       8.147  24.042  55.009  1.00  0.00    -0.049 A 
HETATM   16  C   UNL     1       7.144  25.668  53.518  1.00  0.00     0.011 A 
HETATM   17  C   UNL     1       8.236  23.147  53.929  1.00  0.00     0.007 A 
HETATM   18  C   UNL     1       8.696  23.606  56.344  1.00  0.00     0.039 C 
HETATM   19  C   UNL     1       7.774  23.503  52.664  1.00  0.00     0.001 A 
HETATM   20  C   UNL     1       7.230  24.764  52.458  1.00  0.00     0.001 A 
HETATM   21  C   UNL     1       8.163  24.421  57.516  1.00  0.00     0.008 C 
HETATM   22  O   UNL     1       5.183  25.627  56.762  1.00  0.00    -0.270 OA
ENDBRANCH   5   6
ENDBRANCH   2   5
BRANCH   1  23
HETATM   23  C   UNL     1       4.918  31.605  57.766  1.00  0.00     0.155 C 
BRANCH  23  24
HETATM   24  C   UNL     1       3.697  32.459  58.163  1.00  0.00     0.043 C 
BRANCH  24  25
HETATM   25  C   UNL     1       3.680  33.869  57.578  1.00  0.00     0.076 C 
BRANCH  25  26
HETATM   26  S   UNL     1       4.704  33.901  56.064  1.00  0.00    -0.173 SA
HETATM   27  C   UNL     1       3.389  34.008  54.831  1.00  0.00     0.089 C 
ENDBRANCH  25  26
ENDBRANCH  24  25
ENDBRANCH  23  24
BRANCH  23  28
HETATM   28  C   UNL     1       6.021  31.735  58.786  1.00  0.00     0.128 A 
HETATM   29  N   UNL     1       7.311  31.819  58.527  1.00  0.00    -0.231 NA
HETATM   30  C   UNL     1       7.939  31.877  59.747  1.00  0.00     0.085 A 
HETATM   31  C   UNL     1       7.012  31.833  60.782  1.00  0.00     0.062 A 
HETATM   32  C   UNL     1       9.304  31.957  60.051  1.00  0.00     0.034 A 
HETATM   33  N   UNL     1       5.801  31.772  60.144  1.00  0.00    -0.341 N 
HETATM   34  C   UNL     1       7.370  31.847  62.131  1.00  0.00     0.032 A 
HETATM   35  H   UNL     1       4.897  31.714  60.589  1.00  0.00     0.167 HD
HETATM   36  C   UNL     1       8.739  31.917  62.416  1.00  0.00     0.002 A 
HETATM   37  C   UNL     1       9.692  31.975  61.396  1.00  0.00     0.002 A 
ENDBRANCH  23  28
ENDBRANCH   1  23
TORSDOF 7
ENDMDL
MODEL 4
REMARK VINA RESULT:      -9.2      2.703      8.788
REMARK  7 active torsions:
REMARK  status: ('A' for Active; 'I' for Inactive)
REMARK    1  A    between atoms: S_2  and  C_3 
REMARK    2  A    between atoms: C_3  and  C_4 
REMARK    3  A    between atoms: C_4  and  C_5 
REMARK    4  A    between atoms: C_5  and  N_6 
REMARK    5  A    between atoms: C_5  and  C_26 
REMARK       I    between atoms: N_6  and  C_7 
REMARK    6  A    between atoms: C_7  and  C_8 
REMARK    7  A    between atoms: C_8  and  N_9 
ROOT
HETATM    1  N   UNL     1       5.887  26.821  54.112  1.00  0.00    -0.348 N 
HETATM    2  C   UNL     1       4.884  27.743  54.356  1.00  0.00     0.236 C 
HETATM    3  O   UNL     1       3.894  27.859  53.642  1.00  0.00    -0.272 OA
HETATM    4  H   UNL     1       6.309  26.472  54.972  1.00  0.00     0.163 HD
ENDROOT
BRANCH   2   5
HETATM    5  C   UNL     1       4.982  28.488  55.689  1.00  0.00     0.239 C 
BRANCH   5   6
HETATM    6  N   UNL     1       6.250  28.352  56.377  1.00  0.00    -0.259 N 
HETATM    7  C   UNL     1       6.502  27.453  57.360  1.00  0.00     0.326 A 
HETATM    8  O   UNL     1       5.784  26.519  57.678  1.00  0.00    -0.247 OA
HETATM    9  N   UNL     1       7.726  27.719  57.912  1.00  0.00    -0.320 N 
HETATM   10  C   UNL     1       8.363  28.883  57.324  1.00  0.00     0.144 A 
HETATM   11  H   UNL     1       8.062  27.228  58.730  1.00  0.00     0.165 HD
HETATM   12  C   UNL     1       8.483  30.032  58.318  1.00  0.00    -0.014 A 
HETATM   13  C   UNL     1       9.696  28.461  56.693  1.00  0.00     0.047 C 
HETATM   14  C   UNL     1       7.309  29.207  56.230  1.00  0.00     0.261 A 
HETATM   15  C   UNL     1       9.641  30.837  58.353  1.00  0.00    -0.049 A 
HETATM   16  C   UNL     1       7.412  30.358  59.175  1.00  0.00     0.011 A 
HETATM   17  C   UNL     1       9.705  31.925  59.240  1.00  0.00     0.007 A 
HETATM   18  C   UNL     1      10.850  30.538  57.501  1.00  0.00     0.039 C 
HETATM   19  C   UNL     1       8.633  32.233  60.074  1.00  0.00     0.001 A 
HETATM   20  C   UNL     1       7.488  31.448  60.043  1.00  0.00     0.001 A 
HETATM   21  C   UNL     1      10.539  29.666  56.290  1.00  0.00     0.008 C 
HETATM   22  O   UNL     1       7.390  30.097  55.393  1.00  0.00    -0.270 OA
ENDBRANCH   5   6
ENDBRANCH   2   5
BRANCH   1  23
HETATM   23  C   UNL     1       5.756  25.801  53.068  1.00  0.00     0.155 C 
BRANCH  23  24
HETATM   24  C   UNL     1       6.180  26.197  51.639  1.00  0.00     0.043 C 
BRANCH  24  25
HETATM   25  C   UNL     1       5.081  26.074  50.586  1.00  0.00     0.076 C 
BRANCH  25  26
HETATM   26  S   UNL     1       4.913  27.668  49.708  1.00  0.00    -0.173 SA
HETATM   27  C   UNL     1       4.641  27.047  48.034  1.00  0.00     0.089 C 
ENDBRANCH  25  26
ENDBRANCH  24  25
ENDBRANCH  23  24
BRANCH  23  28
HETATM   28  C   UNL     1       6.469  24.550  53.514  1.00  0.00     0.128 A 
HETATM   29  N   UNL     1       6.933  23.598  52.727  1.00  0.00    -0.231 NA
HETATM   30  C   UNL     1       7.459  22.642  53.559  1.00  0.00     0.085 A 
HETATM   31  C   UNL     1       7.321  23.015  54.891  1.00  0.00     0.062 A 
HETATM   32  C   UNL     1       8.065  21.417  53.249  1.00  0.00     0.034 A 
HETATM   33  N   UNL     1       6.716  24.242  54.834  1.00  0.00    -0.341 N 
HETATM   34  C   UNL     1       7.744  22.219  55.958  1.00  0.00     0.032 A 
HETATM   35  H   UNL     1       6.448  24.811  55.623  1.00  0.00     0.167 HD
HETATM   36  C   UNL     1       8.337  20.994  55.629  1.00  0.00     0.002 A 
HETATM   37  C   UNL     1       8.500  20.598  54.299  1.00  0.00     0.002 A 
ENDBRANCH  23  28
ENDBRANCH   1  23
TORSDOF 7
ENDMDL
MODEL 5
REMARK VINA RESULT:      -9.0      4.656      9.238
REMARK  7 active torsions:
REMARK  status: ('A' for Active; 'I' for Inactive)
REMARK    1  A    between atoms: S_2  and  C_3 
REMARK    2  A    between atoms: C_3  and  C_4 
REMARK    3  A    between atoms: C_4  and  C_5 
REMARK    4  A    between atoms: C_5  and  N_6 
REMARK    5  A    between atoms: C_5  and  C_26 
REMARK       I    between atoms: N_6  and  C_7 
REMARK    6  A    between atoms: C_7  and  C_8 
REMARK    7  A    between atoms: C_8  and  N_9 
ROOT
HETATM    1  N   UNL     1       5.695  26.025  53.932  1.00  0.00    -0.348 N 
HETATM    2  C   UNL     1       6.163  26.944  53.009  1.00  0.00     0.236 C 
HETATM    3  O   UNL     1       7.118  27.682  53.226  1.00  0.00    -0.272 OA
HETATM    4  H   UNL     1       5.320  25.187  53.487  1.00  0.00     0.163 HD
ENDROOT
BRANCH   2   5
HETATM    5  C   UNL     1       5.540  26.855  51.615  1.00  0.00     0.239 C 
BRANCH   5   6
HETATM    6  N   UNL     1       4.705  27.979  51.243  1.00  0.00    -0.259 N 
HETATM    7  C   UNL     1       3.664  28.444  51.977  1.00  0.00     0.326 A 
HETATM    8  O   UNL     1       3.395  28.120  53.123  1.00  0.00    -0.247 OA
HETATM    9  N   UNL     1       2.985  29.385  51.253  1.00  0.00    -0.320 N 
HETATM   10  C   UNL     1       3.540  29.577  49.925  1.00  0.00     0.144 A 
HETATM   11  H   UNL     1       2.114  29.784  51.578  1.00  0.00     0.165 HD
HETATM   12  C   UNL     1       2.586  29.111  48.833  1.00  0.00    -0.014 A 
HETATM   13  C   UNL     1       3.996  31.035  49.778  1.00  0.00     0.047 C 
HETATM   14  C   UNL     1       4.761  28.624  50.036  1.00  0.00     0.261 A 
HETATM   15  C   UNL     1       2.449  29.842  47.635  1.00  0.00    -0.049 A 
HETATM   16  C   UNL     1       1.872  27.902  48.967  1.00  0.00     0.011 A 
HETATM   17  C   UNL     1       1.605  29.363  46.619  1.00  0.00     0.007 A 
HETATM   18  C   UNL     1       3.142  31.165  47.421  1.00  0.00     0.039 C 
HETATM   19  C   UNL     1       0.914  28.163  46.771  1.00  0.00     0.001 A 
HETATM   20  C   UNL     1       1.045  27.434  47.945  1.00  0.00     0.001 A 
HETATM   21  C   UNL     1       4.345  31.375  48.333  1.00  0.00     0.008 C 
HETATM   22  O   UNL     1       5.618  28.448  49.179  1.00  0.00    -0.270 OA
ENDBRANCH   5   6
ENDBRANCH   2   5
BRANCH   1  23
HETATM   23  C   UNL     1       6.414  25.753  55.179  1.00  0.00     0.155 C 
BRANCH  23  24
HETATM   24  C   UNL     1       5.671  26.046  56.499  1.00  0.00     0.043 C 
BRANCH  24  25
HETATM   25  C   UNL     1       5.930  27.430  57.089  1.00  0.00     0.076 C 
BRANCH  25  26
HETATM   26  S   UNL     1       7.717  27.800  56.988  1.00  0.00    -0.173 SA
HETATM   27  C   UNL     1       7.798  29.157  58.177  1.00  0.00     0.089 C 
ENDBRANCH  25  26
ENDBRANCH  24  25
ENDBRANCH  23  24
BRANCH  23  28
HETATM   28  C   UNL     1       6.924  24.335  55.153  1.00  0.00     0.128 A 
HETATM   29  N   UNL     1       7.335  23.638  56.194  1.00  0.00    -0.231 NA
HETATM   30  C   UNL     1       7.749  22.427  55.699  1.00  0.00     0.085 A 
HETATM   31  C   UNL     1       7.585  22.374  54.320  1.00  0.00     0.062 A 
HETATM   32  C   UNL     1       8.290  21.321  56.369  1.00  0.00     0.034 A 
HETATM   33  N   UNL     1       7.034  23.587  54.002  1.00  0.00    -0.341 N 
HETATM   34  C   UNL     1       7.949  21.270  53.547  1.00  0.00     0.032 A 
HETATM   35  H   UNL     1       6.790  23.904  53.076  1.00  0.00     0.167 HD
HETATM   36  C   UNL     1       8.497  20.178  54.232  1.00  0.00     0.002 A 
HETATM   37  C   UNL     1       8.663  20.199  55.619  1.00  0.00     0.002 A 
ENDBRANCH  23  28
ENDBRANCH   1  23
TORSDOF 7
ENDMDL
MODEL 6
REMARK VINA RESULT:      -8.8      4.948      8.951
REMARK  7 active torsions:
REMARK  status: ('A' for Active; 'I' for Inactive)
REMARK    1  A    between atoms: S_2  and  C_3 
REMARK    2  A    between atoms: C_3  and  C_4 
REMARK    3  A    between atoms: C_4  and  C_5 
REMARK    4  A    between atoms: C_5  and  N_6 
REMARK    5  A    between atoms: C_5  and  C_26 
REMARK       I    between atoms: N_6  and  C_7 
REMARK    6  A    between atoms: C_7  and  C_8 
REMARK    7  A    between atoms: C_8  and  N_9 
ROOT
HETATM    1  N   UNL     1       6.564  28.812  53.372  1.00  0.00    -0.348 N 
HETATM    2  C   UNL     1       5.200  28.838  53.139  1.00  0.00     0.236 C 
HETATM    3  O   UNL     1       4.388  28.259  53.854  1.00  0.00    -0.272 OA
HETATM    4  H   UNL     1       7.021  29.679  53.092  1.00  0.00     0.163 HD
ENDROOT
BRANCH   2   5
HETATM    5  C   UNL     1       4.736  29.796  52.041  1.00  0.00     0.239 C 
BRANCH   5   6
HETATM    6  N   UNL     1       4.819  29.272  50.693  1.00  0.00    -0.259 N 
HETATM    7  C   UNL     1       5.607  29.781  49.714  1.00  0.00     0.326 A 
HETATM    8  O   UNL     1       6.484  30.616  49.863  1.00  0.00    -0.247 OA
HETATM    9  N   UNL     1       5.305  29.169  48.528  1.00  0.00    -0.320 N 
HETATM   10  C   UNL     1       4.227  28.206  48.654  1.00  0.00     0.144 A 
HETATM   11  H   UNL     1       5.707  29.474  47.651  1.00  0.00     0.165 HD
HETATM   12  C   UNL     1       2.977  28.644  47.902  1.00  0.00    -0.014 A 
HETATM   13  C   UNL     1       4.744  26.818  48.251  1.00  0.00     0.047 C 
HETATM   14  C   UNL     1       4.007  28.291  50.189  1.00  0.00     0.261 A 
HETATM   15  C   UNL     1       2.196  27.708  47.193  1.00  0.00    -0.049 A 
HETATM   16  C   UNL     1       2.535  29.982  47.957  1.00  0.00     0.011 A 
HETATM   17  C   UNL     1       1.017  28.126  46.554  1.00  0.00     0.007 A 
HETATM   18  C   UNL     1       2.613  26.265  47.048  1.00  0.00     0.039 C 
HETATM   19  C   UNL     1       0.596  29.452  46.626  1.00  0.00     0.001 A 
HETATM   20  C   UNL     1       1.356  30.380  47.326  1.00  0.00     0.001 A 
HETATM   21  C   UNL     1       3.609  25.810  48.108  1.00  0.00     0.008 C 
HETATM   22  O   UNL     1       3.219  27.620  50.843  1.00  0.00    -0.270 OA
ENDBRANCH   5   6
ENDBRANCH   2   5
BRANCH   1  23
HETATM   23  C   UNL     1       7.125  28.222  54.591  1.00  0.00     0.155 C 
BRANCH  23  24
HETATM   24  C   UNL     1       6.364  28.472  55.909  1.00  0.00     0.043 C 
BRANCH  24  25
HETATM   25  C   UNL     1       6.838  29.686  56.705  1.00  0.00     0.076 C 
BRANCH  25  26
HETATM   26  S   UNL     1       7.989  29.133  58.012  1.00  0.00    -0.173 SA
HETATM   27  C   UNL     1       9.555  29.474  57.179  1.00  0.00     0.089 C 
ENDBRANCH  25  26
ENDBRANCH  24  25
ENDBRANCH  23  24
BRANCH  23  28
HETATM   28  C   UNL     1       7.343  26.748  54.367  1.00  0.00     0.128 A 
HETATM   29  N   UNL     1       7.638  26.173  53.217  1.00  0.00    -0.231 NA
HETATM   30  C   UNL     1       7.699  24.825  53.472  1.00  0.00     0.085 A 
HETATM   31  C   UNL     1       7.441  24.564  54.813  1.00  0.00     0.062 A 
HETATM   32  C   UNL     1       7.960  23.758  52.603  1.00  0.00     0.034 A 
HETATM   33  N   UNL     1       7.246  25.803  55.363  1.00  0.00    -0.341 N 
HETATM   34  C   UNL     1       7.409  23.276  55.350  1.00  0.00     0.032 A 
HETATM   35  H   UNL     1       7.022  25.996  56.328  1.00  0.00     0.167 HD
HETATM   36  C   UNL     1       7.662  22.221  54.464  1.00  0.00     0.002 A 
HETATM   37  C   UNL     1       7.937  22.455  53.114  1.00  0.00     0.002 A 
ENDBRANCH  23  28
ENDBRANCH   1  23
TORSDOF 7
ENDMDL
MODEL 7
REMARK VINA RESULT:      -8.6      5.146     10.253
REMARK  7 active torsions:
REMARK  status: ('A' for Active; 'I' for Inactive)
REMARK    1  A    between atoms: S_2  and  C_3 
REMARK    2  A    between atoms: C_3  and  C_4 
REMARK    3  A    between atoms: C_4  and  C_5 
REMARK    4  A    between atoms: C_5  and  N_6 
REMARK    5  A    between atoms: C_5  and  C_26 
REMARK       I    between atoms: N_6  and  C_7 
REMARK    6  A    between atoms: C_7  and  C_8 
REMARK    7  A    between atoms: C_8  and  N_9 
ROOT
HETATM    1  N   UNL     1       3.539  34.210  59.391  1.00  0.00    -0.348 N 
HETATM    2  C   UNL     1       2.258  34.692  59.593  1.00  0.00     0.236 C 
HETATM    3  O   UNL     1       1.487  34.949  58.675  1.00  0.00    -0.272 OA
HETATM    4  H   UNL     1       3.835  33.576  60.132  1.00  0.00     0.163 HD
ENDROOT
BRANCH   2   5
HETATM    5  C   UNL     1       1.779  34.705  61.046  1.00  0.00     0.239 C 
BRANCH   5   6
HETATM    6  N   UNL     1       2.741  35.210  62.005  1.00  0.00    -0.259 N 
HETATM    7  C   UNL     1       3.472  36.339  61.842  1.00  0.00     0.326 A 
HETATM    8  O   UNL     1       3.304  37.184  60.977  1.00  0.00    -0.247 OA
HETATM    9  N   UNL     1       4.405  36.421  62.840  1.00  0.00    -0.320 N 
HETATM   10  C   UNL     1       4.365  35.280  63.737  1.00  0.00     0.144 A 
HETATM   11  H   UNL     1       5.121  37.136  62.847  1.00  0.00     0.165 HD
HETATM   12  C   UNL     1       5.623  34.428  63.634  1.00  0.00    -0.014 A 
HETATM   13  C   UNL     1       4.056  35.770  65.159  1.00  0.00     0.047 C 
HETATM   14  C   UNL     1       3.143  34.539  63.129  1.00  0.00     0.261 A 
HETATM   15  C   UNL     1       6.208  33.863  64.787  1.00  0.00    -0.049 A 
HETATM   16  C   UNL     1       6.189  34.127  62.378  1.00  0.00     0.011 A 
HETATM   17  C   UNL     1       7.335  33.034  64.661  1.00  0.00     0.007 A 
HETATM   18  C   UNL     1       5.694  34.163  66.174  1.00  0.00     0.039 C 
HETATM   19  C   UNL     1       7.875  32.746  63.410  1.00  0.00     0.001 A 
HETATM   20  C   UNL     1       7.303  33.294  62.269  1.00  0.00     0.001 A 
HETATM   21  C   UNL     1       4.256  34.668  66.193  1.00  0.00     0.008 C 
HETATM   22  O   UNL     1       2.639  33.510  63.557  1.00  0.00    -0.270 OA
ENDBRANCH   5   6
ENDBRANCH   2   5
BRANCH   1  23
HETATM   23  C   UNL     1       4.011  33.816  58.060  1.00  0.00     0.155 C 
BRANCH  23  24
HETATM   24  C   UNL     1       4.534  34.936  57.138  1.00  0.00     0.043 C 
BRANCH  24  25
HETATM   25  C   UNL     1       3.871  35.000  55.764  1.00  0.00     0.076 C 
BRANCH  25  26
HETATM   26  S   UNL     1       5.012  34.306  54.517  1.00  0.00    -0.173 SA
HETATM   27  C   UNL     1       4.220  32.703  54.262  1.00  0.00     0.089 C 
ENDBRANCH  25  26
ENDBRANCH  24  25
ENDBRANCH  23  24
BRANCH  23  28
HETATM   28  C   UNL     1       5.034  32.719  58.209  1.00  0.00     0.128 A 
HETATM   29  N   UNL     1       6.165  32.799  58.882  1.00  0.00    -0.231 NA
HETATM   30  C   UNL     1       6.796  31.592  58.707  1.00  0.00     0.085 A 
HETATM   31  C   UNL     1       6.032  30.747  57.910  1.00  0.00     0.062 A 
HETATM   32  C   UNL     1       8.033  31.147  59.191  1.00  0.00     0.034 A 
HETATM   33  N   UNL     1       4.907  31.476  57.631  1.00  0.00    -0.341 N 
HETATM   34  C   UNL     1       6.441  29.463  57.544  1.00  0.00     0.032 A 
HETATM   35  H   UNL     1       4.132  31.177  57.059  1.00  0.00     0.167 HD
HETATM   36  C   UNL     1       7.685  29.039  58.028  1.00  0.00     0.002 A 
HETATM   37  C   UNL     1       8.468  29.863  58.841  1.00  0.00     0.002 A 
ENDBRANCH  23  28
ENDBRANCH   1  23
TORSDOF 7
ENDMDL
MODEL 8
REMARK VINA RESULT:      -8.6      5.372      9.846
REMARK  7 active torsions:
REMARK  status: ('A' for Active; 'I' for Inactive)
REMARK    1  A    between atoms: S_2  and  C_3 
REMARK    2  A    between atoms: C_3  and  C_4 
REMARK    3  A    between atoms: C_4  and  C_5 
REMARK    4  A    between atoms: C_5  and  N_6 
REMARK    5  A    between atoms: C_5  and  C_26 
REMARK       I    between atoms: N_6  and  C_7 
REMARK    6  A    between atoms: C_7  and  C_8 
REMARK    7  A    between atoms: C_8  and  N_9 
ROOT
HETATM    1  N   UNL     1       5.011  25.896  52.361  1.00  0.00    -0.348 N 
HETATM    2  C   UNL     1       5.206  26.653  51.219  1.00  0.00     0.236 C 
HETATM    3  O   UNL     1       6.064  27.526  51.134  1.00  0.00    -0.272 OA
HETATM    4  H   UNL     1       4.703  24.947  52.148  1.00  0.00     0.163 HD
ENDROOT
BRANCH   2   5
HETATM    5  C   UNL     1       4.413  26.209  49.989  1.00  0.00     0.239 C 
BRANCH   5   6
HETATM    6  N   UNL     1       4.087  27.267  49.054  1.00  0.00    -0.259 N 
HETATM    7  C   UNL     1       4.634  27.403  47.821  1.00  0.00     0.326 A 
HETATM    8  O   UNL     1       5.323  26.575  47.248  1.00  0.00    -0.247 OA
HETATM    9  N   UNL     1       4.245  28.601  47.284  1.00  0.00    -0.320 N 
HETATM   10  C   UNL     1       3.415  29.375  48.188  1.00  0.00     0.144 A 
HETATM   11  H   UNL     1       4.624  28.944  46.412  1.00  0.00     0.165 HD
HETATM   12  C   UNL     1       4.110  30.647  48.657  1.00  0.00    -0.014 A 
HETATM   13  C   UNL     1       2.048  29.616  47.532  1.00  0.00     0.047 C 
HETATM   14  C   UNL     1       3.299  28.348  49.348  1.00  0.00     0.261 A 
HETATM   15  C   UNL     1       3.392  31.853  48.795  1.00  0.00    -0.049 A 
HETATM   16  C   UNL     1       5.470  30.628  49.032  1.00  0.00     0.011 A 
HETATM   17  C   UNL     1       4.042  32.999  49.283  1.00  0.00     0.007 A 
HETATM   18  C   UNL     1       1.946  31.975  48.381  1.00  0.00     0.039 C 
HETATM   19  C   UNL     1       5.385  32.956  49.652  1.00  0.00     0.001 A 
HETATM   20  C   UNL     1       6.099  31.772  49.524  1.00  0.00     0.001 A 
HETATM   21  C   UNL     1       1.221  30.637  48.305  1.00  0.00     0.008 C 
HETATM   22  O   UNL     1       2.642  28.487  50.371  1.00  0.00    -0.270 OA
ENDBRANCH   5   6
ENDBRANCH   2   5
BRANCH   1  23
HETATM   23  C   UNL     1       5.929  25.971  53.500  1.00  0.00     0.155 C 
BRANCH  23  24
HETATM   24  C   UNL     1       5.364  26.521  54.825  1.00  0.00     0.043 C 
BRANCH  24  25
HETATM   25  C   UNL     1       5.738  27.969  55.132  1.00  0.00     0.076 C 
BRANCH  25  26
HETATM   26  S   UNL     1       4.212  28.968  55.253  1.00  0.00    -0.173 SA
HETATM   27  C   UNL     1       4.054  29.461  53.523  1.00  0.00     0.089 C 
ENDBRANCH  25  26
ENDBRANCH  24  25
ENDBRANCH  23  24
BRANCH  23  28
HETATM   28  C   UNL     1       6.567  24.620  53.706  1.00  0.00     0.128 A 
HETATM   29  N   UNL     1       6.977  23.803  52.755  1.00  0.00    -0.231 NA
HETATM   30  C   UNL     1       7.443  22.682  53.396  1.00  0.00     0.085 A 
HETATM   31  C   UNL     1       7.323  22.815  54.774  1.00  0.00     0.062 A 
HETATM   32  C   UNL     1       7.978  21.501  52.864  1.00  0.00     0.034 A 
HETATM   33  N   UNL     1       6.790  24.064  54.945  1.00  0.00    -0.341 N 
HETATM   34  C   UNL     1       7.695  21.814  55.675  1.00  0.00     0.032 A 
HETATM   35  H   UNL     1       6.554  24.494  55.827  1.00  0.00     0.167 HD
HETATM   36  C   UNL     1       8.217  20.637  55.125  1.00  0.00     0.002 A 
HETATM   37  C   UNL     1       8.361  20.482  53.744  1.00  0.00     0.002 A 
ENDBRANCH  23  28
ENDBRANCH   1  23
TORSDOF 7
ENDMDL
MODEL 9
REMARK VINA RESULT:      -8.4      5.066      8.900
REMARK  7 active torsions:
REMARK  status: ('A' for Active; 'I' for Inactive)
REMARK    1  A    between atoms: S_2  and  C_3 
REMARK    2  A    between atoms: C_3  and  C_4 
REMARK    3  A    between atoms: C_4  and  C_5 
REMARK    4  A    between atoms: C_5  and  N_6 
REMARK    5  A    between atoms: C_5  and  C_26 
REMARK       I    between atoms: N_6  and  C_7 
REMARK    6  A    between atoms: C_7  and  C_8 
REMARK    7  A    between atoms: C_8  and  N_9 
ROOT
HETATM    1  N   UNL     1       3.789  28.767  51.714  1.00  0.00    -0.348 N 
HETATM    2  C   UNL     1       3.855  28.613  53.087  1.00  0.00     0.236 C 
HETATM    3  O   UNL     1       3.534  29.496  53.876  1.00  0.00    -0.272 OA
HETATM    4  H   UNL     1       3.561  27.895  51.238  1.00  0.00     0.163 HD
ENDROOT
BRANCH   2   5
HETATM    5  C   UNL     1       4.170  27.199  53.579  1.00  0.00     0.239 C 
BRANCH   5   6
HETATM    6  N   UNL     1       5.524  27.002  54.056  1.00  0.00    -0.259 N 
HETATM    7  C   UNL     1       6.628  27.553  53.495  1.00  0.00     0.326 A 
HETATM    8  O   UNL     1       6.638  28.426  52.642  1.00  0.00    -0.247 OA
HETATM    9  N   UNL     1       7.745  27.017  54.075  1.00  0.00    -0.320 N 
HETATM   10  C   UNL     1       7.429  26.008  55.070  1.00  0.00     0.144 A 
HETATM   11  H   UNL     1       8.675  27.217  53.730  1.00  0.00     0.165 HD
HETATM   12  C   UNL     1       7.881  24.619  54.640  1.00  0.00    -0.014 A 
HETATM   13  C   UNL     1       7.985  26.454  56.429  1.00  0.00     0.047 C 
HETATM   14  C   UNL     1       5.880  26.120  55.041  1.00  0.00     0.261 A 
HETATM   15  C   UNL     1       8.442  23.722  55.573  1.00  0.00    -0.049 A 
HETATM   16  C   UNL     1       7.682  24.174  53.317  1.00  0.00     0.011 A 
HETATM   17  C   UNL     1       8.800  22.426  55.165  1.00  0.00     0.007 A 
HETATM   18  C   UNL     1       8.728  24.125  56.999  1.00  0.00     0.039 C 
HETATM   19  C   UNL     1       8.590  22.006  53.854  1.00  0.00     0.001 A 
HETATM   20  C   UNL     1       8.033  22.880  52.929  1.00  0.00     0.001 A 
HETATM   21  C   UNL     1       7.922  25.333  57.461  1.00  0.00     0.008 C 
HETATM   22  O   UNL     1       5.100  25.502  55.754  1.00  0.00    -0.270 OA
ENDBRANCH   5   6
ENDBRANCH   2   5
BRANCH   1  23
HETATM   23  C   UNL     1       3.173  29.947  51.101  1.00  0.00     0.155 C 
BRANCH  23  24
HETATM   24  C   UNL     1       4.091  31.151  50.811  1.00  0.00     0.043 C 
BRANCH  24  25
HETATM   25  C   UNL     1       3.966  32.308  51.800  1.00  0.00     0.076 C 
BRANCH  25  26
HETATM   26  S   UNL     1       2.776  33.530  51.145  1.00  0.00    -0.173 SA
HETATM   27  C   UNL     1       1.373  33.171  52.225  1.00  0.00     0.089 C 
ENDBRANCH  25  26
ENDBRANCH  24  25
ENDBRANCH  23  24
BRANCH  23  28
HETATM   28  C   UNL     1       2.432  29.523  49.858  1.00  0.00     0.128 A 
HETATM   29  N   UNL     1       1.866  30.327  48.980  1.00  0.00    -0.231 NA
HETATM   30  C   UNL     1       1.275  29.512  48.047  1.00  0.00     0.085 A 
HETATM   31  C   UNL     1       1.487  28.173  48.354  1.00  0.00     0.062 A 
HETATM   32  C   UNL     1       0.528  29.845  46.909  1.00  0.00     0.034 A 
HETATM   33  N   UNL     1       2.247  28.208  49.492  1.00  0.00    -0.341 N 
HETATM   34  C   UNL     1       0.975  27.122  47.592  1.00  0.00     0.032 A 
HETATM   35  H   UNL     1       2.581  27.408  50.010  1.00  0.00     0.167 HD
HETATM   36  C   UNL     1       0.222  27.473  46.464  1.00  0.00     0.002 A 
HETATM   37  C   UNL     1       0.003  28.811  46.124  1.00  0.00     0.002 A 
ENDBRANCH  23  28
ENDBRANCH   1  23
TORSDOF 7
ENDMDL
MODEL 10
REMARK VINA RESULT:      -8.4      5.110      8.706
REMARK  7 active torsions:
REMARK  status: ('A' for Active; 'I' for Inactive)
REMARK    1  A    between atoms: S_2  and  C_3 
REMARK    2  A    between atoms: C_3  and  C_4 
REMARK    3  A    between atoms: C_4  and  C_5 
REMARK    4  A    between atoms: C_5  and  N_6 
REMARK    5  A    between atoms: C_5  and  C_26 
REMARK       I    between atoms: N_6  and  C_7 
REMARK    6  A    between atoms: C_7  and  C_8 
REMARK    7  A    between atoms: C_8  and  N_9 
ROOT
HETATM    1  N   UNL     1       3.519  30.176  53.509  1.00  0.00    -0.348 N 
HETATM    2  C   UNL     1       3.708  31.357  52.813  1.00  0.00     0.236 C 
HETATM    3  O   UNL     1       4.562  32.183  53.118  1.00  0.00    -0.272 OA
HETATM    4  H   UNL     1       3.215  29.414  52.902  1.00  0.00     0.163 HD
ENDROOT
BRANCH   2   5
HETATM    5  C   UNL     1       2.914  31.492  51.512  1.00  0.00     0.239 C 
BRANCH   5   6
HETATM    6  N   UNL     1       3.471  30.783  50.377  1.00  0.00    -0.259 N 
HETATM    7  C   UNL     1       3.982  31.377  49.272  1.00  0.00     0.326 A 
HETATM    8  O   UNL     1       4.220  32.567  49.143  1.00  0.00    -0.247 OA
HETATM    9  N   UNL     1       4.247  30.423  48.327  1.00  0.00    -0.320 N 
HETATM   10  C   UNL     1       3.874  29.089  48.762  1.00  0.00     0.144 A 
HETATM   11  H   UNL     1       4.538  30.664  47.389  1.00  0.00     0.165 HD
HETATM   12  C   UNL     1       2.717  28.525  47.947  1.00  0.00    -0.014 A 
HETATM   13  C   UNL     1       5.123  28.197  48.774  1.00  0.00     0.047 C 
HETATM   14  C   UNL     1       3.419  29.425  50.208  1.00  0.00     0.261 A 
HETATM   15  C   UNL     1       2.697  27.166  47.568  1.00  0.00    -0.049 A 
HETATM   16  C   UNL     1       1.608  29.330  47.616  1.00  0.00     0.011 A 
HETATM   17  C   UNL     1       1.592  26.656  46.865  1.00  0.00     0.007 A 
HETATM   18  C   UNL     1       3.856  26.240  47.844  1.00  0.00     0.039 C 
HETATM   19  C   UNL     1       0.505  27.469  46.553  1.00  0.00     0.001 A 
HETATM   20  C   UNL     1       0.514  28.806  46.926  1.00  0.00     0.001 A 
HETATM   21  C   UNL     1       4.767  26.727  48.965  1.00  0.00     0.008 C 
HETATM   22  O   UNL     1       3.046  28.621  51.051  1.00  0.00    -0.270 OA
ENDBRANCH   5   6
ENDBRANCH   2   5
BRANCH   1  23
HETATM   23  C   UNL     1       4.439  29.750  54.566  1.00  0.00     0.155 C 
BRANCH  23  24
HETATM   24  C   UNL     1       3.876  29.668  56.000  1.00  0.00     0.043 C 
BRANCH  24  25
HETATM   25  C   UNL     1       4.854  29.139  57.045  1.00  0.00     0.076 C 
BRANCH  25  26
HETATM   26  S   UNL     1       5.992  30.482  57.536  1.00  0.00    -0.173 SA
HETATM   27  C   UNL     1       7.558  29.723  57.052  1.00  0.00     0.089 C 
ENDBRANCH  25  26
ENDBRANCH  24  25
ENDBRANCH  23  24
BRANCH  23  28
HETATM   28  C   UNL     1       5.078  28.445  54.164  1.00  0.00     0.128 A 
HETATM   29  N   UNL     1       6.372  28.218  54.050  1.00  0.00    -0.231 NA
HETATM   30  C   UNL     1       6.492  26.920  53.620  1.00  0.00     0.085 A 
HETATM   31  C   UNL     1       5.241  26.332  53.470  1.00  0.00     0.062 A 
HETATM   32  C   UNL     1       7.640  26.174  53.325  1.00  0.00     0.034 A 
HETATM   33  N   UNL     1       4.363  27.312  53.848  1.00  0.00    -0.341 N 
HETATM   34  C   UNL     1       5.059  25.023  53.018  1.00  0.00     0.032 A 
HETATM   35  H   UNL     1       3.356  27.240  53.853  1.00  0.00     0.167 HD
HETATM   36  C   UNL     1       6.218  24.297  52.717  1.00  0.00     0.002 A 
HETATM   37  C   UNL     1       7.488  24.858  52.871  1.00  0.00     0.002 A 
ENDBRANCH  23  28
ENDBRANCH   1  23
TORSDOF 7
ENDMDL
