MODEL 1
REMARK VINA RESULT:     -10.5      0.000      0.000
REMARK  11 active torsions:
REMARK  status: ('A' for Active; 'I' for Inactive)
REMARK    1  A    between atoms: O_2  and  C_3 
REMARK    2  A    between atoms: C_6  and  C_7 
REMARK    3  A    between atoms: C_7  and  C_8 
REMARK    4  A    between atoms: C_8  and  N_9 
REMARK    5  A    between atoms: C_13  and  C_14 
REMARK    6  A    between atoms: C_14  and  C_15 
REMARK    7  A    between atoms: C_25  and  N_26 
REMARK    8  A    between atoms: N_26  and  C_27 
REMARK    9  A    between atoms: C_27  and  C_28 
REMARK   10  A    between atoms: C_28  and  O_29 
REMARK   11  A    between atoms: C_28  and  C_30 
ROOT
HETATM    1  C   UNL     1       5.753  27.912  55.230  1.00  0.00     0.074 A 
HETATM    2  C   UNL     1       5.252  28.521  53.959  1.00  0.00     0.266 A 
HETATM    3  O   UNL     1       4.964  29.721  53.928  1.00  0.00    -0.267 OA
HETATM    4  N   UNL     1       5.139  27.673  52.872  1.00  0.00    -0.273 N 
HETATM    5  C   UNL     1       5.438  26.332  53.023  1.00  0.00     0.138 A 
HETATM    6  N   UNL     1       5.831  25.790  54.133  1.00  0.00    -0.218 NA
HETATM    7  C   UNL     1       4.711  28.181  51.651  1.00  0.00     0.102 A 
HETATM    8  C   UNL     1       4.575  27.402  50.571  1.00  0.00     0.018 A 
HETATM    9  C   UNL     1       4.874  25.997  50.662  1.00  0.00     0.005 A 
HETATM   10  C   UNL     1       5.286  25.466  51.819  1.00  0.00     0.051 A 
HETATM   11  C   UNL     1       5.989  26.582  55.240  1.00  0.00     0.121 A 
ENDROOT
BRANCH   1  12
HETATM   12  C   UNL     1       5.922  28.819  56.357  1.00  0.00     0.045 C 
BRANCH  12  13
HETATM   13  C   UNL     1       7.066  29.295  56.860  1.00  0.00     0.077 A 
HETATM   14  S   UNL     1       8.675  29.017  56.332  1.00  0.00    -0.055 SA
HETATM   15  C   UNL     1       9.355  30.140  57.503  1.00  0.00     0.148 A 
HETATM   16  N   UNL     1       8.340  30.740  58.218  1.00  0.00    -0.298 N 
HETATM   17  S   UNL     1      11.000  30.382  57.652  1.00  0.00    -0.052 SA
HETATM   18  C   UNL     1       7.058  30.288  57.965  1.00  0.00     0.266 A 
HETATM   19  O   UNL     1       6.043  30.649  58.546  1.00  0.00    -0.266 OA
BRANCH  16  20
HETATM   20  C   UNL     1       8.514  31.830  59.179  1.00  0.00     0.138 C 
BRANCH  20  21
HETATM   21  C   UNL     1       8.747  31.333  60.609  1.00  0.00     0.059 C 
BRANCH  21  22
HETATM   22  C   UNL     1       8.018  32.197  61.609  1.00  0.00    -0.057 A 
HETATM   23  C   UNL     1       8.334  32.120  62.971  1.00  0.00     0.010 A 
HETATM   24  C   UNL     1       7.636  32.892  63.903  1.00  0.00     0.037 A 
HETATM   25  C   UNL     1       6.624  33.760  63.493  1.00  0.00     0.068 A 
HETATM   26  C   UNL     1       6.303  33.839  62.138  1.00  0.00     0.037 A 
HETATM   27  C   UNL     1       6.995  33.061  61.201  1.00  0.00     0.010 A 
BRANCH  25  28
HETATM   28  O   UNL     1       6.025  34.459  64.504  1.00  0.00    -0.356 OA
HETATM   29  C   UNL     1       5.147  33.729  65.352  1.00  0.00     0.210 C 
ENDBRANCH  25  28
ENDBRANCH  21  22
ENDBRANCH  20  21
ENDBRANCH  16  20
ENDBRANCH  12  13
ENDBRANCH   1  12
BRANCH  11  30
HETATM   30  N   UNL     1       6.426  25.914  56.379  1.00  0.00    -0.274 NA
HETATM   31  H   UNL     1       7.378  26.241  56.557  1.00  0.00     0.129 HD
BRANCH  30  32
HETATM   32  C   UNL     1       6.445  24.440  56.451  1.00  0.00     0.130 C 
BRANCH  32  33
HETATM   33  C   UNL     1       7.877  23.855  56.343  1.00  0.00     0.164 C 
BRANCH  33  34
HETATM   34  O   UNL     1       8.311  23.378  57.625  1.00  0.00    -0.390 OA
HETATM   35  H   UNL     1       7.510  23.403  58.188  1.00  0.00     0.210 HD
ENDBRANCH  33  34
BRANCH  33  36
HETATM   36  C   UNL     1       7.937  22.746  55.312  1.00  0.00    -0.029 A 
HETATM   37  C   UNL     1       7.945  23.064  53.943  1.00  0.00     0.010 A 
HETATM   38  C   UNL     1       7.968  22.057  52.977  1.00  0.00     0.001 A 
HETATM   39  C   UNL     1       7.986  20.718  53.363  1.00  0.00     0.000 A 
HETATM   40  C   UNL     1       7.980  20.386  54.716  1.00  0.00     0.001 A 
HETATM   41  C   UNL     1       7.953  21.392  55.683  1.00  0.00     0.010 A 
ENDBRANCH  33  36
ENDBRANCH  32  33
ENDBRANCH  30  32
ENDBRANCH  11  30
TORSDOF 11
ENDMDL
MODEL 2
REMARK VINA RESULT:     -10.4      1.650      2.397
REMARK  11 active torsions:
REMARK  status: ('A' for Active; 'I' for Inactive)
REMARK    1  A    between atoms: O_2  and  C_3 
REMARK    2  A    between atoms: C_6  and  C_7 
REMARK    3  A    between atoms: C_7  and  C_8 
REMARK    4  A    between atoms: C_8  and  N_9 
REMARK    5  A    between atoms: C_13  and  C_14 
REMARK    6  A    between atoms: C_14  and  C_15 
REMARK    7  A    between atoms: C_25  and  N_26 
REMARK    8  A    between atoms: N_26  and  C_27 
REMARK    9  A    between atoms: C_27  and  C_28 
REMARK   10  A    between atoms: C_28  and  O_29 
REMARK   11  A    between atoms: C_28  and  C_30 
ROOT
HETATM    1  C   UNL     1       5.065  27.584  53.265  1.00  0.00     0.074 A 
HETATM    2  C   UNL     1       4.931  28.607  52.182  1.00  0.00     0.266 A 
HETATM    3  O   UNL     1       4.905  29.806  52.474  1.00  0.00    -0.267 OA
HETATM    4  N   UNL     1       4.841  28.126  50.888  1.00  0.00    -0.273 N 
HETATM    5  C   UNL     1       4.828  26.761  50.671  1.00  0.00     0.138 A 
HETATM    6  N   UNL     1       4.899  25.870  51.608  1.00  0.00    -0.218 NA
HETATM    7  C   UNL     1       4.748  29.024  49.831  1.00  0.00     0.102 A 
HETATM    8  C   UNL     1       4.649  28.611  48.561  1.00  0.00     0.018 A 
HETATM    9  C   UNL     1       4.633  27.203  48.268  1.00  0.00     0.005 A 
HETATM   10  C   UNL     1       4.717  26.304  49.255  1.00  0.00     0.051 A 
HETATM   11  C   UNL     1       5.019  26.282  52.910  1.00  0.00     0.121 A 
ENDROOT
BRANCH   1  12
HETATM   12  C   UNL     1       5.214  28.096  54.621  1.00  0.00     0.045 C 
BRANCH  12  13
HETATM   13  C   UNL     1       6.350  28.381  55.267  1.00  0.00     0.077 A 
HETATM   14  S   UNL     1       7.931  28.583  54.632  1.00  0.00    -0.055 SA
HETATM   15  C   UNL     1       8.603  29.040  56.194  1.00  0.00     0.148 A 
HETATM   16  N   UNL     1       7.598  29.087  57.137  1.00  0.00    -0.298 N 
HETATM   17  S   UNL     1      10.228  29.356  56.404  1.00  0.00    -0.052 SA
HETATM   18  C   UNL     1       6.343  28.682  56.722  1.00  0.00     0.266 A 
HETATM   19  O   UNL     1       5.349  28.590  57.430  1.00  0.00    -0.266 OA
BRANCH  16  20
HETATM   20  C   UNL     1       7.753  29.564  58.512  1.00  0.00     0.138 C 
BRANCH  20  21
HETATM   21  C   UNL     1       7.642  31.088  58.630  1.00  0.00     0.059 C 
BRANCH  21  22
HETATM   22  C   UNL     1       7.789  31.532  60.066  1.00  0.00    -0.057 A 
HETATM   23  C   UNL     1       6.960  32.535  60.582  1.00  0.00     0.010 A 
HETATM   24  C   UNL     1       7.117  32.974  61.899  1.00  0.00     0.037 A 
HETATM   25  C   UNL     1       8.091  32.412  62.724  1.00  0.00     0.068 A 
HETATM   26  C   UNL     1       8.921  31.414  62.215  1.00  0.00     0.037 A 
HETATM   27  C   UNL     1       8.773  30.977  60.892  1.00  0.00     0.010 A 
BRANCH  25  28
HETATM   28  O   UNL     1       8.136  32.928  63.990  1.00  0.00    -0.356 OA
HETATM   29  C   UNL     1       6.892  33.283  64.580  1.00  0.00     0.210 C 
ENDBRANCH  25  28
ENDBRANCH  21  22
ENDBRANCH  20  21
ENDBRANCH  16  20
ENDBRANCH  12  13
ENDBRANCH   1  12
BRANCH  11  30
HETATM   30  N   UNL     1       5.101  25.254  53.843  1.00  0.00    -0.274 NA
HETATM   31  H   UNL     1       4.672  25.609  54.700  1.00  0.00     0.129 HD
BRANCH  30  32
HETATM   32  C   UNL     1       6.396  24.651  54.216  1.00  0.00     0.130 C 
BRANCH  32  33
HETATM   33  C   UNL     1       6.940  23.685  53.133  1.00  0.00     0.164 C 
BRANCH  33  34
HETATM   34  O   UNL     1       7.894  24.363  52.301  1.00  0.00    -0.390 OA
HETATM   35  H   UNL     1       8.765  24.154  52.697  1.00  0.00     0.210 HD
ENDBRANCH  33  34
BRANCH  33  36
HETATM   36  C   UNL     1       7.560  22.453  53.761  1.00  0.00    -0.029 A 
HETATM   37  C   UNL     1       8.082  21.439  52.941  1.00  0.00     0.010 A 
HETATM   38  C   UNL     1       8.629  20.281  53.499  1.00  0.00     0.001 A 
HETATM   39  C   UNL     1       8.663  20.121  54.882  1.00  0.00     0.000 A 
HETATM   40  C   UNL     1       8.150  21.118  55.709  1.00  0.00     0.001 A 
HETATM   41  C   UNL     1       7.600  22.274  55.152  1.00  0.00     0.010 A 
ENDBRANCH  33  36
ENDBRANCH  32  33
ENDBRANCH  30  32
ENDBRANCH  11  30
TORSDOF 11
ENDMDL
MODEL 3
REMARK VINA RESULT:     -10.1      1.503      4.777
REMARK  11 active torsions:
REMARK  status: ('A' for Active; 'I' for Inactive)
REMARK    1  A    between atoms: O_2  and  C_3 
REMARK    2  A    between atoms: C_6  and  C_7 
REMARK    3  A    between atoms: C_7  and  C_8 
REMARK    4  A    between atoms: C_8  and  N_9 
REMARK    5  A    between atoms: C_13  and  C_14 
REMARK    6  A    between atoms: C_14  and  C_15 
REMARK    7  A    between atoms: C_25  and  N_26 
REMARK    8  A    between atoms: N_26  and  C_27 
REMARK    9  A    between atoms: C_27  and  C_28 
REMARK   10  A    between atoms: C_28  and  O_29 
REMARK   11  A    between atoms: C_28  and  C_30 
ROOT
HETATM    1  C   UNL     1       6.851  27.364  54.805  1.00  0.00     0.074 A 
HETATM    2  C   UNL     1       7.242  26.048  55.401  1.00  0.00     0.266 A 
HETATM    3  O   UNL     1       7.348  25.940  56.625  1.00  0.00    -0.267 OA
HETATM    4  N   UNL     1       7.468  25.013  54.512  1.00  0.00    -0.273 N 
HETATM    5  C   UNL     1       7.373  25.250  53.154  1.00  0.00     0.138 A 
HETATM    6  N   UNL     1       7.077  26.398  52.630  1.00  0.00    -0.218 NA
HETATM    7  C   UNL     1       7.804  23.755  55.001  1.00  0.00     0.102 A 
HETATM    8  C   UNL     1       8.042  22.721  54.184  1.00  0.00     0.018 A 
HETATM    9  C   UNL     1       7.956  22.903  52.759  1.00  0.00     0.005 A 
HETATM   10  C   UNL     1       7.640  24.097  52.246  1.00  0.00     0.051 A 
HETATM   11  C   UNL     1       6.814  27.458  53.458  1.00  0.00     0.121 A 
ENDROOT
BRANCH   1  12
HETATM   12  C   UNL     1       6.560  28.437  55.746  1.00  0.00     0.045 C 
BRANCH  12  13
HETATM   13  C   UNL     1       7.429  29.127  56.493  1.00  0.00     0.077 A 
HETATM   14  S   UNL     1       9.115  29.348  56.261  1.00  0.00    -0.055 SA
HETATM   15  C   UNL     1       9.254  30.452  57.624  1.00  0.00     0.148 A 
HETATM   16  N   UNL     1       8.010  30.670  58.177  1.00  0.00    -0.298 N 
HETATM   17  S   UNL     1      10.719  31.094  58.101  1.00  0.00    -0.052 SA
HETATM   18  C   UNL     1       6.964  29.935  57.650  1.00  0.00     0.266 A 
HETATM   19  O   UNL     1       5.809  29.942  58.054  1.00  0.00    -0.266 OA
BRANCH  16  20
HETATM   20  C   UNL     1       7.714  31.637  59.235  1.00  0.00     0.138 C 
BRANCH  20  21
HETATM   21  C   UNL     1       8.142  31.151  60.624  1.00  0.00     0.059 C 
BRANCH  21  22
HETATM   22  C   UNL     1       7.619  32.067  61.704  1.00  0.00    -0.057 A 
HETATM   23  C   UNL     1       8.259  32.129  62.947  1.00  0.00     0.010 A 
HETATM   24  C   UNL     1       7.756  32.948  63.960  1.00  0.00     0.037 A 
HETATM   25  C   UNL     1       6.619  33.727  63.747  1.00  0.00     0.068 A 
HETATM   26  C   UNL     1       5.975  33.667  62.511  1.00  0.00     0.037 A 
HETATM   27  C   UNL     1       6.471  32.840  61.495  1.00  0.00     0.010 A 
BRANCH  25  28
HETATM   28  O   UNL     1       6.235  34.486  64.818  1.00  0.00    -0.356 OA
HETATM   29  C   UNL     1       5.128  34.011  65.573  1.00  0.00     0.210 C 
ENDBRANCH  25  28
ENDBRANCH  21  22
ENDBRANCH  20  21
ENDBRANCH  16  20
ENDBRANCH  12  13
ENDBRANCH   1  12
BRANCH  11  30
HETATM   30  N   UNL     1       6.494  28.644  52.805  1.00  0.00    -0.274 NA
HETATM   31  H   UNL     1       6.770  29.401  53.433  1.00  0.00     0.129 HD
BRANCH  30  32
HETATM   32  C   UNL     1       5.118  28.928  52.350  1.00  0.00     0.130 C 
BRANCH  32  33
HETATM   33  C   UNL     1       5.077  29.601  50.955  1.00  0.00     0.164 C 
BRANCH  33  34
HETATM   34  O   UNL     1       6.248  30.409  50.764  1.00  0.00    -0.390 OA
HETATM   35  H   UNL     1       6.986  29.769  50.688  1.00  0.00     0.210 HD
ENDBRANCH  33  34
BRANCH  33  36
HETATM   36  C   UNL     1       4.955  28.568  49.853  1.00  0.00    -0.029 A 
HETATM   37  C   UNL     1       4.516  27.268  50.160  1.00  0.00     0.010 A 
HETATM   38  C   UNL     1       4.428  26.293  49.165  1.00  0.00     0.001 A 
HETATM   39  C   UNL     1       4.775  26.600  47.851  1.00  0.00     0.000 A 
HETATM   40  C   UNL     1       5.211  27.884  47.531  1.00  0.00     0.001 A 
HETATM   41  C   UNL     1       5.303  28.859  48.525  1.00  0.00     0.010 A 
ENDBRANCH  33  36
ENDBRANCH  32  33
ENDBRANCH  30  32
ENDBRANCH  11  30
TORSDOF 11
ENDMDL
MODEL 4
REMARK VINA RESULT:      -9.9      1.808      4.932
REMARK  11 active torsions:
REMARK  status: ('A' for Active; 'I' for Inactive)
REMARK    1  A    between atoms: O_2  and  C_3 
REMARK    2  A    between atoms: C_6  and  C_7 
REMARK    3  A    between atoms: C_7  and  C_8 
REMARK    4  A    between atoms: C_8  and  N_9 
REMARK    5  A    between atoms: C_13  and  C_14 
REMARK    6  A    between atoms: C_14  and  C_15 
REMARK    7  A    between atoms: C_25  and  N_26 
REMARK    8  A    between atoms: N_26  and  C_27 
REMARK    9  A    between atoms: C_27  and  C_28 
REMARK   10  A    between atoms: C_28  and  O_29 
REMARK   11  A    between atoms: C_28  and  C_30 
ROOT
HETATM    1  C   UNL     1       6.376  25.827  56.046  1.00  0.00     0.074 A 
HETATM    2  C   UNL     1       7.438  24.833  56.397  1.00  0.00     0.266 A 
HETATM    3  O   UNL     1       7.905  24.817  57.539  1.00  0.00    -0.267 OA
HETATM    4  N   UNL     1       7.837  23.976  55.388  1.00  0.00    -0.273 N 
HETATM    5  C   UNL     1       7.288  24.109  54.127  1.00  0.00     0.138 A 
HETATM    6  N   UNL     1       6.400  24.996  53.805  1.00  0.00    -0.218 NA
HETATM    7  C   UNL     1       8.797  23.006  55.656  1.00  0.00     0.102 A 
HETATM    8  C   UNL     1       9.225  22.157  54.713  1.00  0.00     0.018 A 
HETATM    9  C   UNL     1       8.690  22.242  53.380  1.00  0.00     0.005 A 
HETATM   10  C   UNL     1       7.768  23.163  53.077  1.00  0.00     0.051 A 
HETATM   11  C   UNL     1       5.942  25.857  54.767  1.00  0.00     0.121 A 
ENDROOT
BRANCH   1  12
HETATM   12  C   UNL     1       5.920  26.691  57.125  1.00  0.00     0.045 C 
BRANCH  12  13
HETATM   13  C   UNL     1       6.011  28.023  57.201  1.00  0.00     0.077 A 
HETATM   14  S   UNL     1       4.812  29.208  56.879  1.00  0.00    -0.055 SA
HETATM   15  C   UNL     1       5.851  30.535  57.386  1.00  0.00     0.148 A 
HETATM   16  N   UNL     1       7.052  30.038  57.842  1.00  0.00    -0.298 N 
HETATM   17  S   UNL     1       5.364  32.129  57.294  1.00  0.00    -0.052 SA
HETATM   18  C   UNL     1       7.242  28.674  57.721  1.00  0.00     0.266 A 
HETATM   19  O   UNL     1       8.264  28.064  58.006  1.00  0.00    -0.266 OA
BRANCH  16  20
HETATM   20  C   UNL     1       8.109  30.831  58.474  1.00  0.00     0.138 C 
BRANCH  20  21
HETATM   21  C   UNL     1       8.440  30.359  59.894  1.00  0.00     0.059 C 
BRANCH  21  22
HETATM   22  C   UNL     1       7.975  31.364  60.921  1.00  0.00    -0.057 A 
HETATM   23  C   UNL     1       8.602  31.436  62.170  1.00  0.00     0.010 A 
HETATM   24  C   UNL     1       8.151  32.340  63.135  1.00  0.00     0.037 A 
HETATM   25  C   UNL     1       7.081  33.193  62.867  1.00  0.00     0.068 A 
HETATM   26  C   UNL     1       6.451  33.124  61.624  1.00  0.00     0.037 A 
HETATM   27  C   UNL     1       6.895  32.214  60.656  1.00  0.00     0.010 A 
BRANCH  25  28
HETATM   28  O   UNL     1       6.744  34.030  63.894  1.00  0.00    -0.356 OA
HETATM   29  C   UNL     1       5.619  33.656  64.680  1.00  0.00     0.210 C 
ENDBRANCH  25  28
ENDBRANCH  21  22
ENDBRANCH  20  21
ENDBRANCH  16  20
ENDBRANCH  12  13
ENDBRANCH   1  12
BRANCH  11  30
HETATM   30  N   UNL     1       4.982  26.764  54.330  1.00  0.00    -0.274 NA
HETATM   31  H   UNL     1       4.148  26.596  54.898  1.00  0.00     0.129 HD
BRANCH  30  32
HETATM   32  C   UNL     1       4.552  26.815  52.919  1.00  0.00     0.130 C 
BRANCH  32  33
HETATM   33  C   UNL     1       4.966  28.132  52.215  1.00  0.00     0.164 C 
BRANCH  33  34
HETATM   34  O   UNL     1       6.240  28.574  52.709  1.00  0.00    -0.390 OA
HETATM   35  H   UNL     1       6.682  28.980  51.935  1.00  0.00     0.210 HD
ENDBRANCH  33  34
BRANCH  33  36
HETATM   36  C   UNL     1       5.009  27.957  50.710  1.00  0.00    -0.029 A 
HETATM   37  C   UNL     1       5.374  29.039  49.892  1.00  0.00     0.010 A 
HETATM   38  C   UNL     1       5.388  28.909  48.502  1.00  0.00     0.001 A 
HETATM   39  C   UNL     1       5.039  27.696  47.910  1.00  0.00     0.000 A 
HETATM   40  C   UNL     1       4.676  26.614  48.708  1.00  0.00     0.001 A 
HETATM   41  C   UNL     1       4.658  26.744  50.097  1.00  0.00     0.010 A 
ENDBRANCH  33  36
ENDBRANCH  32  33
ENDBRANCH  30  32
ENDBRANCH  11  30
TORSDOF 11
ENDMDL
MODEL 5
REMARK VINA RESULT:      -9.9      1.642      2.059
REMARK  11 active torsions:
REMARK  status: ('A' for Active; 'I' for Inactive)
REMARK    1  A    between atoms: O_2  and  C_3 
REMARK    2  A    between atoms: C_6  and  C_7 
REMARK    3  A    between atoms: C_7  and  C_8 
REMARK    4  A    between atoms: C_8  and  N_9 
REMARK    5  A    between atoms: C_13  and  C_14 
REMARK    6  A    between atoms: C_14  and  C_15 
REMARK    7  A    between atoms: C_25  and  N_26 
REMARK    8  A    between atoms: N_26  and  C_27 
REMARK    9  A    between atoms: C_27  and  C_28 
REMARK   10  A    between atoms: C_28  and  O_29 
REMARK   11  A    between atoms: C_28  and  C_30 
ROOT
HETATM    1  C   UNL     1       5.254  27.576  55.479  1.00  0.00     0.074 A 
HETATM    2  C   UNL     1       4.528  28.093  54.278  1.00  0.00     0.266 A 
HETATM    3  O   UNL     1       3.646  28.945  54.418  1.00  0.00    -0.267 OA
HETATM    4  N   UNL     1       4.903  27.564  53.057  1.00  0.00    -0.273 N 
HETATM    5  C   UNL     1       5.868  26.575  53.012  1.00  0.00     0.138 A 
HETATM    6  N   UNL     1       6.469  26.092  54.053  1.00  0.00    -0.218 NA
HETATM    7  C   UNL     1       4.290  28.024  51.896  1.00  0.00     0.102 A 
HETATM    8  C   UNL     1       4.610  27.539  50.690  1.00  0.00     0.018 A 
HETATM    9  C   UNL     1       5.609  26.510  50.576  1.00  0.00     0.005 A 
HETATM   10  C   UNL     1       6.221  26.036  51.667  1.00  0.00     0.051 A 
HETATM   11  C   UNL     1       6.163  26.594  55.291  1.00  0.00     0.121 A 
ENDROOT
BRANCH   1  12
HETATM   12  C   UNL     1       4.895  28.175  56.757  1.00  0.00     0.045 C 
BRANCH  12  13
HETATM   13  C   UNL     1       5.122  29.428  57.167  1.00  0.00     0.077 A 
HETATM   14  S   UNL     1       4.027  30.745  57.269  1.00  0.00    -0.055 SA
HETATM   15  C   UNL     1       5.222  31.805  58.008  1.00  0.00     0.148 A 
HETATM   16  N   UNL     1       6.396  31.111  58.214  1.00  0.00    -0.298 N 
HETATM   17  S   UNL     1       4.891  33.399  58.375  1.00  0.00    -0.052 SA
HETATM   18  C   UNL     1       6.442  29.818  57.727  1.00  0.00     0.266 A 
HETATM   19  O   UNL     1       7.415  29.076  57.754  1.00  0.00    -0.266 OA
BRANCH  16  20
HETATM   20  C   UNL     1       7.563  31.623  58.935  1.00  0.00     0.138 C 
BRANCH  20  21
HETATM   21  C   UNL     1       7.806  30.901  60.264  1.00  0.00     0.059 C 
BRANCH  21  22
HETATM   22  C   UNL     1       7.498  31.804  61.435  1.00  0.00    -0.057 A 
HETATM   23  C   UNL     1       6.394  32.664  61.390  1.00  0.00     0.010 A 
HETATM   24  C   UNL     1       6.128  33.527  62.455  1.00  0.00     0.037 A 
HETATM   25  C   UNL     1       6.946  33.537  63.585  1.00  0.00     0.068 A 
HETATM   26  C   UNL     1       8.049  32.684  63.634  1.00  0.00     0.037 A 
HETATM   27  C   UNL     1       8.324  31.823  62.564  1.00  0.00     0.010 A 
BRANCH  25  28
HETATM   28  O   UNL     1       6.572  34.424  64.556  1.00  0.00    -0.356 OA
HETATM   29  C   UNL     1       5.846  33.897  65.658  1.00  0.00     0.210 C 
ENDBRANCH  25  28
ENDBRANCH  21  22
ENDBRANCH  20  21
ENDBRANCH  16  20
ENDBRANCH  12  13
ENDBRANCH   1  12
BRANCH  11  30
HETATM   30  N   UNL     1       6.868  26.023  56.344  1.00  0.00    -0.274 NA
HETATM   31  H   UNL     1       7.857  26.214  56.165  1.00  0.00     0.129 HD
BRANCH  30  32
HETATM   32  C   UNL     1       6.748  24.588  56.668  1.00  0.00     0.130 C 
BRANCH  32  33
HETATM   33  C   UNL     1       8.087  23.825  56.508  1.00  0.00     0.164 C 
BRANCH  33  34
HETATM   34  O   UNL     1       8.458  23.215  57.754  1.00  0.00    -0.390 OA
HETATM   35  H   UNL     1       8.663  23.966  58.349  1.00  0.00     0.210 HD
ENDBRANCH  33  34
BRANCH  33  36
HETATM   36  C   UNL     1       7.995  22.783  55.411  1.00  0.00    -0.029 A 
HETATM   37  C   UNL     1       7.965  21.418  55.745  1.00  0.00     0.010 A 
HETATM   38  C   UNL     1       7.912  20.442  54.748  1.00  0.00     0.001 A 
HETATM   39  C   UNL     1       7.887  20.814  53.406  1.00  0.00     0.000 A 
HETATM   40  C   UNL     1       7.915  22.163  53.059  1.00  0.00     0.001 A 
HETATM   41  C   UNL     1       7.971  23.140  54.054  1.00  0.00     0.010 A 
ENDBRANCH  33  36
ENDBRANCH  32  33
ENDBRANCH  30  32
ENDBRANCH  11  30
TORSDOF 11
ENDMDL
MODEL 6
REMARK VINA RESULT:      -9.8      3.766      5.285
REMARK  11 active torsions:
REMARK  status: ('A' for Active; 'I' for Inactive)
REMARK    1  A    between atoms: O_2  and  C_3 
REMARK    2  A    between atoms: C_6  and  C_7 
REMARK    3  A    between atoms: C_7  and  C_8 
REMARK    4  A    between atoms: C_8  and  N_9 
REMARK    5  A    between atoms: C_13  and  C_14 
REMARK    6  A    between atoms: C_14  and  C_15 
REMARK    7  A    between atoms: C_25  and  N_26 
REMARK    8  A    between atoms: N_26  and  C_27 
REMARK    9  A    between atoms: C_27  and  C_28 
REMARK   10  A    between atoms: C_28  and  O_29 
REMARK   11  A    between atoms: C_28  and  C_30 
ROOT
HETATM    1  C   UNL     1       4.871  28.213  50.736  1.00  0.00     0.074 A 
HETATM    2  C   UNL     1       3.890  28.590  49.672  1.00  0.00     0.266 A 
HETATM    3  O   UNL     1       3.486  29.753  49.598  1.00  0.00    -0.267 OA
HETATM    4  N   UNL     1       3.487  27.578  48.819  1.00  0.00    -0.273 N 
HETATM    5  C   UNL     1       3.960  26.294  49.017  1.00  0.00     0.138 A 
HETATM    6  N   UNL     1       4.776  25.953  49.964  1.00  0.00    -0.218 NA
HETATM    7  C   UNL     1       2.602  27.867  47.786  1.00  0.00     0.102 A 
HETATM    8  C   UNL     1       2.174  26.924  46.939  1.00  0.00     0.018 A 
HETATM    9  C   UNL     1       2.631  25.568  47.090  1.00  0.00     0.005 A 
HETATM   10  C   UNL     1       3.481  25.245  48.072  1.00  0.00     0.051 A 
HETATM   11  C   UNL     1       5.234  26.914  50.826  1.00  0.00     0.121 A 
ENDROOT
BRANCH   1  12
HETATM   12  C   UNL     1       5.334  29.291  51.598  1.00  0.00     0.045 C 
BRANCH  12  13
HETATM   13  C   UNL     1       4.747  29.764  52.704  1.00  0.00     0.077 A 
HETATM   14  S   UNL     1       3.659  31.081  52.869  1.00  0.00    -0.055 SA
HETATM   15  C   UNL     1       3.404  30.778  54.584  1.00  0.00     0.148 A 
HETATM   16  N   UNL     1       4.101  29.652  54.967  1.00  0.00    -0.298 N 
HETATM   17  S   UNL     1       2.440  31.762  55.526  1.00  0.00    -0.052 SA
HETATM   18  C   UNL     1       4.909  29.070  54.008  1.00  0.00     0.266 A 
HETATM   19  O   UNL     1       5.650  28.112  54.180  1.00  0.00    -0.266 OA
BRANCH  16  20
HETATM   20  C   UNL     1       4.017  29.014  56.282  1.00  0.00     0.138 C 
BRANCH  20  21
HETATM   21  C   UNL     1       4.474  29.933  57.420  1.00  0.00     0.059 C 
BRANCH  21  22
HETATM   22  C   UNL     1       5.967  29.840  57.626  1.00  0.00    -0.057 A 
HETATM   23  C   UNL     1       6.697  30.971  58.009  1.00  0.00     0.010 A 
HETATM   24  C   UNL     1       8.084  30.897  58.164  1.00  0.00     0.037 A 
HETATM   25  C   UNL     1       8.760  29.695  57.954  1.00  0.00     0.068 A 
HETATM   26  C   UNL     1       8.037  28.566  57.570  1.00  0.00     0.037 A 
HETATM   27  C   UNL     1       6.648  28.638  57.405  1.00  0.00     0.010 A 
BRANCH  25  28
HETATM   28  O   UNL     1      10.113  29.759  58.143  1.00  0.00    -0.356 OA
HETATM   29  C   UNL     1      10.922  29.771  56.974  1.00  0.00     0.210 C 
ENDBRANCH  25  28
ENDBRANCH  21  22
ENDBRANCH  20  21
ENDBRANCH  16  20
ENDBRANCH  12  13
ENDBRANCH   1  12
BRANCH  11  30
HETATM   30  N   UNL     1       6.115  26.455  51.799  1.00  0.00    -0.274 NA
HETATM   31  H   UNL     1       7.056  26.613  51.433  1.00  0.00     0.129 HD
BRANCH  30  32
HETATM   32  C   UNL     1       6.062  25.066  52.295  1.00  0.00     0.130 C 
BRANCH  32  33
HETATM   33  C   UNL     1       6.654  24.917  53.720  1.00  0.00     0.164 C 
BRANCH  33  34
HETATM   34  O   UNL     1       5.660  25.244  54.703  1.00  0.00    -0.390 OA
HETATM   35  H   UNL     1       6.004  26.044  55.152  1.00  0.00     0.210 HD
ENDBRANCH  33  34
BRANCH  33  36
HETATM   36  C   UNL     1       7.189  23.518  53.947  1.00  0.00    -0.029 A 
HETATM   37  C   UNL     1       7.289  23.011  55.254  1.00  0.00     0.010 A 
HETATM   38  C   UNL     1       7.809  21.737  55.487  1.00  0.00     0.001 A 
HETATM   39  C   UNL     1       8.234  20.950  54.419  1.00  0.00     0.000 A 
HETATM   40  C   UNL     1       8.140  21.436  53.117  1.00  0.00     0.001 A 
HETATM   41  C   UNL     1       7.624  22.712  52.883  1.00  0.00     0.010 A 
ENDBRANCH  33  36
ENDBRANCH  32  33
ENDBRANCH  30  32
ENDBRANCH  11  30
TORSDOF 11
ENDMDL
MODEL 7
REMARK VINA RESULT:      -9.8      2.905      9.336
REMARK  11 active torsions:
REMARK  status: ('A' for Active; 'I' for Inactive)
REMARK    1  A    between atoms: O_2  and  C_3 
REMARK    2  A    between atoms: C_6  and  C_7 
REMARK    3  A    between atoms: C_7  and  C_8 
REMARK    4  A    between atoms: C_8  and  N_9 
REMARK    5  A    between atoms: C_13  and  C_14 
REMARK    6  A    between atoms: C_14  and  C_15 
REMARK    7  A    between atoms: C_25  and  N_26 
REMARK    8  A    between atoms: N_26  and  C_27 
REMARK    9  A    between atoms: C_27  and  C_28 
REMARK   10  A    between atoms: C_28  and  O_29 
REMARK   11  A    between atoms: C_28  and  C_30 
ROOT
HETATM    1  C   UNL     1       5.961  29.218  57.144  1.00  0.00     0.074 A 
HETATM    2  C   UNL     1       5.903  30.530  57.860  1.00  0.00     0.266 A 
HETATM    3  O   UNL     1       4.927  31.268  57.705  1.00  0.00    -0.267 OA
HETATM    4  N   UNL     1       6.982  30.838  58.669  1.00  0.00    -0.273 N 
HETATM    5  C   UNL     1       8.052  29.966  58.735  1.00  0.00     0.138 A 
HETATM    6  N   UNL     1       8.127  28.848  58.084  1.00  0.00    -0.218 NA
HETATM    7  C   UNL     1       6.978  32.027  59.390  1.00  0.00     0.102 A 
HETATM    8  C   UNL     1       8.001  32.377  60.180  1.00  0.00     0.018 A 
HETATM    9  C   UNL     1       9.143  31.511  60.294  1.00  0.00     0.005 A 
HETATM   10  C   UNL     1       9.190  30.358  59.616  1.00  0.00     0.051 A 
HETATM   11  C   UNL     1       7.078  28.472  57.286  1.00  0.00     0.121 A 
ENDROOT
BRANCH   1  12
HETATM   12  C   UNL     1       4.799  28.873  56.336  1.00  0.00     0.045 C 
BRANCH  12  13
HETATM   13  C   UNL     1       4.524  29.268  55.088  1.00  0.00     0.077 A 
HETATM   14  S   UNL     1       3.563  30.589  54.562  1.00  0.00    -0.055 SA
HETATM   15  C   UNL     1       3.950  30.318  52.866  1.00  0.00     0.148 A 
HETATM   16  N   UNL     1       4.845  29.276  52.753  1.00  0.00    -0.298 N 
HETATM   17  S   UNL     1       3.286  31.242  51.645  1.00  0.00    -0.052 SA
HETATM   18  C   UNL     1       5.165  28.608  53.921  1.00  0.00     0.266 A 
HETATM   19  O   UNL     1       5.883  27.621  54.009  1.00  0.00    -0.266 OA
BRANCH  16  20
HETATM   20  C   UNL     1       5.500  28.856  51.513  1.00  0.00     0.138 C 
BRANCH  20  21
HETATM   21  C   UNL     1       5.294  27.370  51.203  1.00  0.00     0.059 C 
BRANCH  21  22
HETATM   22  C   UNL     1       4.381  27.186  50.015  1.00  0.00    -0.057 A 
HETATM   23  C   UNL     1       3.524  28.219  49.619  1.00  0.00     0.010 A 
HETATM   24  C   UNL     1       2.651  28.039  48.543  1.00  0.00     0.037 A 
HETATM   25  C   UNL     1       2.629  26.835  47.838  1.00  0.00     0.068 A 
HETATM   26  C   UNL     1       3.479  25.801  48.231  1.00  0.00     0.037 A 
HETATM   27  C   UNL     1       4.349  25.975  49.315  1.00  0.00     0.010 A 
BRANCH  25  28
HETATM   28  O   UNL     1       1.733  26.792  46.806  1.00  0.00    -0.356 OA
HETATM   29  C   UNL     1       0.682  27.750  46.832  1.00  0.00     0.210 C 
ENDBRANCH  25  28
ENDBRANCH  21  22
ENDBRANCH  20  21
ENDBRANCH  16  20
ENDBRANCH  12  13
ENDBRANCH   1  12
BRANCH  11  30
HETATM   30  N   UNL     1       7.245  27.253  56.638  1.00  0.00    -0.274 NA
HETATM   31  H   UNL     1       6.558  27.234  55.880  1.00  0.00     0.129 HD
BRANCH  30  32
HETATM   32  C   UNL     1       7.137  25.971  57.362  1.00  0.00     0.130 C 
BRANCH  32  33
HETATM   33  C   UNL     1       6.225  24.949  56.637  1.00  0.00     0.164 C 
BRANCH  33  34
HETATM   34  O   UNL     1       5.073  25.614  56.098  1.00  0.00    -0.390 OA
HETATM   35  H   UNL     1       5.406  26.102  55.317  1.00  0.00     0.210 HD
ENDBRANCH  33  34
BRANCH  33  36
HETATM   36  C   UNL     1       6.982  24.221  55.544  1.00  0.00    -0.029 A 
HETATM   37  C   UNL     1       6.524  24.285  54.217  1.00  0.00     0.010 A 
HETATM   38  C   UNL     1       7.188  23.595  53.201  1.00  0.00     0.001 A 
HETATM   39  C   UNL     1       8.318  22.835  53.494  1.00  0.00     0.000 A 
HETATM   40  C   UNL     1       8.785  22.764  54.805  1.00  0.00     0.001 A 
HETATM   41  C   UNL     1       8.120  23.449  55.822  1.00  0.00     0.010 A 
ENDBRANCH  33  36
ENDBRANCH  32  33
ENDBRANCH  30  32
ENDBRANCH  11  30
TORSDOF 11
ENDMDL
MODEL 8
REMARK VINA RESULT:      -9.8      3.630      9.249
REMARK  11 active torsions:
REMARK  status: ('A' for Active; 'I' for Inactive)
REMARK    1  A    between atoms: O_2  and  C_3 
REMARK    2  A    between atoms: C_6  and  C_7 
REMARK    3  A    between atoms: C_7  and  C_8 
REMARK    4  A    between atoms: C_8  and  N_9 
REMARK    5  A    between atoms: C_13  and  C_14 
REMARK    6  A    between atoms: C_14  and  C_15 
REMARK    7  A    between atoms: C_25  and  N_26 
REMARK    8  A    between atoms: N_26  and  C_27 
REMARK    9  A    between atoms: C_27  and  C_28 
REMARK   10  A    between atoms: C_28  and  O_29 
REMARK   11  A    between atoms: C_28  and  C_30 
ROOT
HETATM    1  C   UNL     1       6.465  29.327  55.819  1.00  0.00     0.074 A 
HETATM    2  C   UNL     1       6.985  30.061  57.015  1.00  0.00     0.266 A 
HETATM    3  O   UNL     1       6.194  30.625  57.776  1.00  0.00    -0.267 OA
HETATM    4  N   UNL     1       8.357  30.060  57.189  1.00  0.00    -0.273 N 
HETATM    5  C   UNL     1       9.160  29.441  56.250  1.00  0.00     0.138 A 
HETATM    6  N   UNL     1       8.719  28.841  55.190  1.00  0.00    -0.218 NA
HETATM    7  C   UNL     1       8.904  30.696  58.298  1.00  0.00     0.102 A 
HETATM    8  C   UNL     1      10.226  30.732  58.509  1.00  0.00     0.018 A 
HETATM    9  C   UNL     1      11.116  30.104  57.570  1.00  0.00     0.005 A 
HETATM   10  C   UNL     1      10.632  29.484  56.488  1.00  0.00     0.051 A 
HETATM   11  C   UNL     1       7.367  28.783  54.974  1.00  0.00     0.121 A 
ENDROOT
BRANCH   1  12
HETATM   12  C   UNL     1       5.017  29.284  55.668  1.00  0.00     0.045 C 
BRANCH  12  13
HETATM   13  C   UNL     1       4.252  30.059  54.893  1.00  0.00     0.077 A 
HETATM   14  S   UNL     1       3.769  31.688  55.137  1.00  0.00    -0.055 SA
HETATM   15  C   UNL     1       2.963  31.783  53.575  1.00  0.00     0.148 A 
HETATM   16  N   UNL     1       3.136  30.601  52.889  1.00  0.00    -0.298 N 
HETATM   17  S   UNL     1       2.138  33.148  53.083  1.00  0.00    -0.052 SA
HETATM   18  C   UNL     1       3.782  29.583  53.566  1.00  0.00     0.266 A 
HETATM   19  O   UNL     1       3.966  28.447  53.148  1.00  0.00    -0.266 OA
BRANCH  16  20
HETATM   20  C   UNL     1       2.728  30.361  51.503  1.00  0.00     0.138 C 
BRANCH  20  21
HETATM   21  C   UNL     1       3.898  30.434  50.516  1.00  0.00     0.059 C 
BRANCH  21  22
HETATM   22  C   UNL     1       3.835  29.305  49.516  1.00  0.00    -0.057 A 
HETATM   23  C   UNL     1       2.635  28.615  49.308  1.00  0.00     0.010 A 
HETATM   24  C   UNL     1       2.582  27.546  48.410  1.00  0.00     0.037 A 
HETATM   25  C   UNL     1       3.717  27.158  47.697  1.00  0.00     0.068 A 
HETATM   26  C   UNL     1       4.916  27.841  47.903  1.00  0.00     0.037 A 
HETATM   27  C   UNL     1       4.975  28.908  48.809  1.00  0.00     0.010 A 
BRANCH  25  28
HETATM   28  O   UNL     1       3.527  26.102  46.850  1.00  0.00    -0.356 OA
HETATM   29  C   UNL     1       2.991  24.914  47.419  1.00  0.00     0.210 C 
ENDBRANCH  25  28
ENDBRANCH  21  22
ENDBRANCH  20  21
ENDBRANCH  16  20
ENDBRANCH  12  13
ENDBRANCH   1  12
BRANCH  11  30
HETATM   30  N   UNL     1       6.989  28.108  53.818  1.00  0.00    -0.274 NA
HETATM   31  H   UNL     1       5.971  28.181  53.763  1.00  0.00     0.129 HD
BRANCH  30  32
HETATM   32  C   UNL     1       7.342  26.692  53.599  1.00  0.00     0.130 C 
BRANCH  32  33
HETATM   33  C   UNL     1       6.464  25.722  54.430  1.00  0.00     0.164 C 
BRANCH  33  34
HETATM   34  O   UNL     1       5.094  25.816  54.011  1.00  0.00    -0.390 OA
HETATM   35  H   UNL     1       5.018  25.194  53.258  1.00  0.00     0.210 HD
ENDBRANCH  33  34
BRANCH  33  36
HETATM   36  C   UNL     1       6.962  24.295  54.311  1.00  0.00    -0.029 A 
HETATM   37  C   UNL     1       7.202  23.540  55.472  1.00  0.00     0.010 A 
HETATM   38  C   UNL     1       7.692  22.236  55.384  1.00  0.00     0.001 A 
HETATM   39  C   UNL     1       7.946  21.666  54.138  1.00  0.00     0.000 A 
HETATM   40  C   UNL     1       7.711  22.401  52.979  1.00  0.00     0.001 A 
HETATM   41  C   UNL     1       7.225  23.707  53.064  1.00  0.00     0.010 A 
ENDBRANCH  33  36
ENDBRANCH  32  33
ENDBRANCH  30  32
ENDBRANCH  11  30
TORSDOF 11
ENDMDL
MODEL 9
REMARK VINA RESULT:      -9.7      1.691      2.293
REMARK  11 active torsions:
REMARK  status: ('A' for Active; 'I' for Inactive)
REMARK    1  A    between atoms: O_2  and  C_3 
REMARK    2  A    between atoms: C_6  and  C_7 
REMARK    3  A    between atoms: C_7  and  C_8 
REMARK    4  A    between atoms: C_8  and  N_9 
REMARK    5  A    between atoms: C_13  and  C_14 
REMARK    6  A    between atoms: C_14  and  C_15 
REMARK    7  A    between atoms: C_25  and  N_26 
REMARK    8  A    between atoms: N_26  and  C_27 
REMARK    9  A    between atoms: C_27  and  C_28 
REMARK   10  A    between atoms: C_28  and  O_29 
REMARK   11  A    between atoms: C_28  and  C_30 
ROOT
HETATM    1  C   UNL     1       4.453  29.362  55.518  1.00  0.00     0.074 A 
HETATM    2  C   UNL     1       3.954  30.619  54.879  1.00  0.00     0.266 A 
HETATM    3  O   UNL     1       3.957  31.673  55.521  1.00  0.00    -0.267 OA
HETATM    4  N   UNL     1       3.508  30.511  53.574  1.00  0.00    -0.273 N 
HETATM    5  C   UNL     1       3.498  29.273  52.960  1.00  0.00     0.138 A 
HETATM    6  N   UNL     1       3.888  28.173  53.523  1.00  0.00    -0.218 NA
HETATM    7  C   UNL     1       3.061  31.648  52.910  1.00  0.00     0.102 A 
HETATM    8  C   UNL     1       2.610  31.597  51.650  1.00  0.00     0.018 A 
HETATM    9  C   UNL     1       2.578  30.339  50.954  1.00  0.00     0.005 A 
HETATM   10  C   UNL     1       2.995  29.220  51.557  1.00  0.00     0.051 A 
HETATM   11  C   UNL     1       4.368  28.217  54.805  1.00  0.00     0.121 A 
ENDROOT
BRANCH   1  12
HETATM   12  C   UNL     1       4.973  29.489  56.873  1.00  0.00     0.045 C 
BRANCH  12  13
HETATM   13  C   UNL     1       6.226  29.769  57.245  1.00  0.00     0.077 A 
HETATM   14  S   UNL     1       7.702  29.204  56.576  1.00  0.00    -0.055 SA
HETATM   15  C   UNL     1       8.680  30.216  57.633  1.00  0.00     0.148 A 
HETATM   16  N   UNL     1       7.859  30.997  58.419  1.00  0.00    -0.298 N 
HETATM   17  S   UNL     1      10.348  30.171  57.614  1.00  0.00    -0.052 SA
HETATM   18  C   UNL     1       6.500  30.771  58.308  1.00  0.00     0.266 A 
HETATM   19  O   UNL     1       5.626  31.314  58.970  1.00  0.00    -0.266 OA
BRANCH  16  20
HETATM   20  C   UNL     1       8.313  32.061  59.318  1.00  0.00     0.138 C 
BRANCH  20  21
HETATM   21  C   UNL     1       8.663  31.548  60.718  1.00  0.00     0.059 C 
BRANCH  21  22
HETATM   22  C   UNL     1       7.950  32.348  61.782  1.00  0.00    -0.057 A 
HETATM   23  C   UNL     1       8.341  32.246  63.122  1.00  0.00     0.010 A 
HETATM   24  C   UNL     1       7.659  32.956  64.113  1.00  0.00     0.037 A 
HETATM   25  C   UNL     1       6.589  33.788  63.783  1.00  0.00     0.068 A 
HETATM   26  C   UNL     1       6.193  33.891  62.450  1.00  0.00     0.037 A 
HETATM   27  C   UNL     1       6.869  33.174  61.454  1.00  0.00     0.010 A 
BRANCH  25  28
HETATM   28  O   UNL     1       6.013  34.428  64.846  1.00  0.00    -0.356 OA
HETATM   29  C   UNL     1       4.835  33.840  65.383  1.00  0.00     0.210 C 
ENDBRANCH  25  28
ENDBRANCH  21  22
ENDBRANCH  20  21
ENDBRANCH  16  20
ENDBRANCH  12  13
ENDBRANCH   1  12
BRANCH  11  30
HETATM   30  N   UNL     1       4.774  26.990  55.320  1.00  0.00    -0.274 NA
HETATM   31  H   UNL     1       5.152  27.180  56.251  1.00  0.00     0.129 HD
BRANCH  30  32
HETATM   32  C   UNL     1       5.752  26.141  54.611  1.00  0.00     0.130 C 
BRANCH  32  33
HETATM   33  C   UNL     1       6.563  25.235  55.572  1.00  0.00     0.164 C 
BRANCH  33  34
HETATM   34  O   UNL     1       5.756  24.866  56.700  1.00  0.00    -0.390 OA
HETATM   35  H   UNL     1       6.149  24.031  57.029  1.00  0.00     0.210 HD
ENDBRANCH  33  34
BRANCH  33  36
HETATM   36  C   UNL     1       7.077  24.002  54.857  1.00  0.00    -0.029 A 
HETATM   37  C   UNL     1       7.390  22.847  55.594  1.00  0.00     0.010 A 
HETATM   38  C   UNL     1       7.895  21.711  54.958  1.00  0.00     0.001 A 
HETATM   39  C   UNL     1       8.092  21.711  53.579  1.00  0.00     0.000 A 
HETATM   40  C   UNL     1       7.785  22.847  52.834  1.00  0.00     0.001 A 
HETATM   41  C   UNL     1       7.284  23.985  53.469  1.00  0.00     0.010 A 
ENDBRANCH  33  36
ENDBRANCH  32  33
ENDBRANCH  30  32
ENDBRANCH  11  30
TORSDOF 11
ENDMDL
MODEL 10
REMARK VINA RESULT:      -9.5      3.542     10.475
REMARK  11 active torsions:
REMARK  status: ('A' for Active; 'I' for Inactive)
REMARK    1  A    between atoms: O_2  and  C_3 
REMARK    2  A    between atoms: C_6  and  C_7 
REMARK    3  A    between atoms: C_7  and  C_8 
REMARK    4  A    between atoms: C_8  and  N_9 
REMARK    5  A    between atoms: C_13  and  C_14 
REMARK    6  A    between atoms: C_14  and  C_15 
REMARK    7  A    between atoms: C_25  and  N_26 
REMARK    8  A    between atoms: N_26  and  C_27 
REMARK    9  A    between atoms: C_27  and  C_28 
REMARK   10  A    between atoms: C_28  and  O_29 
REMARK   11  A    between atoms: C_28  and  C_30 
ROOT
HETATM    1  C   UNL     1       7.688  24.938  54.616  1.00  0.00     0.074 A 
HETATM    2  C   UNL     1       8.136  23.699  53.909  1.00  0.00     0.266 A 
HETATM    3  O   UNL     1       8.338  23.730  52.692  1.00  0.00    -0.267 OA
HETATM    4  N   UNL     1       8.295  22.568  54.689  1.00  0.00    -0.273 N 
HETATM    5  C   UNL     1       7.992  22.624  56.036  1.00  0.00     0.138 A 
HETATM    6  N   UNL     1       7.562  23.683  56.646  1.00  0.00    -0.218 NA
HETATM    7  C   UNL     1       8.741  21.390  54.100  1.00  0.00     0.102 A 
HETATM    8  C   UNL     1       8.903  20.264  54.807  1.00  0.00     0.018 A 
HETATM    9  C   UNL     1       8.608  20.258  56.216  1.00  0.00     0.005 A 
HETATM   10  C   UNL     1       8.173  21.369  56.822  1.00  0.00     0.051 A 
HETATM   11  C   UNL     1       7.410  24.844  55.935  1.00  0.00     0.121 A 
ENDROOT
BRANCH   1  12
HETATM   12  C   UNL     1       7.574  26.140  53.802  1.00  0.00     0.045 C 
BRANCH  12  13
HETATM   13  C   UNL     1       6.465  26.668  53.273  1.00  0.00     0.077 A 
HETATM   14  S   UNL     1       5.480  27.938  53.874  1.00  0.00    -0.055 SA
HETATM   15  C   UNL     1       4.445  27.939  52.451  1.00  0.00     0.148 A 
HETATM   16  N   UNL     1       4.913  27.021  51.535  1.00  0.00    -0.298 N 
HETATM   17  S   UNL     1       3.118  28.942  52.317  1.00  0.00    -0.052 SA
HETATM   18  C   UNL     1       5.983  26.241  51.933  1.00  0.00     0.266 A 
HETATM   19  O   UNL     1       6.487  25.332  51.288  1.00  0.00    -0.266 OA
BRANCH  16  20
HETATM   20  C   UNL     1       4.393  26.842  50.177  1.00  0.00     0.138 C 
BRANCH  20  21
HETATM   21  C   UNL     1       4.621  28.068  49.286  1.00  0.00     0.059 C 
BRANCH  21  22
HETATM   22  C   UNL     1       3.426  28.321  48.397  1.00  0.00    -0.057 A 
HETATM   23  C   UNL     1       2.350  27.426  48.392  1.00  0.00     0.010 A 
HETATM   24  C   UNL     1       1.260  27.637  47.544  1.00  0.00     0.037 A 
HETATM   25  C   UNL     1       1.219  28.748  46.701  1.00  0.00     0.068 A 
HETATM   26  C   UNL     1       2.290  29.642  46.701  1.00  0.00     0.037 A 
HETATM   27  C   UNL     1       3.389  29.428  47.543  1.00  0.00     0.010 A 
BRANCH  25  28
HETATM   28  O   UNL     1       0.096  28.838  45.927  1.00  0.00    -0.356 OA
HETATM   29  C   UNL     1      -0.423  27.620  45.409  1.00  0.00     0.210 C 
ENDBRANCH  25  28
ENDBRANCH  21  22
ENDBRANCH  20  21
ENDBRANCH  16  20
ENDBRANCH  12  13
ENDBRANCH   1  12
BRANCH  11  30
HETATM   30  N   UNL     1       6.957  25.929  56.678  1.00  0.00    -0.274 NA
HETATM   31  H   UNL     1       6.345  26.466  56.059  1.00  0.00     0.129 HD
BRANCH  30  32
HETATM   32  C   UNL     1       7.894  26.882  57.306  1.00  0.00     0.130 C 
BRANCH  32  33
HETATM   33  C   UNL     1       7.482  28.359  57.085  1.00  0.00     0.164 C 
BRANCH  33  34
HETATM   34  O   UNL     1       6.315  28.667  57.863  1.00  0.00    -0.390 OA
HETATM   35  H   UNL     1       5.584  28.714  57.212  1.00  0.00     0.210 HD
ENDBRANCH  33  34
BRANCH  33  36
HETATM   36  C   UNL     1       8.617  29.301  57.431  1.00  0.00    -0.029 A 
HETATM   37  C   UNL     1       8.401  30.352  58.339  1.00  0.00     0.010 A 
HETATM   38  C   UNL     1       9.425  31.250  58.646  1.00  0.00     0.001 A 
HETATM   39  C   UNL     1      10.678  31.110  58.054  1.00  0.00     0.000 A 
HETATM   40  C   UNL     1      10.909  30.073  57.154  1.00  0.00     0.001 A 
HETATM   41  C   UNL     1       9.885  29.177  56.842  1.00  0.00     0.010 A 
ENDBRANCH  33  36
ENDBRANCH  32  33
ENDBRANCH  30  32
ENDBRANCH  11  30
TORSDOF 11
ENDMDL
