MODEL 1
REMARK VINA RESULT:      -9.1      0.000      0.000
REMARK  6 active torsions:
REMARK  status: ('A' for Active; 'I' for Inactive)
REMARK    1  A    between atoms: C_9  and  C_10 
REMARK       I    between atoms: C_10  and  N_11 
REMARK    2  A    between atoms: N_11  and  C_12 
REMARK    3  A    between atoms: C_12  and  C_13 
REMARK    4  A    between atoms: C_13  and  O_14 
REMARK    5  A    between atoms: C_13  and  C_15 
REMARK    6  A    between atoms: C_18  and  O_19 
ROOT
HETATM    1  C   UNL     1       6.836  28.122  54.375  1.00  0.00     0.258 C 
HETATM    2  N   UNL     1       6.465  26.805  54.494  1.00  0.00    -0.350 N 
HETATM    3  O   UNL     1       7.208  28.614  53.313  1.00  0.00    -0.267 OA
HETATM    4  H   UNL     1       6.066  26.502  55.382  1.00  0.00     0.163 HD
ENDROOT
BRANCH   2   5
HETATM    5  C   UNL     1       6.305  25.920  53.344  1.00  0.00     0.114 C 
HETATM    6  C   UNL     1       5.264  24.849  53.683  1.00  0.00     0.035 C 
BRANCH   5   7
HETATM    7  C   UNL     1       7.648  25.265  52.923  1.00  0.00     0.173 C 
BRANCH   7   8
HETATM    8  O   UNL     1       7.768  25.229  51.494  1.00  0.00    -0.389 OA
HETATM    9  H   UNL     1       8.146  24.361  51.271  1.00  0.00     0.210 HD
ENDBRANCH   7   8
BRANCH   7  10
HETATM   10  C   UNL     1       7.852  23.882  53.513  1.00  0.00    -0.028 A 
HETATM   11  C   UNL     1       8.166  23.742  54.871  1.00  0.00     0.012 A 
HETATM   12  C   UNL     1       8.352  22.475  55.430  1.00  0.00     0.037 A 
HETATM   13  C   UNL     1       8.224  21.325  54.648  1.00  0.00     0.068 A 
HETATM   14  C   UNL     1       7.898  21.453  53.299  1.00  0.00     0.037 A 
HETATM   15  C   UNL     1       7.709  22.721  52.738  1.00  0.00     0.012 A 
BRANCH  13  16
HETATM   16  O   UNL     1       8.438  20.153  55.320  1.00  0.00    -0.356 OA
HETATM   17  C   UNL     1       9.083  20.245  56.584  1.00  0.00     0.210 C 
ENDBRANCH  13  16
ENDBRANCH   7  10
ENDBRANCH   5   7
ENDBRANCH   2   5
BRANCH   1  18
HETATM   18  C   UNL     1       6.738  28.905  55.597  1.00  0.00     0.105 A 
HETATM   19  C   UNL     1       7.770  29.383  56.386  1.00  0.00     0.169 A 
HETATM   20  N   UNL     1       9.133  29.287  56.258  1.00  0.00    -0.233 NA
HETATM   21  N   UNL     1       7.170  30.027  57.474  1.00  0.00    -0.219 N 
HETATM   22  C   UNL     1       9.845  29.802  57.219  1.00  0.00     0.035 A 
HETATM   23  C   UNL     1      11.347  29.723  57.110  1.00  0.00     0.070 C 
HETATM   24  C   UNL     1       9.290  30.499  58.420  1.00  0.00     0.053 A 
HETATM   25  C   UNL     1       7.950  30.587  58.497  1.00  0.00     0.036 A 
HETATM   26  C   UNL     1       7.243  31.250  59.638  1.00  0.00     0.070 C 
HETATM   27  N   UNL     1       5.819  30.014  57.379  1.00  0.00    -0.170 NA
HETATM   28  C   UNL     1       5.558  29.333  56.258  1.00  0.00     0.071 A 
HETATM   29  C   UNL     1       4.149  29.103  55.844  1.00  0.00     0.073 C 
ENDBRANCH   1  18
TORSDOF 6
ENDMDL
MODEL 2
REMARK VINA RESULT:      -9.0      1.719      3.344
REMARK  6 active torsions:
REMARK  status: ('A' for Active; 'I' for Inactive)
REMARK    1  A    between atoms: C_9  and  C_10 
REMARK       I    between atoms: C_10  and  N_11 
REMARK    2  A    between atoms: N_11  and  C_12 
REMARK    3  A    between atoms: C_12  and  C_13 
REMARK    4  A    between atoms: C_13  and  O_14 
REMARK    5  A    between atoms: C_13  and  C_15 
REMARK    6  A    between atoms: C_18  and  O_19 
ROOT
HETATM    1  C   UNL     1       7.833  28.661  55.360  1.00  0.00     0.258 C 
HETATM    2  N   UNL     1       6.658  27.950  55.394  1.00  0.00    -0.350 N 
HETATM    3  O   UNL     1       8.597  28.635  54.400  1.00  0.00    -0.267 OA
HETATM    4  H   UNL     1       6.028  28.110  56.180  1.00  0.00     0.163 HD
ENDROOT
BRANCH   2   5
HETATM    5  C   UNL     1       6.124  27.246  54.232  1.00  0.00     0.114 C 
HETATM    6  C   UNL     1       5.067  28.128  53.561  1.00  0.00     0.035 C 
BRANCH   5   7
HETATM    7  C   UNL     1       5.524  25.867  54.613  1.00  0.00     0.173 C 
BRANCH   7   8
HETATM    8  O   UNL     1       5.071  25.869  55.974  1.00  0.00    -0.389 OA
HETATM    9  H   UNL     1       5.316  26.734  56.345  1.00  0.00     0.210 HD
ENDBRANCH   7   8
BRANCH   7  10
HETATM   10  C   UNL     1       6.476  24.710  54.368  1.00  0.00    -0.028 A 
HETATM   11  C   UNL     1       6.946  24.456  53.073  1.00  0.00     0.012 A 
HETATM   12  C   UNL     1       7.827  23.399  52.832  1.00  0.00     0.037 A 
HETATM   13  C   UNL     1       8.259  22.577  53.876  1.00  0.00     0.068 A 
HETATM   14  C   UNL     1       7.807  22.831  55.171  1.00  0.00     0.037 A 
HETATM   15  C   UNL     1       6.927  23.892  55.415  1.00  0.00     0.012 A 
BRANCH  13  16
HETATM   16  O   UNL     1       9.113  21.579  53.500  1.00  0.00    -0.356 OA
HETATM   17  C   UNL     1       8.525  20.379  53.014  1.00  0.00     0.210 C 
ENDBRANCH  13  16
ENDBRANCH   7  10
ENDBRANCH   5   7
ENDBRANCH   2   5
BRANCH   1  18
HETATM   18  C   UNL     1       8.100  29.469  56.540  1.00  0.00     0.105 A 
HETATM   19  C   UNL     1       7.191  30.167  57.316  1.00  0.00     0.169 A 
HETATM   20  N   UNL     1       5.827  30.292  57.229  1.00  0.00    -0.233 NA
HETATM   21  N   UNL     1       7.935  30.829  58.299  1.00  0.00    -0.219 N 
HETATM   22  C   UNL     1       5.259  31.084  58.092  1.00  0.00     0.035 A 
HETATM   23  C   UNL     1       3.760  31.241  58.033  1.00  0.00     0.070 C 
HETATM   24  C   UNL     1       5.976  31.837  59.168  1.00  0.00     0.053 A 
HETATM   25  C   UNL     1       7.309  31.672  59.229  1.00  0.00     0.036 A 
HETATM   26  C   UNL     1       8.167  32.359  60.245  1.00  0.00     0.070 C 
HETATM   27  N   UNL     1       9.256  30.543  58.201  1.00  0.00    -0.170 NA
HETATM   28  C   UNL     1       9.357  29.735  57.141  1.00  0.00     0.071 A 
HETATM   29  C   UNL     1      10.691  29.230  56.721  1.00  0.00     0.073 C 
ENDBRANCH   1  18
TORSDOF 6
ENDMDL
MODEL 3
REMARK VINA RESULT:      -8.7      2.171      3.188
REMARK  6 active torsions:
REMARK  status: ('A' for Active; 'I' for Inactive)
REMARK    1  A    between atoms: C_9  and  C_10 
REMARK       I    between atoms: C_10  and  N_11 
REMARK    2  A    between atoms: N_11  and  C_12 
REMARK    3  A    between atoms: C_12  and  C_13 
REMARK    4  A    between atoms: C_13  and  O_14 
REMARK    5  A    between atoms: C_13  and  C_15 
REMARK    6  A    between atoms: C_18  and  O_19 
ROOT
HETATM    1  C   UNL     1       7.817  29.277  56.894  1.00  0.00     0.258 C 
HETATM    2  N   UNL     1       7.011  28.202  56.606  1.00  0.00    -0.350 N 
HETATM    3  O   UNL     1       8.965  29.379  56.471  1.00  0.00    -0.267 OA
HETATM    4  H   UNL     1       6.037  28.244  56.905  1.00  0.00     0.163 HD
ENDROOT
BRANCH   2   5
HETATM    5  C   UNL     1       7.376  27.176  55.634  1.00  0.00     0.114 C 
HETATM    6  C   UNL     1       7.065  27.695  54.227  1.00  0.00     0.035 C 
BRANCH   5   7
HETATM    7  C   UNL     1       6.642  25.836  55.900  1.00  0.00     0.173 C 
BRANCH   7   8
HETATM    8  O   UNL     1       6.450  25.633  57.307  1.00  0.00    -0.389 OA
HETATM    9  H   UNL     1       7.308  25.810  57.731  1.00  0.00     0.210 HD
ENDBRANCH   7   8
BRANCH   7  10
HETATM   10  C   UNL     1       7.334  24.638  55.276  1.00  0.00    -0.028 A 
HETATM   11  C   UNL     1       6.948  24.193  54.005  1.00  0.00     0.012 A 
HETATM   12  C   UNL     1       7.578  23.096  53.414  1.00  0.00     0.037 A 
HETATM   13  C   UNL     1       8.607  22.423  54.076  1.00  0.00     0.068 A 
HETATM   14  C   UNL     1       9.008  22.866  55.336  1.00  0.00     0.037 A 
HETATM   15  C   UNL     1       8.380  23.968  55.928  1.00  0.00     0.012 A 
BRANCH  13  16
HETATM   16  O   UNL     1       9.132  21.364  53.388  1.00  0.00    -0.356 OA
HETATM   17  C   UNL     1       8.220  20.361  52.960  1.00  0.00     0.210 C 
ENDBRANCH  13  16
ENDBRANCH   7  10
ENDBRANCH   5   7
ENDBRANCH   2   5
BRANCH   1  18
HETATM   18  C   UNL     1       7.204  30.304  57.722  1.00  0.00     0.105 A 
HETATM   19  C   UNL     1       7.549  30.678  59.009  1.00  0.00     0.169 A 
HETATM   20  N   UNL     1       8.536  30.230  59.852  1.00  0.00    -0.233 NA
HETATM   21  N   UNL     1       6.637  31.666  59.393  1.00  0.00    -0.219 N 
HETATM   22  C   UNL     1       8.563  30.752  61.045  1.00  0.00     0.035 A 
HETATM   23  C   UNL     1       9.637  30.292  61.998  1.00  0.00     0.070 C 
HETATM   24  C   UNL     1       7.623  31.805  61.542  1.00  0.00     0.053 A 
HETATM   25  C   UNL     1       6.684  32.228  60.678  1.00  0.00     0.036 A 
HETATM   26  C   UNL     1       5.669  33.271  61.027  1.00  0.00     0.070 C 
HETATM   27  N   UNL     1       5.769  31.959  58.395  1.00  0.00    -0.170 NA
HETATM   28  C   UNL     1       6.102  31.136  57.395  1.00  0.00     0.071 A 
HETATM   29  C   UNL     1       5.333  31.170  56.123  1.00  0.00     0.073 C 
ENDBRANCH   1  18
TORSDOF 6
ENDMDL
MODEL 4
REMARK VINA RESULT:      -8.7      4.092      6.985
REMARK  6 active torsions:
REMARK  status: ('A' for Active; 'I' for Inactive)
REMARK    1  A    between atoms: C_9  and  C_10 
REMARK       I    between atoms: C_10  and  N_11 
REMARK    2  A    between atoms: N_11  and  C_12 
REMARK    3  A    between atoms: C_12  and  C_13 
REMARK    4  A    between atoms: C_13  and  O_14 
REMARK    5  A    between atoms: C_13  and  C_15 
REMARK    6  A    between atoms: C_18  and  O_19 
ROOT
HETATM    1  C   UNL     1       7.392  31.827  59.601  1.00  0.00     0.258 C 
HETATM    2  N   UNL     1       6.183  31.360  59.145  1.00  0.00    -0.350 N 
HETATM    3  O   UNL     1       8.359  31.997  58.865  1.00  0.00    -0.267 OA
HETATM    4  H   UNL     1       5.400  31.350  59.799  1.00  0.00     0.163 HD
ENDROOT
BRANCH   2   5
HETATM    5  C   UNL     1       5.882  31.194  57.727  1.00  0.00     0.114 C 
HETATM    6  C   UNL     1       5.229  32.478  57.206  1.00  0.00     0.035 C 
BRANCH   5   7
HETATM    7  C   UNL     1       4.967  29.969  57.466  1.00  0.00     0.173 C 
BRANCH   7   8
HETATM    8  O   UNL     1       3.996  29.829  58.514  1.00  0.00    -0.389 OA
HETATM    9  H   UNL     1       3.124  29.822  58.083  1.00  0.00     0.210 HD
ENDBRANCH   7   8
BRANCH   7  10
HETATM   10  C   UNL     1       5.736  28.674  57.274  1.00  0.00    -0.028 A 
HETATM   11  C   UNL     1       5.092  27.554  56.735  1.00  0.00     0.012 A 
HETATM   12  C   UNL     1       5.788  26.357  56.547  1.00  0.00     0.037 A 
HETATM   13  C   UNL     1       7.138  26.255  56.888  1.00  0.00     0.068 A 
HETATM   14  C   UNL     1       7.792  27.369  57.413  1.00  0.00     0.037 A 
HETATM   15  C   UNL     1       7.098  28.571  57.599  1.00  0.00     0.012 A 
BRANCH  13  16
HETATM   16  O   UNL     1       7.694  25.027  56.658  1.00  0.00    -0.356 OA
HETATM   17  C   UNL     1       6.975  24.147  55.803  1.00  0.00     0.210 C 
ENDBRANCH  13  16
ENDBRANCH   7  10
ENDBRANCH   5   7
ENDBRANCH   2   5
BRANCH   1  18
HETATM   18  C   UNL     1       7.441  32.130  61.023  1.00  0.00     0.105 A 
HETATM   19  C   UNL     1       6.668  33.037  61.727  1.00  0.00     0.169 A 
HETATM   20  N   UNL     1       5.657  33.875  61.325  1.00  0.00    -0.233 NA
HETATM   21  N   UNL     1       7.124  33.005  63.049  1.00  0.00    -0.219 N 
HETATM   22  C   UNL     1       5.161  34.665  62.234  1.00  0.00     0.035 A 
HETATM   23  C   UNL     1       4.044  35.595  61.833  1.00  0.00     0.070 C 
HETATM   24  C   UNL     1       5.593  34.704  63.665  1.00  0.00     0.053 A 
HETATM   25  C   UNL     1       6.573  33.854  64.020  1.00  0.00     0.036 A 
HETATM   26  C   UNL     1       7.117  33.777  65.413  1.00  0.00     0.070 C 
HETATM   27  N   UNL     1       8.111  32.092  63.214  1.00  0.00    -0.170 NA
HETATM   28  C   UNL     1       8.308  31.573  61.998  1.00  0.00     0.071 A 
HETATM   29  C   UNL     1       9.352  30.533  61.799  1.00  0.00     0.073 C 
ENDBRANCH   1  18
TORSDOF 6
ENDMDL
MODEL 5
REMARK VINA RESULT:      -8.7      2.717      8.381
REMARK  6 active torsions:
REMARK  status: ('A' for Active; 'I' for Inactive)
REMARK    1  A    between atoms: C_9  and  C_10 
REMARK       I    between atoms: C_10  and  N_11 
REMARK    2  A    between atoms: N_11  and  C_12 
REMARK    3  A    between atoms: C_12  and  C_13 
REMARK    4  A    between atoms: C_13  and  O_14 
REMARK    5  A    between atoms: C_13  and  C_15 
REMARK    6  A    between atoms: C_18  and  O_19 
ROOT
HETATM    1  C   UNL     1       6.785  25.890  54.951  1.00  0.00     0.258 C 
HETATM    2  N   UNL     1       7.868  26.622  55.374  1.00  0.00    -0.350 N 
HETATM    3  O   UNL     1       5.627  26.260  55.118  1.00  0.00    -0.267 OA
HETATM    4  H   UNL     1       8.796  26.299  55.101  1.00  0.00     0.163 HD
ENDROOT
BRANCH   2   5
HETATM    5  C   UNL     1       7.751  27.980  55.896  1.00  0.00     0.114 C 
HETATM    6  C   UNL     1       8.625  28.912  55.052  1.00  0.00     0.035 C 
BRANCH   5   7
HETATM    7  C   UNL     1       8.148  28.064  57.393  1.00  0.00     0.173 C 
BRANCH   7   8
HETATM    8  O   UNL     1       7.682  26.909  58.106  1.00  0.00    -0.389 OA
HETATM    9  H   UNL     1       7.930  27.041  59.038  1.00  0.00     0.210 HD
ENDBRANCH   7   8
BRANCH   7  10
HETATM   10  C   UNL     1       7.674  29.337  58.070  1.00  0.00    -0.028 A 
HETATM   11  C   UNL     1       6.461  29.922  57.684  1.00  0.00     0.012 A 
HETATM   12  C   UNL     1       6.008  31.091  58.301  1.00  0.00     0.037 A 
HETATM   13  C   UNL     1       6.752  31.696  59.317  1.00  0.00     0.068 A 
HETATM   14  C   UNL     1       7.953  31.113  59.718  1.00  0.00     0.037 A 
HETATM   15  C   UNL     1       8.407  29.940  59.103  1.00  0.00     0.012 A 
BRANCH  13  16
HETATM   16  O   UNL     1       6.196  32.835  59.829  1.00  0.00    -0.356 OA
HETATM   17  C   UNL     1       4.982  32.688  60.554  1.00  0.00     0.210 C 
ENDBRANCH  13  16
ENDBRANCH   7  10
ENDBRANCH   5   7
ENDBRANCH   2   5
BRANCH   1  18
HETATM   18  C   UNL     1       7.109  24.648  54.267  1.00  0.00     0.105 A 
HETATM   19  C   UNL     1       7.498  23.444  54.828  1.00  0.00     0.169 A 
HETATM   20  N   UNL     1       7.674  23.064  56.136  1.00  0.00    -0.233 NA
HETATM   21  N   UNL     1       7.746  22.571  53.762  1.00  0.00    -0.219 N 
HETATM   22  C   UNL     1       8.113  21.855  56.336  1.00  0.00     0.035 A 
HETATM   23  C   UNL     1       8.311  21.398  57.760  1.00  0.00     0.070 C 
HETATM   24  C   UNL     1       8.412  20.861  55.259  1.00  0.00     0.053 A 
HETATM   25  C   UNL     1       8.208  21.268  53.994  1.00  0.00     0.036 A 
HETATM   26  C   UNL     1       8.466  20.392  52.807  1.00  0.00     0.070 C 
HETATM   27  N   UNL     1       7.487  23.157  52.569  1.00  0.00    -0.170 NA
HETATM   28  C   UNL     1       7.114  24.405  52.869  1.00  0.00     0.071 A 
HETATM   29  C   UNL     1       6.767  25.355  51.780  1.00  0.00     0.073 C 
ENDBRANCH   1  18
TORSDOF 6
ENDMDL
MODEL 6
REMARK VINA RESULT:      -8.5      2.708      4.399
REMARK  6 active torsions:
REMARK  status: ('A' for Active; 'I' for Inactive)
REMARK    1  A    between atoms: C_9  and  C_10 
REMARK       I    between atoms: C_10  and  N_11 
REMARK    2  A    between atoms: N_11  and  C_12 
REMARK    3  A    between atoms: C_12  and  C_13 
REMARK    4  A    between atoms: C_13  and  O_14 
REMARK    5  A    between atoms: C_13  and  C_15 
REMARK    6  A    between atoms: C_18  and  O_19 
ROOT
HETATM    1  C   UNL     1       8.394  29.482  58.238  1.00  0.00     0.258 C 
HETATM    2  N   UNL     1       7.635  28.369  57.965  1.00  0.00    -0.350 N 
HETATM    3  O   UNL     1       9.545  29.616  57.835  1.00  0.00    -0.267 OA
HETATM    4  H   UNL     1       6.655  28.382  58.243  1.00  0.00     0.163 HD
ENDROOT
BRANCH   2   5
HETATM    5  C   UNL     1       8.058  27.332  57.029  1.00  0.00     0.114 C 
HETATM    6  C   UNL     1       7.706  27.775  55.606  1.00  0.00     0.035 C 
BRANCH   5   7
HETATM    7  C   UNL     1       7.413  25.959  57.351  1.00  0.00     0.173 C 
BRANCH   7   8
HETATM    8  O   UNL     1       7.955  25.416  58.564  1.00  0.00    -0.389 OA
HETATM    9  H   UNL     1       7.807  26.083  59.256  1.00  0.00     0.210 HD
ENDBRANCH   7   8
BRANCH   7  10
HETATM   10  C   UNL     1       7.531  24.958  56.217  1.00  0.00    -0.028 A 
HETATM   11  C   UNL     1       8.640  24.104  56.153  1.00  0.00     0.012 A 
HETATM   12  C   UNL     1       8.762  23.174  55.118  1.00  0.00     0.037 A 
HETATM   13  C   UNL     1       7.779  23.073  54.131  1.00  0.00     0.068 A 
HETATM   14  C   UNL     1       6.665  23.908  54.193  1.00  0.00     0.037 A 
HETATM   15  C   UNL     1       6.540  24.839  55.231  1.00  0.00     0.012 A 
BRANCH  13  16
HETATM   16  O   UNL     1       8.026  22.126  53.176  1.00  0.00    -0.356 OA
HETATM   17  C   UNL     1       8.592  20.899  53.619  1.00  0.00     0.210 C 
ENDBRANCH  13  16
ENDBRANCH   7  10
ENDBRANCH   5   7
ENDBRANCH   2   5
BRANCH   1  18
HETATM   18  C   UNL     1       7.726  30.507  59.025  1.00  0.00     0.105 A 
HETATM   19  C   UNL     1       6.598  31.236  58.689  1.00  0.00     0.169 A 
HETATM   20  N   UNL     1       5.794  31.208  57.577  1.00  0.00    -0.233 NA
HETATM   21  N   UNL     1       6.377  32.131  59.742  1.00  0.00    -0.219 N 
HETATM   22  C   UNL     1       4.827  32.079  57.536  1.00  0.00     0.035 A 
HETATM   23  C   UNL     1       3.917  32.074  56.334  1.00  0.00     0.070 C 
HETATM   24  C   UNL     1       4.524  33.076  58.610  1.00  0.00     0.053 A 
HETATM   25  C   UNL     1       5.325  33.057  59.690  1.00  0.00     0.036 A 
HETATM   26  C   UNL     1       5.154  33.994  60.845  1.00  0.00     0.070 C 
HETATM   27  N   UNL     1       7.283  31.964  60.736  1.00  0.00    -0.170 NA
HETATM   28  C   UNL     1       8.098  30.997  60.303  1.00  0.00     0.071 A 
HETATM   29  C   UNL     1       9.241  30.561  61.147  1.00  0.00     0.073 C 
ENDBRANCH   1  18
TORSDOF 6
ENDMDL
MODEL 7
REMARK VINA RESULT:      -8.4      2.782      8.212
REMARK  6 active torsions:
REMARK  status: ('A' for Active; 'I' for Inactive)
REMARK    1  A    between atoms: C_9  and  C_10 
REMARK       I    between atoms: C_10  and  N_11 
REMARK    2  A    between atoms: N_11  and  C_12 
REMARK    3  A    between atoms: C_12  and  C_13 
REMARK    4  A    between atoms: C_13  and  O_14 
REMARK    5  A    between atoms: C_13  and  C_15 
REMARK    6  A    between atoms: C_18  and  O_19 
ROOT
HETATM    1  C   UNL     1       7.327  26.515  56.973  1.00  0.00     0.258 C 
HETATM    2  N   UNL     1       6.509  27.325  56.222  1.00  0.00    -0.350 N 
HETATM    3  O   UNL     1       7.621  26.766  58.138  1.00  0.00    -0.267 OA
HETATM    4  H   UNL     1       6.226  26.991  55.301  1.00  0.00     0.163 HD
ENDROOT
BRANCH   2   5
HETATM    5  C   UNL     1       5.775  28.452  56.788  1.00  0.00     0.114 C 
HETATM    6  C   UNL     1       4.376  28.495  56.166  1.00  0.00     0.035 C 
BRANCH   5   7
HETATM    7  C   UNL     1       6.515  29.798  56.568  1.00  0.00     0.173 C 
BRANCH   7   8
HETATM    8  O   UNL     1       7.634  29.622  55.687  1.00  0.00    -0.389 OA
HETATM    9  H   UNL     1       8.112  30.469  55.675  1.00  0.00     0.210 HD
ENDBRANCH   7   8
BRANCH   7  10
HETATM   10  C   UNL     1       6.951  30.462  57.861  1.00  0.00    -0.028 A 
HETATM   11  C   UNL     1       6.253  31.577  58.342  1.00  0.00     0.012 A 
HETATM   12  C   UNL     1       6.639  32.197  59.533  1.00  0.00     0.037 A 
HETATM   13  C   UNL     1       7.724  31.715  60.269  1.00  0.00     0.068 A 
HETATM   14  C   UNL     1       8.416  30.598  59.806  1.00  0.00     0.037 A 
HETATM   15  C   UNL     1       8.029  29.973  58.614  1.00  0.00     0.012 A 
BRANCH  13  16
HETATM   16  O   UNL     1       7.995  32.418  61.410  1.00  0.00    -0.356 OA
HETATM   17  C   UNL     1       6.938  33.201  61.950  1.00  0.00     0.210 C 
ENDBRANCH  13  16
ENDBRANCH   7  10
ENDBRANCH   5   7
ENDBRANCH   2   5
BRANCH   1  18
HETATM   18  C   UNL     1       7.806  25.321  56.294  1.00  0.00     0.105 A 
HETATM   19  C   UNL     1       7.636  24.972  54.966  1.00  0.00     0.169 A 
HETATM   20  N   UNL     1       7.011  25.618  53.928  1.00  0.00    -0.233 NA
HETATM   21  N   UNL     1       8.229  23.714  54.808  1.00  0.00    -0.219 N 
HETATM   22  C   UNL     1       6.971  24.987  52.790  1.00  0.00     0.035 A 
HETATM   23  C   UNL     1       6.300  25.668  51.624  1.00  0.00     0.070 C 
HETATM   24  C   UNL     1       7.568  23.640  52.534  1.00  0.00     0.053 A 
HETATM   25  C   UNL     1       8.187  23.050  53.573  1.00  0.00     0.036 A 
HETATM   26  C   UNL     1       8.829  21.701  53.477  1.00  0.00     0.070 C 
HETATM   27  N   UNL     1       8.797  23.283  55.959  1.00  0.00    -0.170 NA
HETATM   28  C   UNL     1       8.537  24.242  56.854  1.00  0.00     0.071 A 
HETATM   29  C   UNL     1       9.005  24.090  58.257  1.00  0.00     0.073 C 
ENDBRANCH   1  18
TORSDOF 6
ENDMDL
MODEL 8
REMARK VINA RESULT:      -8.3      2.007      2.434
REMARK  6 active torsions:
REMARK  status: ('A' for Active; 'I' for Inactive)
REMARK    1  A    between atoms: C_9  and  C_10 
REMARK       I    between atoms: C_10  and  N_11 
REMARK    2  A    between atoms: N_11  and  C_12 
REMARK    3  A    between atoms: C_12  and  C_13 
REMARK    4  A    between atoms: C_13  and  O_14 
REMARK    5  A    between atoms: C_13  and  C_15 
REMARK    6  A    between atoms: C_18  and  O_19 
ROOT
HETATM    1  C   UNL     1       4.868  28.136  53.350  1.00  0.00     0.258 C 
HETATM    2  N   UNL     1       5.924  27.486  52.759  1.00  0.00    -0.350 N 
HETATM    3  O   UNL     1       3.709  28.006  52.966  1.00  0.00    -0.267 OA
HETATM    4  H   UNL     1       6.838  27.562  53.204  1.00  0.00     0.163 HD
ENDROOT
BRANCH   2   5
HETATM    5  C   UNL     1       5.750  26.452  51.744  1.00  0.00     0.114 C 
HETATM    6  C   UNL     1       4.773  26.960  50.681  1.00  0.00     0.035 C 
BRANCH   5   7
HETATM    7  C   UNL     1       5.250  25.116  52.355  1.00  0.00     0.173 C 
BRANCH   7   8
HETATM    8  O   UNL     1       4.045  25.322  53.106  1.00  0.00    -0.389 OA
HETATM    9  H   UNL     1       3.613  24.454  53.179  1.00  0.00     0.210 HD
ENDBRANCH   7   8
BRANCH   7  10
HETATM   10  C   UNL     1       6.296  24.415  53.203  1.00  0.00    -0.028 A 
HETATM   11  C   UNL     1       6.135  24.347  54.593  1.00  0.00     0.012 A 
HETATM   12  C   UNL     1       7.085  23.700  55.387  1.00  0.00     0.037 A 
HETATM   13  C   UNL     1       8.210  23.106  54.812  1.00  0.00     0.068 A 
HETATM   14  C   UNL     1       8.372  23.157  53.428  1.00  0.00     0.037 A 
HETATM   15  C   UNL     1       7.420  23.801  52.630  1.00  0.00     0.012 A 
BRANCH  13  16
HETATM   16  O   UNL     1       9.061  22.514  55.704  1.00  0.00    -0.356 OA
HETATM   17  C   UNL     1       8.528  21.462  56.498  1.00  0.00     0.210 C 
ENDBRANCH  13  16
ENDBRANCH   7  10
ENDBRANCH   5   7
ENDBRANCH   2   5
BRANCH   1  18
HETATM   18  C   UNL     1       5.217  28.976  54.485  1.00  0.00     0.105 A 
HETATM   19  C   UNL     1       6.092  28.690  55.518  1.00  0.00     0.169 A 
HETATM   20  N   UNL     1       6.875  27.590  55.770  1.00  0.00    -0.233 NA
HETATM   21  N   UNL     1       6.049  29.784  56.390  1.00  0.00    -0.219 N 
HETATM   22  C   UNL     1       7.556  27.602  56.879  1.00  0.00     0.035 A 
HETATM   23  C   UNL     1       8.433  26.415  57.187  1.00  0.00     0.070 C 
HETATM   24  C   UNL     1       7.561  28.722  57.871  1.00  0.00     0.053 A 
HETATM   25  C   UNL     1       6.796  29.788  57.577  1.00  0.00     0.036 A 
HETATM   26  C   UNL     1       6.692  30.985  58.469  1.00  0.00     0.070 C 
HETATM   27  N   UNL     1       5.225  30.755  55.929  1.00  0.00    -0.170 NA
HETATM   28  C   UNL     1       4.718  30.268  54.791  1.00  0.00     0.071 A 
HETATM   29  C   UNL     1       3.742  31.075  54.012  1.00  0.00     0.073 C 
ENDBRANCH   1  18
TORSDOF 6
ENDMDL
MODEL 9
REMARK VINA RESULT:      -8.3      3.432      6.223
REMARK  6 active torsions:
REMARK  status: ('A' for Active; 'I' for Inactive)
REMARK    1  A    between atoms: C_9  and  C_10 
REMARK       I    between atoms: C_10  and  N_11 
REMARK    2  A    between atoms: N_11  and  C_12 
REMARK    3  A    between atoms: C_12  and  C_13 
REMARK    4  A    between atoms: C_13  and  O_14 
REMARK    5  A    between atoms: C_13  and  C_15 
REMARK    6  A    between atoms: C_18  and  O_19 
ROOT
HETATM    1  C   UNL     1       5.479  28.166  53.779  1.00  0.00     0.258 C 
HETATM    2  N   UNL     1       6.704  27.951  54.364  1.00  0.00    -0.350 N 
HETATM    3  O   UNL     1       4.567  28.759  54.347  1.00  0.00    -0.267 OA
HETATM    4  H   UNL     1       7.442  27.548  53.787  1.00  0.00     0.163 HD
ENDROOT
BRANCH   2   5
HETATM    5  C   UNL     1       7.093  28.558  55.633  1.00  0.00     0.114 C 
HETATM    6  C   UNL     1       8.599  28.836  55.608  1.00  0.00     0.035 C 
BRANCH   5   7
HETATM    7  C   UNL     1       6.721  27.663  56.844  1.00  0.00     0.173 C 
BRANCH   7   8
HETATM    8  O   UNL     1       7.138  28.275  58.073  1.00  0.00    -0.389 OA
HETATM    9  H   UNL     1       7.321  29.208  57.869  1.00  0.00     0.210 HD
ENDBRANCH   7   8
BRANCH   7  10
HETATM   10  C   UNL     1       7.267  26.251  56.737  1.00  0.00    -0.028 A 
HETATM   11  C   UNL     1       6.560  25.283  56.012  1.00  0.00     0.012 A 
HETATM   12  C   UNL     1       7.051  23.980  55.900  1.00  0.00     0.037 A 
HETATM   13  C   UNL     1       8.257  23.618  56.504  1.00  0.00     0.068 A 
HETATM   14  C   UNL     1       8.975  24.577  57.217  1.00  0.00     0.037 A 
HETATM   15  C   UNL     1       8.486  25.884  57.328  1.00  0.00     0.012 A 
BRANCH  13  16
HETATM   16  O   UNL     1       8.617  22.312  56.320  1.00  0.00    -0.356 OA
HETATM   17  C   UNL     1       7.723  21.498  55.571  1.00  0.00     0.210 C 
ENDBRANCH  13  16
ENDBRANCH   7  10
ENDBRANCH   5   7
ENDBRANCH   2   5
BRANCH   1  18
HETATM   18  C   UNL     1       5.345  27.658  52.423  1.00  0.00     0.105 A 
HETATM   19  C   UNL     1       5.454  28.363  51.236  1.00  0.00     0.169 A 
HETATM   20  N   UNL     1       5.726  29.684  50.984  1.00  0.00    -0.233 NA
HETATM   21  N   UNL     1       5.192  27.450  50.208  1.00  0.00    -0.219 N 
HETATM   22  C   UNL     1       5.699  30.056  49.737  1.00  0.00     0.035 A 
HETATM   23  C   UNL     1       6.000  31.500  49.419  1.00  0.00     0.070 C 
HETATM   24  C   UNL     1       5.419  29.153  48.578  1.00  0.00     0.053 A 
HETATM   25  C   UNL     1       5.177  27.862  48.867  1.00  0.00     0.036 A 
HETATM   26  C   UNL     1       4.876  26.837  47.819  1.00  0.00     0.070 C 
HETATM   27  N   UNL     1       4.969  26.205  50.692  1.00  0.00    -0.170 NA
HETATM   28  C   UNL     1       5.052  26.330  52.021  1.00  0.00     0.071 A 
HETATM   29  C   UNL     1       4.838  25.142  52.889  1.00  0.00     0.073 C 
ENDBRANCH   1  18
TORSDOF 6
ENDMDL
MODEL 10
REMARK VINA RESULT:      -8.3      3.780      7.858
REMARK  6 active torsions:
REMARK  status: ('A' for Active; 'I' for Inactive)
REMARK    1  A    between atoms: C_9  and  C_10 
REMARK       I    between atoms: C_10  and  N_11 
REMARK    2  A    between atoms: N_11  and  C_12 
REMARK    3  A    between atoms: C_12  and  C_13 
REMARK    4  A    between atoms: C_13  and  O_14 
REMARK    5  A    between atoms: C_13  and  C_15 
REMARK    6  A    between atoms: C_18  and  O_19 
ROOT
HETATM    1  C   UNL     1       7.167  25.799  53.703  1.00  0.00     0.258 C 
HETATM    2  N   UNL     1       5.837  26.108  53.551  1.00  0.00    -0.350 N 
HETATM    3  O   UNL     1       8.046  26.286  52.999  1.00  0.00    -0.267 OA
HETATM    4  H   UNL     1       5.183  25.746  54.245  1.00  0.00     0.163 HD
ENDROOT
BRANCH   2   5
HETATM    5  C   UNL     1       5.366  27.170  52.668  1.00  0.00     0.114 C 
HETATM    6  C   UNL     1       4.103  27.792  53.269  1.00  0.00     0.035 C 
BRANCH   5   7
HETATM    7  C   UNL     1       5.093  26.653  51.231  1.00  0.00     0.173 C 
BRANCH   7   8
HETATM    8  O   UNL     1       6.179  25.835  50.771  1.00  0.00    -0.389 OA
HETATM    9  H   UNL     1       6.288  25.126  51.428  1.00  0.00     0.210 HD
ENDBRANCH   7   8
BRANCH   7  10
HETATM   10  C   UNL     1       4.801  27.763  50.238  1.00  0.00    -0.028 A 
HETATM   11  C   UNL     1       5.596  28.916  50.228  1.00  0.00     0.012 A 
HETATM   12  C   UNL     1       5.345  29.944  49.316  1.00  0.00     0.037 A 
HETATM   13  C   UNL     1       4.300  29.842  48.396  1.00  0.00     0.068 A 
HETATM   14  C   UNL     1       3.512  28.692  48.388  1.00  0.00     0.037 A 
HETATM   15  C   UNL     1       3.764  27.659  49.299  1.00  0.00     0.012 A 
BRANCH  13  16
HETATM   16  O   UNL     1       4.162  30.921  47.567  1.00  0.00    -0.356 OA
HETATM   17  C   UNL     1       5.056  32.007  47.772  1.00  0.00     0.210 C 
ENDBRANCH  13  16
ENDBRANCH   7  10
ENDBRANCH   5   7
ENDBRANCH   2   5
BRANCH   1  18
HETATM   18  C   UNL     1       7.465  24.865  54.778  1.00  0.00     0.105 A 
HETATM   19  C   UNL     1       7.750  23.514  54.676  1.00  0.00     0.169 A 
HETATM   20  N   UNL     1       7.851  22.685  53.586  1.00  0.00    -0.233 NA
HETATM   21  N   UNL     1       7.912  23.043  55.984  1.00  0.00    -0.219 N 
HETATM   22  C   UNL     1       8.078  21.427  53.832  1.00  0.00     0.035 A 
HETATM   23  C   UNL     1       8.203  20.486  52.660  1.00  0.00     0.070 C 
HETATM   24  C   UNL     1       8.254  20.837  55.195  1.00  0.00     0.053 A 
HETATM   25  C   UNL     1       8.166  21.687  56.233  1.00  0.00     0.036 A 
HETATM   26  C   UNL     1       8.315  21.249  57.657  1.00  0.00     0.070 C 
HETATM   27  N   UNL     1       7.787  24.041  56.891  1.00  0.00    -0.170 NA
HETATM   28  C   UNL     1       7.510  25.132  56.170  1.00  0.00     0.071 A 
HETATM   29  C   UNL     1       7.286  26.433  56.854  1.00  0.00     0.073 C 
ENDBRANCH   1  18
TORSDOF 6
ENDMDL
