MODEL 1
REMARK VINA RESULT:      -9.2      0.000      0.000
REMARK  6 active torsions:
REMARK  status: ('A' for Active; 'I' for Inactive)
REMARK    1  A    between atoms: C_2  and  N_3 
REMARK    2  A    between atoms: C_2  and  C_24 
REMARK       I    between atoms: N_3  and  C_4 
REMARK    3  A    between atoms: C_4  and  C_5 
REMARK    4  A    between atoms: C_5  and  N_6 
REMARK    5  A    between atoms: C_10  and  N_11 
REMARK       I    between atoms: N_11  and  C_12 
REMARK       I    between atoms: C_12  and  N_13 
REMARK    6  A    between atoms: N_13  and  C_14 
ROOT
HETATM    1  N   UNL     1       8.167  30.146  57.769  1.00  0.00    -0.063 N 
HETATM    2  H   UNL     1       7.928  31.106  57.471  1.00  0.00     0.280 HD
HETATM    3  C   UNL     1       9.285  29.679  56.868  1.00  0.00     0.237 C 
HETATM    4  C   UNL     1       8.791  29.263  55.495  1.00  0.00     0.053 C 
HETATM    5  C   UNL     1       7.554  28.366  55.496  1.00  0.00     0.089 C 
HETATM    6  C   UNL     1       6.461  28.940  56.391  1.00  0.00     0.053 C 
HETATM    7  C   UNL     1       6.928  29.299  57.785  1.00  0.00     0.237 C 
ENDROOT
BRANCH   1   8
HETATM    8  C   UNL     1       8.691  30.309  59.215  1.00  0.00     0.337 C 
BRANCH   8   9
HETATM    9  C   UNL     1       8.893  31.780  59.567  1.00  0.00     0.244 C 
HETATM   10  N   UNL     1       8.079  32.441  60.425  1.00  0.00    -0.351 N 
HETATM   11  H   UNL     1       8.328  33.424  60.489  1.00  0.00     0.163 HD
HETATM   12  O   UNL     1       9.852  32.379  59.067  1.00  0.00    -0.272 OA
BRANCH  10  13
HETATM   13  C   UNL     1       6.812  32.106  61.082  1.00  0.00     0.120 C 
HETATM   14  C   UNL     1       5.539  32.430  60.306  1.00  0.00     0.038 C 
BRANCH  13  15
HETATM   15  C   UNL     1       6.762  32.616  62.501  1.00  0.00     0.005 A 
HETATM   16  S   UNL     1       5.303  33.080  63.274  1.00  0.00    -0.104 SA
HETATM   17  C   UNL     1       6.104  33.458  64.733  1.00  0.00     0.050 A 
HETATM   18  C   UNL     1       7.457  33.222  64.652  1.00  0.00     0.008 A 
HETATM   19  C   UNL     1       7.835  32.739  63.367  1.00  0.00     0.017 A 
ENDBRANCH  13  15
ENDBRANCH  10  13
ENDBRANCH   8   9
ENDBRANCH   1   8
BRANCH   5  20
HETATM   20  N   UNL     1       7.819  26.942  55.703  1.00  0.00    -0.338 N 
HETATM   21  C   UNL     1       7.118  25.887  55.189  1.00  0.00     0.316 C 
HETATM   22  N   UNL     1       7.669  24.685  55.532  1.00  0.00    -0.339 N 
HETATM   23  O   UNL     1       6.124  26.005  54.487  1.00  0.00    -0.247 OA
HETATM   24  H   UNL     1       8.232  24.669  56.371  1.00  0.00     0.164 HD
HETATM   25  H   UNL     1       8.744  26.705  56.040  1.00  0.00     0.164 HD
BRANCH  22  26
HETATM   26  C   UNL     1       7.025  23.426  55.156  1.00  0.00     0.086 C 
HETATM   27  C   UNL     1       7.020  23.247  53.634  1.00  0.00     0.025 C 
HETATM   28  C   UNL     1       8.398  22.906  53.069  1.00  0.00     0.002 C 
HETATM   29  C   UNL     1       9.020  21.708  53.780  1.00  0.00     0.000 C 
HETATM   30  C   UNL     1       9.067  21.909  55.291  1.00  0.00     0.002 C 
HETATM   31  C   UNL     1       7.685  22.233  55.860  1.00  0.00     0.025 C 
ENDBRANCH  22  26
ENDBRANCH   5  20
TORSDOF 6
ENDMDL
MODEL 2
REMARK VINA RESULT:      -9.2      3.304      9.843
REMARK  6 active torsions:
REMARK  status: ('A' for Active; 'I' for Inactive)
REMARK    1  A    between atoms: C_2  and  N_3 
REMARK    2  A    between atoms: C_2  and  C_24 
REMARK       I    between atoms: N_3  and  C_4 
REMARK    3  A    between atoms: C_4  and  C_5 
REMARK    4  A    between atoms: C_5  and  N_6 
REMARK    5  A    between atoms: C_10  and  N_11 
REMARK       I    between atoms: N_11  and  C_12 
REMARK       I    between atoms: C_12  and  N_13 
REMARK    6  A    between atoms: N_13  and  C_14 
ROOT
HETATM    1  N   UNL     1       6.527  25.855  56.178  1.00  0.00    -0.063 N 
HETATM    2  H   UNL     1       6.234  25.715  55.197  1.00  0.00     0.280 HD
HETATM    3  C   UNL     1       5.340  26.441  56.906  1.00  0.00     0.237 C 
HETATM    4  C   UNL     1       5.156  27.920  56.620  1.00  0.00     0.053 C 
HETATM    5  C   UNL     1       6.430  28.758  56.698  1.00  0.00     0.089 C 
HETATM    6  C   UNL     1       7.558  28.118  55.895  1.00  0.00     0.053 C 
HETATM    7  C   UNL     1       7.794  26.657  56.218  1.00  0.00     0.237 C 
ENDROOT
BRANCH   1   8
HETATM    8  C   UNL     1       6.812  24.428  56.704  1.00  0.00     0.337 C 
BRANCH   8   9
HETATM    9  C   UNL     1       8.166  23.921  56.218  1.00  0.00     0.244 C 
HETATM   10  N   UNL     1       8.332  23.336  55.006  1.00  0.00    -0.351 N 
HETATM   11  H   UNL     1       9.285  23.007  54.882  1.00  0.00     0.163 HD
HETATM   12  O   UNL     1       9.149  24.074  56.951  1.00  0.00    -0.272 OA
BRANCH  10  13
HETATM   13  C   UNL     1       7.407  22.883  53.964  1.00  0.00     0.120 C 
HETATM   14  C   UNL     1       7.905  21.763  53.055  1.00  0.00     0.038 C 
BRANCH  13  15
HETATM   15  C   UNL     1       6.829  24.037  53.184  1.00  0.00     0.005 A 
HETATM   16  S   UNL     1       7.786  25.076  52.210  1.00  0.00    -0.104 SA
HETATM   17  C   UNL     1       6.432  25.989  51.714  1.00  0.00     0.050 A 
HETATM   18  C   UNL     1       5.263  25.511  52.259  1.00  0.00     0.008 A 
HETATM   19  C   UNL     1       5.492  24.388  53.106  1.00  0.00     0.017 A 
ENDBRANCH  13  15
ENDBRANCH  10  13
ENDBRANCH   8   9
ENDBRANCH   1   8
BRANCH   5  20
HETATM   20  N   UNL     1       6.814  29.186  58.044  1.00  0.00    -0.338 N 
HETATM   21  C   UNL     1       7.892  29.948  58.393  1.00  0.00     0.316 C 
HETATM   22  N   UNL     1       7.923  30.215  59.733  1.00  0.00    -0.339 N 
HETATM   23  O   UNL     1       8.723  30.362  57.597  1.00  0.00    -0.247 OA
HETATM   24  H   UNL     1       7.440  29.563  60.335  1.00  0.00     0.164 HD
HETATM   25  H   UNL     1       6.089  29.137  58.749  1.00  0.00     0.164 HD
BRANCH  22  26
HETATM   26  C   UNL     1       9.042  30.944  60.330  1.00  0.00     0.086 C 
HETATM   27  C   UNL     1       8.757  32.450  60.366  1.00  0.00     0.025 C 
HETATM   28  C   UNL     1       7.721  32.836  61.420  1.00  0.00     0.002 C 
HETATM   29  C   UNL     1       8.089  32.295  62.799  1.00  0.00     0.000 C 
HETATM   30  C   UNL     1       8.326  30.789  62.770  1.00  0.00     0.002 C 
HETATM   31  C   UNL     1       9.375  30.403  61.728  1.00  0.00     0.025 C 
ENDBRANCH  22  26
ENDBRANCH   5  20
TORSDOF 6
ENDMDL
MODEL 3
REMARK VINA RESULT:      -8.9      3.312     10.262
REMARK  6 active torsions:
REMARK  status: ('A' for Active; 'I' for Inactive)
REMARK    1  A    between atoms: C_2  and  N_3 
REMARK    2  A    between atoms: C_2  and  C_24 
REMARK       I    between atoms: N_3  and  C_4 
REMARK    3  A    between atoms: C_4  and  C_5 
REMARK    4  A    between atoms: C_5  and  N_6 
REMARK    5  A    between atoms: C_10  and  N_11 
REMARK       I    between atoms: N_11  and  C_12 
REMARK       I    between atoms: C_12  and  N_13 
REMARK    6  A    between atoms: N_13  and  C_14 
ROOT
HETATM    1  N   UNL     1       5.562  27.411  55.447  1.00  0.00    -0.063 N 
HETATM    2  H   UNL     1       5.264  27.632  54.482  1.00  0.00     0.280 HD
HETATM    3  C   UNL     1       4.614  28.137  56.370  1.00  0.00     0.237 C 
HETATM    4  C   UNL     1       4.928  29.617  56.480  1.00  0.00     0.053 C 
HETATM    5  C   UNL     1       6.403  29.953  56.689  1.00  0.00     0.089 C 
HETATM    6  C   UNL     1       7.280  29.215  55.682  1.00  0.00     0.053 C 
HETATM    7  C   UNL     1       7.020  27.726  55.610  1.00  0.00     0.237 C 
ENDROOT
BRANCH   1   8
HETATM    8  C   UNL     1       5.354  25.883  55.575  1.00  0.00     0.337 C 
BRANCH   8   9
HETATM    9  C   UNL     1       5.617  25.177  54.249  1.00  0.00     0.244 C 
HETATM   10  N   UNL     1       6.407  24.080  54.153  1.00  0.00    -0.351 N 
HETATM   11  H   UNL     1       6.516  23.786  53.187  1.00  0.00     0.163 HD
HETATM   12  O   UNL     1       5.065  25.611  53.232  1.00  0.00    -0.272 OA
BRANCH  10  13
HETATM   13  C   UNL     1       7.299  23.388  55.089  1.00  0.00     0.120 C 
HETATM   14  C   UNL     1       8.386  24.237  55.742  1.00  0.00     0.038 C 
BRANCH  13  15
HETATM   15  C   UNL     1       7.845  22.110  54.503  1.00  0.00     0.005 A 
HETATM   16  S   UNL     1       8.332  20.777  55.466  1.00  0.00    -0.104 SA
HETATM   17  C   UNL     1       8.745  19.840  54.100  1.00  0.00     0.050 A 
HETATM   18  C   UNL     1       8.504  20.513  52.925  1.00  0.00     0.008 A 
HETATM   19  C   UNL     1       7.987  21.819  53.157  1.00  0.00     0.017 A 
ENDBRANCH  13  15
ENDBRANCH  10  13
ENDBRANCH   8   9
ENDBRANCH   1   8
BRANCH   5  20
HETATM   20  N   UNL     1       6.871  29.870  58.073  1.00  0.00    -0.338 N 
HETATM   21  C   UNL     1       7.931  30.530  58.628  1.00  0.00     0.316 C 
HETATM   22  N   UNL     1       8.057  30.273  59.963  1.00  0.00    -0.339 N 
HETATM   23  O   UNL     1       8.670  31.281  58.006  1.00  0.00    -0.247 OA
HETATM   24  H   UNL     1       7.661  29.405  60.296  1.00  0.00     0.164 HD
HETATM   25  H   UNL     1       6.210  29.500  58.744  1.00  0.00     0.164 HD
BRANCH  22  26
HETATM   26  C   UNL     1       9.179  30.812  60.732  1.00  0.00     0.086 C 
HETATM   27  C   UNL     1       9.141  32.344  60.755  1.00  0.00     0.025 C 
HETATM   28  C   UNL     1       8.038  32.900  61.655  1.00  0.00     0.002 C 
HETATM   29  C   UNL     1       8.106  32.312  63.061  1.00  0.00     0.000 C 
HETATM   30  C   UNL     1       8.096  30.788  63.038  1.00  0.00     0.002 C 
HETATM   31  C   UNL     1       9.210  30.230  62.152  1.00  0.00     0.025 C 
ENDBRANCH  22  26
ENDBRANCH   5  20
TORSDOF 6
ENDMDL
MODEL 4
REMARK VINA RESULT:      -8.7      3.211     10.494
REMARK  6 active torsions:
REMARK  status: ('A' for Active; 'I' for Inactive)
REMARK    1  A    between atoms: C_2  and  N_3 
REMARK    2  A    between atoms: C_2  and  C_24 
REMARK       I    between atoms: N_3  and  C_4 
REMARK    3  A    between atoms: C_4  and  C_5 
REMARK    4  A    between atoms: C_5  and  N_6 
REMARK    5  A    between atoms: C_10  and  N_11 
REMARK       I    between atoms: N_11  and  C_12 
REMARK       I    between atoms: C_12  and  N_13 
REMARK    6  A    between atoms: N_13  and  C_14 
ROOT
HETATM    1  N   UNL     1       7.174  27.363  56.816  1.00  0.00    -0.063 N 
HETATM    2  H   UNL     1       7.320  27.222  55.803  1.00  0.00     0.280 HD
HETATM    3  C   UNL     1       5.856  28.084  56.968  1.00  0.00     0.237 C 
HETATM    4  C   UNL     1       5.962  29.563  56.650  1.00  0.00     0.053 C 
HETATM    5  C   UNL     1       7.156  30.277  57.281  1.00  0.00     0.089 C 
HETATM    6  C   UNL     1       8.448  29.506  57.036  1.00  0.00     0.053 C 
HETATM    7  C   UNL     1       8.375  28.041  57.410  1.00  0.00     0.237 C 
ENDROOT
BRANCH   1   8
HETATM    8  C   UNL     1       7.060  25.932  57.394  1.00  0.00     0.337 C 
BRANCH   8   9
HETATM    9  C   UNL     1       6.003  25.120  56.654  1.00  0.00     0.244 C 
HETATM   10  N   UNL     1       6.287  24.393  55.546  1.00  0.00    -0.351 N 
HETATM   11  H   UNL     1       5.449  23.971  55.155  1.00  0.00     0.163 HD
HETATM   12  O   UNL     1       4.850  25.109  57.100  1.00  0.00    -0.272 OA
BRANCH  10  13
HETATM   13  C   UNL     1       7.467  24.277  54.685  1.00  0.00     0.120 C 
HETATM   14  C   UNL     1       7.517  25.206  53.475  1.00  0.00     0.038 C 
BRANCH  13  15
HETATM   15  C   UNL     1       7.756  22.844  54.317  1.00  0.00     0.005 A 
HETATM   16  S   UNL     1       7.938  21.599  55.484  1.00  0.00    -0.104 SA
HETATM   17  C   UNL     1       8.185  20.406  54.289  1.00  0.00     0.050 A 
HETATM   18  C   UNL     1       8.114  20.929  53.019  1.00  0.00     0.008 A 
HETATM   19  C   UNL     1       7.869  22.332  53.035  1.00  0.00     0.017 A 
ENDBRANCH  13  15
ENDBRANCH  10  13
ENDBRANCH   8   9
ENDBRANCH   1   8
BRANCH   5  20
HETATM   20  N   UNL     1       6.962  30.708  58.666  1.00  0.00    -0.338 N 
HETATM   21  C   UNL     1       6.367  31.859  59.099  1.00  0.00     0.316 C 
HETATM   22  N   UNL     1       6.297  31.924  60.461  1.00  0.00    -0.339 N 
HETATM   23  O   UNL     1       5.929  32.724  58.352  1.00  0.00    -0.247 OA
HETATM   24  H   UNL     1       6.976  31.380  60.975  1.00  0.00     0.164 HD
HETATM   25  H   UNL     1       7.038  29.986  59.372  1.00  0.00     0.164 HD
BRANCH  22  26
HETATM   26  C   UNL     1       5.773  33.114  61.133  1.00  0.00     0.086 C 
HETATM   27  C   UNL     1       4.605  32.751  62.057  1.00  0.00     0.025 C 
HETATM   28  C   UNL     1       5.050  32.022  63.324  1.00  0.00     0.002 C 
HETATM   29  C   UNL     1       6.141  32.791  64.064  1.00  0.00     0.000 C 
HETATM   30  C   UNL     1       7.324  33.109  63.155  1.00  0.00     0.002 C 
HETATM   31  C   UNL     1       6.882  33.853  61.896  1.00  0.00     0.025 C 
ENDBRANCH  22  26
ENDBRANCH   5  20
TORSDOF 6
ENDMDL
MODEL 5
REMARK VINA RESULT:      -8.3      4.453     10.420
REMARK  6 active torsions:
REMARK  status: ('A' for Active; 'I' for Inactive)
REMARK    1  A    between atoms: C_2  and  N_3 
REMARK    2  A    between atoms: C_2  and  C_24 
REMARK       I    between atoms: N_3  and  C_4 
REMARK    3  A    between atoms: C_4  and  C_5 
REMARK    4  A    between atoms: C_5  and  N_6 
REMARK    5  A    between atoms: C_10  and  N_11 
REMARK       I    between atoms: N_11  and  C_12 
REMARK       I    between atoms: C_12  and  N_13 
REMARK    6  A    between atoms: N_13  and  C_14 
ROOT
HETATM    1  N   UNL     1       6.522  27.184  55.125  1.00  0.00    -0.063 N 
HETATM    2  H   UNL     1       7.052  26.578  54.478  1.00  0.00     0.280 HD
HETATM    3  C   UNL     1       7.121  28.566  55.013  1.00  0.00     0.237 C 
HETATM    4  C   UNL     1       8.431  28.696  55.767  1.00  0.00     0.053 C 
HETATM    5  C   UNL     1       8.424  28.116  57.180  1.00  0.00     0.089 C 
HETATM    6  C   UNL     1       7.851  26.703  57.190  1.00  0.00     0.053 C 
HETATM    7  C   UNL     1       6.512  26.573  56.496  1.00  0.00     0.237 C 
ENDROOT
BRANCH   1   8
HETATM    8  C   UNL     1       5.082  27.188  54.559  1.00  0.00     0.337 C 
BRANCH   8   9
HETATM    9  C   UNL     1       4.924  26.158  53.445  1.00  0.00     0.244 C 
HETATM   10  N   UNL     1       4.809  26.509  52.141  1.00  0.00    -0.351 N 
HETATM   11  H   UNL     1       4.649  25.696  51.552  1.00  0.00     0.163 HD
HETATM   12  O   UNL     1       4.927  24.959  53.747  1.00  0.00    -0.272 OA
BRANCH  10  13
HETATM   13  C   UNL     1       4.638  27.788  51.447  1.00  0.00     0.120 C 
HETATM   14  C   UNL     1       3.411  28.610  51.832  1.00  0.00     0.038 C 
BRANCH  13  15
HETATM   15  C   UNL     1       4.781  27.641  49.953  1.00  0.00     0.005 A 
HETATM   16  S   UNL     1       5.389  28.889  48.946  1.00  0.00    -0.104 SA
HETATM   17  C   UNL     1       5.250  27.931  47.540  1.00  0.00     0.050 A 
HETATM   18  C   UNL     1       4.768  26.675  47.821  1.00  0.00     0.008 A 
HETATM   19  C   UNL     1       4.497  26.507  49.209  1.00  0.00     0.017 A 
ENDBRANCH  13  15
ENDBRANCH  10  13
ENDBRANCH   8   9
ENDBRANCH   1   8
BRANCH   5  20
HETATM   20  N   UNL     1       7.878  28.997  58.212  1.00  0.00    -0.338 N 
HETATM   21  C   UNL     1       8.299  30.257  58.531  1.00  0.00     0.316 C 
HETATM   22  N   UNL     1       7.530  30.827  59.506  1.00  0.00    -0.339 N 
HETATM   23  O   UNL     1       9.242  30.820  57.992  1.00  0.00    -0.247 OA
HETATM   24  H   UNL     1       7.039  30.194  60.122  1.00  0.00     0.164 HD
HETATM   25  H   UNL     1       6.951  28.768  58.548  1.00  0.00     0.164 HD
BRANCH  22  26
HETATM   26  C   UNL     1       7.862  32.142  60.056  1.00  0.00     0.086 C 
HETATM   27  C   UNL     1       6.741  32.653  60.966  1.00  0.00     0.025 C 
HETATM   28  C   UNL     1       6.678  31.921  62.306  1.00  0.00     0.002 C 
HETATM   29  C   UNL     1       8.030  31.922  63.014  1.00  0.00     0.000 C 
HETATM   30  C   UNL     1       9.136  31.368  62.122  1.00  0.00     0.002 C 
HETATM   31  C   UNL     1       9.211  32.112  60.789  1.00  0.00     0.025 C 
ENDBRANCH  22  26
ENDBRANCH   5  20
TORSDOF 6
ENDMDL
MODEL 6
REMARK VINA RESULT:      -8.1      3.070      5.516
REMARK  6 active torsions:
REMARK  status: ('A' for Active; 'I' for Inactive)
REMARK    1  A    between atoms: C_2  and  N_3 
REMARK    2  A    between atoms: C_2  and  C_24 
REMARK       I    between atoms: N_3  and  C_4 
REMARK    3  A    between atoms: C_4  and  C_5 
REMARK    4  A    between atoms: C_5  and  N_6 
REMARK    5  A    between atoms: C_10  and  N_11 
REMARK       I    between atoms: N_11  and  C_12 
REMARK       I    between atoms: C_12  and  N_13 
REMARK    6  A    between atoms: N_13  and  C_14 
ROOT
HETATM    1  N   UNL     1       7.549  32.536  62.198  1.00  0.00    -0.063 N 
HETATM    2  H   UNL     1       8.278  33.105  62.660  1.00  0.00     0.280 HD
HETATM    3  C   UNL     1       7.833  31.096  62.554  1.00  0.00     0.237 C 
HETATM    4  C   UNL     1       8.978  30.512  61.748  1.00  0.00     0.053 C 
HETATM    5  C   UNL     1       8.927  30.800  60.248  1.00  0.00     0.089 C 
HETATM    6  C   UNL     1       8.688  32.283  59.983  1.00  0.00     0.053 C 
HETATM    7  C   UNL     1       7.507  32.863  60.733  1.00  0.00     0.237 C 
ENDROOT
BRANCH   1   8
HETATM    8  C   UNL     1       6.226  32.990  62.858  1.00  0.00     0.337 C 
BRANCH   8   9
HETATM    9  C   UNL     1       5.130  31.946  62.671  1.00  0.00     0.244 C 
HETATM   10  N   UNL     1       4.341  31.908  61.570  1.00  0.00    -0.351 N 
HETATM   11  H   UNL     1       3.629  31.187  61.649  1.00  0.00     0.163 HD
HETATM   12  O   UNL     1       4.976  31.089  63.550  1.00  0.00    -0.272 OA
BRANCH  10  13
HETATM   13  C   UNL     1       4.152  32.806  60.427  1.00  0.00     0.120 C 
HETATM   14  C   UNL     1       2.954  33.749  60.497  1.00  0.00     0.038 C 
BRANCH  13  15
HETATM   15  C   UNL     1       4.222  32.068  59.114  1.00  0.00     0.005 A 
HETATM   16  S   UNL     1       5.306  32.501  57.857  1.00  0.00    -0.104 SA
HETATM   17  C   UNL     1       4.776  31.227  56.854  1.00  0.00     0.050 A 
HETATM   18  C   UNL     1       3.805  30.466  57.460  1.00  0.00     0.008 A 
HETATM   19  C   UNL     1       3.485  30.950  58.761  1.00  0.00     0.017 A 
ENDBRANCH  13  15
ENDBRANCH  10  13
ENDBRANCH   8   9
ENDBRANCH   1   8
BRANCH   5  20
HETATM   20  N   UNL     1       8.075  29.901  59.470  1.00  0.00    -0.338 N 
HETATM   21  C   UNL     1       8.372  29.309  58.276  1.00  0.00     0.316 C 
HETATM   22  N   UNL     1       7.375  28.478  57.849  1.00  0.00    -0.339 N 
HETATM   23  O   UNL     1       9.418  29.485  57.667  1.00  0.00    -0.247 OA
HETATM   24  H   UNL     1       6.447  28.669  58.200  1.00  0.00     0.164 HD
HETATM   25  H   UNL     1       7.307  29.472  59.971  1.00  0.00     0.164 HD
BRANCH  22  26
HETATM   26  C   UNL     1       7.454  27.811  56.549  1.00  0.00     0.086 C 
HETATM   27  C   UNL     1       7.960  26.372  56.703  1.00  0.00     0.025 C 
HETATM   28  C   UNL     1       6.919  25.434  57.312  1.00  0.00     0.002 C 
HETATM   29  C   UNL     1       5.596  25.492  56.555  1.00  0.00     0.000 C 
HETATM   30  C   UNL     1       5.069  26.919  56.445  1.00  0.00     0.002 C 
HETATM   31  C   UNL     1       6.104  27.854  55.820  1.00  0.00     0.025 C 
ENDBRANCH  22  26
ENDBRANCH   5  20
TORSDOF 6
ENDMDL
MODEL 7
REMARK VINA RESULT:      -8.1      2.870      9.967
REMARK  6 active torsions:
REMARK  status: ('A' for Active; 'I' for Inactive)
REMARK    1  A    between atoms: C_2  and  N_3 
REMARK    2  A    between atoms: C_2  and  C_24 
REMARK       I    between atoms: N_3  and  C_4 
REMARK    3  A    between atoms: C_4  and  C_5 
REMARK    4  A    between atoms: C_5  and  N_6 
REMARK    5  A    between atoms: C_10  and  N_11 
REMARK       I    between atoms: N_11  and  C_12 
REMARK       I    between atoms: C_12  and  N_13 
REMARK    6  A    between atoms: N_13  and  C_14 
ROOT
HETATM    1  N   UNL     1       7.584  27.608  55.044  1.00  0.00    -0.063 N 
HETATM    2  H   UNL     1       8.301  26.940  54.714  1.00  0.00     0.280 HD
HETATM    3  C   UNL     1       8.292  28.920  55.281  1.00  0.00     0.237 C 
HETATM    4  C   UNL     1       9.079  28.931  56.578  1.00  0.00     0.053 C 
HETATM    5  C   UNL     1       8.333  28.379  57.792  1.00  0.00     0.089 C 
HETATM    6  C   UNL     1       7.694  27.031  57.477  1.00  0.00     0.053 C 
HETATM    7  C   UNL     1       6.853  27.024  56.217  1.00  0.00     0.237 C 
ENDROOT
BRANCH   1   8
HETATM    8  C   UNL     1       6.606  27.746  53.853  1.00  0.00     0.337 C 
BRANCH   8   9
HETATM    9  C   UNL     1       5.742  26.499  53.701  1.00  0.00     0.244 C 
HETATM   10  N   UNL     1       6.271  25.259  53.563  1.00  0.00    -0.351 N 
HETATM   11  H   UNL     1       5.547  24.562  53.412  1.00  0.00     0.163 HD
HETATM   12  O   UNL     1       4.512  26.627  53.730  1.00  0.00    -0.272 OA
BRANCH  10  13
HETATM   13  C   UNL     1       7.632  24.754  53.359  1.00  0.00     0.120 C 
HETATM   14  C   UNL     1       8.136  24.728  51.920  1.00  0.00     0.038 C 
BRANCH  13  15
HETATM   15  C   UNL     1       7.857  23.442  54.068  1.00  0.00     0.005 A 
HETATM   16  S   UNL     1       8.304  23.340  55.721  1.00  0.00    -0.104 SA
HETATM   17  C   UNL     1       8.307  21.633  55.696  1.00  0.00     0.050 A 
HETATM   18  C   UNL     1       7.958  21.137  54.462  1.00  0.00     0.008 A 
HETATM   19  C   UNL     1       7.700  22.178  53.525  1.00  0.00     0.017 A 
ENDBRANCH  13  15
ENDBRANCH  10  13
ENDBRANCH   8   9
ENDBRANCH   1   8
BRANCH   5  20
HETATM   20  N   UNL     1       7.443  29.328  58.460  1.00  0.00    -0.338 N 
HETATM   21  C   UNL     1       7.782  30.530  59.016  1.00  0.00     0.316 C 
HETATM   22  N   UNL     1       6.696  31.197  59.506  1.00  0.00    -0.339 N 
HETATM   23  O   UNL     1       8.924  30.967  59.052  1.00  0.00    -0.247 OA
HETATM   24  H   UNL     1       5.896  30.634  59.759  1.00  0.00     0.164 HD
HETATM   25  H   UNL     1       6.454  29.218  58.274  1.00  0.00     0.164 HD
BRANCH  22  26
HETATM   26  C   UNL     1       6.849  32.465  60.221  1.00  0.00     0.086 C 
HETATM   27  C   UNL     1       5.498  33.170  60.380  1.00  0.00     0.025 C 
HETATM   28  C   UNL     1       4.594  32.501  61.414  1.00  0.00     0.002 C 
HETATM   29  C   UNL     1       5.302  32.324  62.753  1.00  0.00     0.000 C 
HETATM   30  C   UNL     1       6.624  31.580  62.599  1.00  0.00     0.002 C 
HETATM   31  C   UNL     1       7.537  32.258  61.578  1.00  0.00     0.025 C 
ENDBRANCH  22  26
ENDBRANCH   5  20
TORSDOF 6
ENDMDL
MODEL 8
REMARK VINA RESULT:      -8.1      3.077      5.191
REMARK  6 active torsions:
REMARK  status: ('A' for Active; 'I' for Inactive)
REMARK    1  A    between atoms: C_2  and  N_3 
REMARK    2  A    between atoms: C_2  and  C_24 
REMARK       I    between atoms: N_3  and  C_4 
REMARK    3  A    between atoms: C_4  and  C_5 
REMARK    4  A    between atoms: C_5  and  N_6 
REMARK    5  A    between atoms: C_10  and  N_11 
REMARK       I    between atoms: N_11  and  C_12 
REMARK       I    between atoms: C_12  and  N_13 
REMARK    6  A    between atoms: N_13  and  C_14 
ROOT
HETATM    1  N   UNL     1       7.667  32.406  62.771  1.00  0.00    -0.063 N 
HETATM    2  H   UNL     1       8.410  32.998  63.177  1.00  0.00     0.280 HD
HETATM    3  C   UNL     1       8.127  30.975  62.913  1.00  0.00     0.237 C 
HETATM    4  C   UNL     1       9.169  30.594  61.878  1.00  0.00     0.053 C 
HETATM    5  C   UNL     1       8.848  31.022  60.448  1.00  0.00     0.089 C 
HETATM    6  C   UNL     1       8.443  32.491  60.393  1.00  0.00     0.053 C 
HETATM    7  C   UNL     1       7.357  32.870  61.378  1.00  0.00     0.237 C 
ENDROOT
BRANCH   1   8
HETATM    8  C   UNL     1       6.436  32.655  63.675  1.00  0.00     0.337 C 
BRANCH   8   9
HETATM    9  C   UNL     1       5.196  31.961  63.123  1.00  0.00     0.244 C 
HETATM   10  N   UNL     1       4.179  32.642  62.541  1.00  0.00    -0.351 N 
HETATM   11  H   UNL     1       3.414  32.022  62.291  1.00  0.00     0.163 HD
HETATM   12  O   UNL     1       5.133  30.728  63.188  1.00  0.00    -0.272 OA
BRANCH  10  13
HETATM   13  C   UNL     1       3.857  34.066  62.410  1.00  0.00     0.120 C 
HETATM   14  C   UNL     1       4.532  34.811  61.262  1.00  0.00     0.038 C 
BRANCH  13  15
HETATM   15  C   UNL     1       3.992  34.796  63.723  1.00  0.00     0.005 A 
HETATM   16  S   UNL     1       5.006  36.164  63.929  1.00  0.00    -0.104 SA
HETATM   17  C   UNL     1       4.556  36.349  65.565  1.00  0.00     0.050 A 
HETATM   18  C   UNL     1       3.636  35.404  65.955  1.00  0.00     0.008 A 
HETATM   19  C   UNL     1       3.312  34.509  64.895  1.00  0.00     0.017 A 
ENDBRANCH  13  15
ENDBRANCH  10  13
ENDBRANCH   8   9
ENDBRANCH   1   8
BRANCH   5  20
HETATM   20  N   UNL     1       7.959  30.122  59.713  1.00  0.00    -0.338 N 
HETATM   21  C   UNL     1       8.173  29.572  58.480  1.00  0.00     0.316 C 
HETATM   22  N   UNL     1       7.166  28.727  58.110  1.00  0.00    -0.339 N 
HETATM   23  O   UNL     1       9.162  29.795  57.796  1.00  0.00    -0.247 OA
HETATM   24  H   UNL     1       6.265  28.882  58.540  1.00  0.00     0.164 HD
HETATM   25  H   UNL     1       7.244  29.657  60.260  1.00  0.00     0.164 HD
BRANCH  22  26
HETATM   26  C   UNL     1       7.157  28.099  56.788  1.00  0.00     0.086 C 
HETATM   27  C   UNL     1       7.941  26.782  56.802  1.00  0.00     0.025 C 
HETATM   28  C   UNL     1       7.205  25.657  57.528  1.00  0.00     0.002 C 
HETATM   29  C   UNL     1       5.789  25.470  56.992  1.00  0.00     0.000 C 
HETATM   30  C   UNL     1       4.995  26.771  57.024  1.00  0.00     0.002 C 
HETATM   31  C   UNL     1       5.722  27.892  56.282  1.00  0.00     0.025 C 
ENDBRANCH  22  26
ENDBRANCH   5  20
TORSDOF 6
ENDMDL
MODEL 9
REMARK VINA RESULT:      -7.9      6.609      9.754
REMARK  6 active torsions:
REMARK  status: ('A' for Active; 'I' for Inactive)
REMARK    1  A    between atoms: C_2  and  N_3 
REMARK    2  A    between atoms: C_2  and  C_24 
REMARK       I    between atoms: N_3  and  C_4 
REMARK    3  A    between atoms: C_4  and  C_5 
REMARK    4  A    between atoms: C_5  and  N_6 
REMARK    5  A    between atoms: C_10  and  N_11 
REMARK       I    between atoms: N_11  and  C_12 
REMARK       I    between atoms: C_12  and  N_13 
REMARK    6  A    between atoms: N_13  and  C_14 
ROOT
HETATM    1  N   UNL     1       6.633  25.230  54.291  1.00  0.00    -0.063 N 
HETATM    2  H   UNL     1       6.836  24.238  54.495  1.00  0.00     0.280 HD
HETATM    3  C   UNL     1       5.201  25.290  53.814  1.00  0.00     0.237 C 
HETATM    4  C   UNL     1       5.049  24.834  52.375  1.00  0.00     0.053 C 
HETATM    5  C   UNL     1       6.071  25.413  51.400  1.00  0.00     0.089 C 
HETATM    6  C   UNL     1       7.490  25.264  51.940  1.00  0.00     0.053 C 
HETATM    7  C   UNL     1       7.670  25.775  53.354  1.00  0.00     0.237 C 
ENDROOT
BRANCH   1   8
HETATM    8  C   UNL     1       6.760  25.941  55.660  1.00  0.00     0.337 C 
BRANCH   8   9
HETATM    9  C   UNL     1       6.313  25.030  56.799  1.00  0.00     0.244 C 
HETATM   10  N   UNL     1       7.130  24.099  57.350  1.00  0.00    -0.351 N 
HETATM   11  H   UNL     1       6.643  23.546  58.049  1.00  0.00     0.163 HD
HETATM   12  O   UNL     1       5.170  25.168  57.249  1.00  0.00    -0.272 OA
BRANCH  10  13
HETATM   13  C   UNL     1       8.456  23.580  57.001  1.00  0.00     0.120 C 
HETATM   14  C   UNL     1       9.543  24.618  56.742  1.00  0.00     0.038 C 
BRANCH  13  15
HETATM   15  C   UNL     1       8.384  22.544  55.907  1.00  0.00     0.005 A 
HETATM   16  S   UNL     1       7.764  20.964  56.158  1.00  0.00    -0.104 SA
HETATM   17  C   UNL     1       8.006  20.524  54.527  1.00  0.00     0.050 A 
HETATM   18  C   UNL     1       8.532  21.559  53.789  1.00  0.00     0.008 A 
HETATM   19  C   UNL     1       8.750  22.721  54.583  1.00  0.00     0.017 A 
ENDBRANCH  13  15
ENDBRANCH  10  13
ENDBRANCH   8   9
ENDBRANCH   1   8
BRANCH   5  20
HETATM   20  N   UNL     1       5.757  26.747  50.887  1.00  0.00    -0.338 N 
HETATM   21  C   UNL     1       4.881  27.063  49.887  1.00  0.00     0.316 C 
HETATM   22  N   UNL     1       4.780  28.412  49.697  1.00  0.00    -0.339 N 
HETATM   23  O   UNL     1       4.246  26.236  49.249  1.00  0.00    -0.247 OA
HETATM   24  H   UNL     1       5.569  28.970  49.991  1.00  0.00     0.164 HD
HETATM   25  H   UNL     1       6.007  27.524  51.486  1.00  0.00     0.164 HD
BRANCH  22  26
HETATM   26  C   UNL     1       3.961  28.962  48.616  1.00  0.00     0.086 C 
HETATM   27  C   UNL     1       2.572  29.358  49.130  1.00  0.00     0.025 C 
HETATM   28  C   UNL     1       2.591  30.623  49.987  1.00  0.00     0.002 C 
HETATM   29  C   UNL     1       3.284  31.779  49.272  1.00  0.00     0.000 C 
HETATM   30  C   UNL     1       4.684  31.397  48.805  1.00  0.00     0.002 C 
HETATM   31  C   UNL     1       4.664  30.142  47.932  1.00  0.00     0.025 C 
ENDBRANCH  22  26
ENDBRANCH   5  20
TORSDOF 6
ENDMDL
MODEL 10
REMARK VINA RESULT:      -7.9      4.957      7.102
REMARK  6 active torsions:
REMARK  status: ('A' for Active; 'I' for Inactive)
REMARK    1  A    between atoms: C_2  and  N_3 
REMARK    2  A    between atoms: C_2  and  C_24 
REMARK       I    between atoms: N_3  and  C_4 
REMARK    3  A    between atoms: C_4  and  C_5 
REMARK    4  A    between atoms: C_5  and  N_6 
REMARK    5  A    between atoms: C_10  and  N_11 
REMARK       I    between atoms: N_11  and  C_12 
REMARK       I    between atoms: C_12  and  N_13 
REMARK    6  A    between atoms: N_13  and  C_14 
ROOT
HETATM    1  N   UNL     1       6.783  26.285  54.689  1.00  0.00    -0.063 N 
HETATM    2  H   UNL     1       7.026  25.416  55.192  1.00  0.00     0.280 HD
HETATM    3  C   UNL     1       5.345  26.141  54.248  1.00  0.00     0.237 C 
HETATM    4  C   UNL     1       5.196  25.247  53.032  1.00  0.00     0.053 C 
HETATM    5  C   UNL     1       6.185  25.521  51.901  1.00  0.00     0.089 C 
HETATM    6  C   UNL     1       7.614  25.600  52.429  1.00  0.00     0.053 C 
HETATM    7  C   UNL     1       7.788  26.539  53.604  1.00  0.00     0.237 C 
ENDROOT
BRANCH   1   8
HETATM    8  C   UNL     1       6.896  27.397  55.758  1.00  0.00     0.337 C 
BRANCH   8   9
HETATM    9  C   UNL     1       7.976  27.069  56.783  1.00  0.00     0.244 C 
HETATM   10  N   UNL     1       8.853  27.996  57.239  1.00  0.00    -0.351 N 
HETATM   11  H   UNL     1       9.536  27.583  57.867  1.00  0.00     0.163 HD
HETATM   12  O   UNL     1       8.033  25.917  57.231  1.00  0.00    -0.272 OA
BRANCH  10  13
HETATM   13  C   UNL     1       9.160  29.376  56.853  1.00  0.00     0.120 C 
HETATM   14  C   UNL     1      10.579  29.642  56.358  1.00  0.00     0.038 C 
BRANCH  13  15
HETATM   15  C   UNL     1       8.728  30.365  57.907  1.00  0.00     0.005 A 
HETATM   16  S   UNL     1       7.084  30.631  58.318  1.00  0.00    -0.104 SA
HETATM   17  C   UNL     1       7.488  31.778  59.516  1.00  0.00     0.050 A 
HETATM   18  C   UNL     1       8.848  31.951  59.623  1.00  0.00     0.008 A 
HETATM   19  C   UNL     1       9.562  31.138  58.697  1.00  0.00     0.017 A 
ENDBRANCH  13  15
ENDBRANCH  10  13
ENDBRANCH   8   9
ENDBRANCH   1   8
BRANCH   5  20
HETATM   20  N   UNL     1       5.814  26.612  50.999  1.00  0.00    -0.338 N 
HETATM   21  C   UNL     1       4.879  26.579  50.004  1.00  0.00     0.316 C 
HETATM   22  N   UNL     1       4.737  27.791  49.389  1.00  0.00    -0.339 N 
HETATM   23  O   UNL     1       4.229  25.586  49.709  1.00  0.00    -0.247 OA
HETATM   24  H   UNL     1       5.528  28.417  49.437  1.00  0.00     0.164 HD
HETATM   25  H   UNL     1       6.078  27.543  51.295  1.00  0.00     0.164 HD
BRANCH  22  26
HETATM   26  C   UNL     1       3.849  27.952  48.237  1.00  0.00     0.086 C 
HETATM   27  C   UNL     1       2.445  28.375  48.684  1.00  0.00     0.025 C 
HETATM   28  C   UNL     1       2.380  29.828  49.152  1.00  0.00     0.002 C 
HETATM   29  C   UNL     1       2.957  30.783  48.112  1.00  0.00     0.000 C 
HETATM   30  C   UNL     1       4.372  30.388  47.704  1.00  0.00     0.002 C 
HETATM   31  C   UNL     1       4.434  28.940  47.218  1.00  0.00     0.025 C 
ENDBRANCH  22  26
ENDBRANCH   5  20
TORSDOF 6
ENDMDL
