MODEL 1
REMARK VINA RESULT:     -11.4      0.000      0.000
REMARK  8 active torsions:
REMARK  status: ('A' for Active; 'I' for Inactive)
REMARK    1  A    between atoms: C_2  and  N_3 
REMARK    2  A    between atoms: N_7  and  C_8 
REMARK    3  A    between atoms: C_8  and  C_9 
REMARK    4  A    between atoms: C_10  and  C_11 
REMARK    5  A    between atoms: C_16  and  C_17 
REMARK       I    between atoms: C_17  and  N_18 
REMARK    6  A    between atoms: N_18  and  C_19 
REMARK    7  A    between atoms: C_21  and  O_22 
REMARK    8  A    between atoms: O_22  and  C_23 
ROOT
HETATM    1  C   UNL     1       7.948  31.077  59.162  1.00  0.00     0.256 C 
HETATM    2  N   UNL     1       7.171  30.934  60.298  1.00  0.00    -0.323 N 
HETATM    3  O   UNL     1       8.718  32.004  58.934  1.00  0.00    -0.267 OA
HETATM    4  H   UNL     1       6.576  30.128  60.376  1.00  0.00     0.169 HD
ENDROOT
BRANCH   1   5
HETATM    5  C   UNL     1       7.838  29.995  58.122  1.00  0.00     0.033 A 
HETATM    6  C   UNL     1       6.600  29.831  57.473  1.00  0.00     0.034 A 
HETATM    7  C   UNL     1       6.393  28.844  56.486  1.00  0.00     0.056 A 
HETATM    8  C   UNL     1       7.463  27.986  56.150  1.00  0.00    -0.015 A 
HETATM    9  C   UNL     1       8.702  28.159  56.793  1.00  0.00     0.011 A 
HETATM   10  C   UNL     1       8.887  29.143  57.769  1.00  0.00     0.017 A 
BRANCH   7  11
HETATM   11  C   UNL     1       5.007  28.723  55.874  1.00  0.00     0.418 C 
HETATM   12  F   UNL     1       5.013  28.579  54.518  1.00  0.00    -0.166 F 
HETATM   13  F   UNL     1       4.314  27.660  56.366  1.00  0.00    -0.166 F 
HETATM   14  F   UNL     1       4.231  29.817  56.108  1.00  0.00    -0.166 F 
ENDBRANCH   7  11
BRANCH   8  15
HETATM   15  C   UNL     1       7.325  26.858  55.146  1.00  0.00     0.312 C 
BRANCH  15  16
HETATM   16  N   UNL     1       6.599  25.698  55.688  1.00  0.00     0.096 N 
HETATM   17  C   UNL     1       7.474  24.626  56.199  1.00  0.00     0.300 C 
HETATM   18  C   UNL     1       8.236  23.840  55.114  1.00  0.00     0.265 C 
HETATM   19  N   UNL     1       7.270  23.283  54.074  1.00  0.00    -0.068 N 
HETATM   20  H   UNL     1       6.675  22.598  54.560  1.00  0.00     0.280 HD
HETATM   21  C   UNL     1       6.325  24.362  53.542  1.00  0.00     0.265 C 
HETATM   22  C   UNL     1       5.659  25.137  54.697  1.00  0.00     0.300 C 
BRANCH  19  23
HETATM   23  C   UNL     1       7.960  22.573  52.930  1.00  0.00     0.230 C 
HETATM   24  C   UNL     1       7.959  21.069  53.129  1.00  0.00     0.034 C 
ENDBRANCH  19  23
ENDBRANCH  15  16
ENDBRANCH   8  15
ENDBRANCH   1   5
BRANCH   2  25
HETATM   25  C   UNL     1       7.149  31.770  61.437  1.00  0.00     0.037 A 
HETATM   26  C   UNL     1       6.331  32.891  61.576  1.00  0.00     0.067 A 
HETATM   27  C   UNL     1       6.444  33.710  62.710  1.00  0.00     0.084 A 
HETATM   28  C   UNL     1       7.323  33.382  63.752  1.00  0.00    -0.028 A 
HETATM   29  C   UNL     1       7.401  34.218  64.997  1.00  0.00     0.051 C 
HETATM   30  C   UNL     1       8.110  32.234  63.626  1.00  0.00     0.012 A 
HETATM   31  C   UNL     1       8.032  31.445  62.476  1.00  0.00     0.030 A 
BRANCH  27  32
HETATM   32  O   UNL     1       5.647  34.822  62.878  1.00  0.00    -0.310 OA
BRANCH  32  33
HETATM   33  C   UNL     1       4.285  34.703  62.687  1.00  0.00     0.076 A 
HETATM   34  C   UNL     1       3.825  35.047  61.410  1.00  0.00     0.047 A 
HETATM   35  C   UNL     1       2.472  34.932  61.155  1.00  0.00    -0.020 A 
HETATM   36  C   UNL     1       1.598  34.480  62.141  1.00  0.00     0.041 A 
HETATM   37  C   UNL     1       1.701  35.229  59.904  1.00  0.00     0.144 A 
HETATM   38  N   UNL     1       0.304  34.469  61.647  1.00  0.00    -0.326 N 
HETATM   39  C   UNL     1       2.024  34.111  63.398  1.00  0.00     0.033 A 
HETATM   40  C   UNL     1       0.264  34.902  60.328  1.00  0.00     0.226 A 
HETATM   41  H   UNL     1      -0.522  34.191  62.155  1.00  0.00     0.169 HD
HETATM   42  O   UNL     1      -0.739  35.001  59.640  1.00  0.00    -0.273 OA
HETATM   43  C   UNL     1       3.393  34.210  63.665  1.00  0.00     0.039 A 
ENDBRANCH  32  33
ENDBRANCH  27  32
ENDBRANCH   2  25
TORSDOF 8
ENDMDL
MODEL 2
REMARK VINA RESULT:     -11.0      2.286      4.248
REMARK  8 active torsions:
REMARK  status: ('A' for Active; 'I' for Inactive)
REMARK    1  A    between atoms: C_2  and  N_3 
REMARK    2  A    between atoms: N_7  and  C_8 
REMARK    3  A    between atoms: C_8  and  C_9 
REMARK    4  A    between atoms: C_10  and  C_11 
REMARK    5  A    between atoms: C_16  and  C_17 
REMARK       I    between atoms: C_17  and  N_18 
REMARK    6  A    between atoms: N_18  and  C_19 
REMARK    7  A    between atoms: C_21  and  O_22 
REMARK    8  A    between atoms: O_22  and  C_23 
ROOT
HETATM    1  C   UNL     1       6.661  31.297  58.684  1.00  0.00     0.256 C 
HETATM    2  N   UNL     1       5.371  31.486  59.150  1.00  0.00    -0.323 N 
HETATM    3  O   UNL     1       7.623  32.017  58.930  1.00  0.00    -0.267 OA
HETATM    4  H   UNL     1       4.661  30.827  58.883  1.00  0.00     0.169 HD
ENDROOT
BRANCH   1   5
HETATM    5  C   UNL     1       6.897  30.098  57.805  1.00  0.00     0.033 A 
HETATM    6  C   UNL     1       6.114  29.974  56.642  1.00  0.00     0.034 A 
HETATM    7  C   UNL     1       6.256  28.886  55.753  1.00  0.00     0.056 A 
HETATM    8  C   UNL     1       7.208  27.886  56.052  1.00  0.00    -0.015 A 
HETATM    9  C   UNL     1       7.996  28.020  57.210  1.00  0.00     0.011 A 
HETATM   10  C   UNL     1       7.839  29.104  58.078  1.00  0.00     0.017 A 
BRANCH   7  11
HETATM   11  C   UNL     1       5.335  28.822  54.547  1.00  0.00     0.418 C 
HETATM   12  F   UNL     1       5.974  28.527  53.379  1.00  0.00    -0.166 F 
HETATM   13  F   UNL     1       4.355  27.888  54.690  1.00  0.00    -0.166 F 
HETATM   14  F   UNL     1       4.695  30.001  54.310  1.00  0.00    -0.166 F 
ENDBRANCH   7  11
BRANCH   8  15
HETATM   15  C   UNL     1       7.395  26.651  55.193  1.00  0.00     0.312 C 
BRANCH  15  16
HETATM   16  N   UNL     1       6.441  25.579  55.520  1.00  0.00     0.096 N 
HETATM   17  C   UNL     1       6.982  24.547  56.425  1.00  0.00     0.300 C 
HETATM   18  C   UNL     1       8.042  23.623  55.792  1.00  0.00     0.265 C 
HETATM   19  N   UNL     1       7.506  22.981  54.518  1.00  0.00    -0.068 N 
HETATM   20  H   UNL     1       6.726  22.371  54.800  1.00  0.00     0.280 HD
HETATM   21  C   UNL     1       6.909  24.019  53.567  1.00  0.00     0.265 C 
HETATM   22  C   UNL     1       5.910  24.937  54.301  1.00  0.00     0.300 C 
BRANCH  19  23
HETATM   23  C   UNL     1       8.527  22.129  53.797  1.00  0.00     0.230 C 
HETATM   24  C   UNL     1       7.892  20.888  53.198  1.00  0.00     0.034 C 
ENDBRANCH  19  23
ENDBRANCH  15  16
ENDBRANCH   8  15
ENDBRANCH   1   5
BRANCH   2  25
HETATM   25  C   UNL     1       4.915  32.487  60.038  1.00  0.00     0.037 A 
HETATM   26  C   UNL     1       4.646  32.278  61.390  1.00  0.00     0.067 A 
HETATM   27  C   UNL     1       4.112  33.315  62.171  1.00  0.00     0.084 A 
HETATM   28  C   UNL     1       3.906  34.592  61.630  1.00  0.00    -0.028 A 
HETATM   29  C   UNL     1       3.397  35.723  62.477  1.00  0.00     0.051 C 
HETATM   30  C   UNL     1       4.217  34.807  60.285  1.00  0.00     0.012 A 
HETATM   31  C   UNL     1       4.703  33.762  59.496  1.00  0.00     0.030 A 
BRANCH  27  32
HETATM   32  O   UNL     1       3.840  33.141  63.512  1.00  0.00    -0.310 OA
BRANCH  32  33
HETATM   33  C   UNL     1       4.813  33.458  64.437  1.00  0.00     0.076 A 
HETATM   34  C   UNL     1       4.341  33.902  65.678  1.00  0.00     0.047 A 
HETATM   35  C   UNL     1       5.270  34.220  66.651  1.00  0.00    -0.020 A 
HETATM   36  C   UNL     1       6.634  34.094  66.399  1.00  0.00     0.041 A 
HETATM   37  C   UNL     1       5.065  34.719  68.049  1.00  0.00     0.144 A 
HETATM   38  N   UNL     1       7.352  34.485  67.517  1.00  0.00    -0.326 N 
HETATM   39  C   UNL     1       7.128  33.637  65.197  1.00  0.00     0.033 A 
HETATM   40  C   UNL     1       6.506  34.878  68.547  1.00  0.00     0.226 A 
HETATM   41  H   UNL     1       8.357  34.498  67.602  1.00  0.00     0.169 HD
HETATM   42  O   UNL     1       6.858  35.276  69.646  1.00  0.00    -0.273 OA
HETATM   43  C   UNL     1       6.198  33.299  64.209  1.00  0.00     0.039 A 
ENDBRANCH  32  33
ENDBRANCH  27  32
ENDBRANCH   2  25
TORSDOF 8
ENDMDL
MODEL 3
REMARK VINA RESULT:     -10.9      4.276     11.268
REMARK  8 active torsions:
REMARK  status: ('A' for Active; 'I' for Inactive)
REMARK    1  A    between atoms: C_2  and  N_3 
REMARK    2  A    between atoms: N_7  and  C_8 
REMARK    3  A    between atoms: C_8  and  C_9 
REMARK    4  A    between atoms: C_10  and  C_11 
REMARK    5  A    between atoms: C_16  and  C_17 
REMARK       I    between atoms: C_17  and  N_18 
REMARK    6  A    between atoms: N_18  and  C_19 
REMARK    7  A    between atoms: C_21  and  O_22 
REMARK    8  A    between atoms: O_22  and  C_23 
ROOT
HETATM    1  C   UNL     1       8.032  28.857  57.565  1.00  0.00     0.256 C 
HETATM    2  N   UNL     1       7.174  27.772  57.629  1.00  0.00    -0.323 N 
HETATM    3  O   UNL     1       8.997  28.962  56.816  1.00  0.00    -0.267 OA
HETATM    4  H   UNL     1       6.412  27.798  58.284  1.00  0.00     0.169 HD
ENDROOT
BRANCH   1   5
HETATM    5  C   UNL     1       7.744  30.007  58.493  1.00  0.00     0.033 A 
HETATM    6  C   UNL     1       8.516  30.113  59.664  1.00  0.00     0.034 A 
HETATM    7  C   UNL     1       8.323  31.152  60.601  1.00  0.00     0.056 A 
HETATM    8  C   UNL     1       7.313  32.107  60.354  1.00  0.00    -0.015 A 
HETATM    9  C   UNL     1       6.550  32.004  59.176  1.00  0.00     0.011 A 
HETATM   10  C   UNL     1       6.756  30.967  58.262  1.00  0.00     0.017 A 
BRANCH   7  11
HETATM   11  C   UNL     1       9.181  31.155  61.854  1.00  0.00     0.418 C 
HETATM   12  F   UNL     1       8.474  31.327  63.007  1.00  0.00    -0.166 F 
HETATM   13  F   UNL     1       9.881  29.998  62.007  1.00  0.00    -0.166 F 
HETATM   14  F   UNL     1      10.106  32.155  61.856  1.00  0.00    -0.166 F 
ENDBRANCH   7  11
BRANCH   8  15
HETATM   15  C   UNL     1       6.989  33.226  61.325  1.00  0.00     0.312 C 
BRANCH  15  16
HETATM   16  N   UNL     1       5.542  33.398  61.535  1.00  0.00     0.096 N 
HETATM   17  C   UNL     1       5.144  34.773  61.892  1.00  0.00     0.300 C 
HETATM   18  C   UNL     1       5.562  35.221  63.307  1.00  0.00     0.265 C 
HETATM   19  N   UNL     1       5.056  34.236  64.355  1.00  0.00    -0.068 N 
HETATM   20  H   UNL     1       4.028  34.281  64.331  1.00  0.00     0.280 HD
HETATM   21  C   UNL     1       5.425  32.794  64.003  1.00  0.00     0.265 C 
HETATM   22  C   UNL     1       5.028  32.456  62.550  1.00  0.00     0.300 C 
BRANCH  19  23
HETATM   23  C   UNL     1       5.505  34.569  65.761  1.00  0.00     0.230 C 
HETATM   24  C   UNL     1       6.811  33.879  66.104  1.00  0.00     0.034 C 
ENDBRANCH  19  23
ENDBRANCH  15  16
ENDBRANCH   8  15
ENDBRANCH   1   5
BRANCH   2  25
HETATM   25  C   UNL     1       7.191  26.612  56.822  1.00  0.00     0.037 A 
HETATM   26  C   UNL     1       6.339  26.393  55.739  1.00  0.00     0.067 A 
HETATM   27  C   UNL     1       6.373  25.170  55.052  1.00  0.00     0.084 A 
HETATM   28  C   UNL     1       7.306  24.179  55.390  1.00  0.00    -0.028 A 
HETATM   29  C   UNL     1       7.392  22.895  54.616  1.00  0.00     0.051 C 
HETATM   30  C   UNL     1       8.186  24.421  56.448  1.00  0.00     0.012 A 
HETATM   31  C   UNL     1       8.119  25.620  57.163  1.00  0.00     0.030 A 
BRANCH  27  32
HETATM   32  O   UNL     1       5.547  24.925  53.976  1.00  0.00    -0.310 OA
BRANCH  32  33
HETATM   33  C   UNL     1       5.510  25.837  52.941  1.00  0.00     0.076 A 
HETATM   34  C   UNL     1       5.008  25.349  51.728  1.00  0.00     0.047 A 
HETATM   35  C   UNL     1       4.932  26.223  50.659  1.00  0.00    -0.020 A 
HETATM   36  C   UNL     1       5.339  27.547  50.793  1.00  0.00     0.041 A 
HETATM   37  C   UNL     1       4.451  25.988  49.259  1.00  0.00     0.144 A 
HETATM   38  N   UNL     1       5.180  28.208  49.586  1.00  0.00    -0.326 N 
HETATM   39  C   UNL     1       5.814  28.061  51.979  1.00  0.00     0.033 A 
HETATM   40  C   UNL     1       4.664  27.362  48.613  1.00  0.00     0.226 A 
HETATM   41  H   UNL     1       5.405  29.175  49.405  1.00  0.00     0.169 HD
HETATM   42  O   UNL     1       4.425  27.668  47.456  1.00  0.00    -0.273 OA
HETATM   43  C   UNL     1       5.883  27.192  53.073  1.00  0.00     0.039 A 
ENDBRANCH  32  33
ENDBRANCH  27  32
ENDBRANCH   2  25
TORSDOF 8
ENDMDL
MODEL 4
REMARK VINA RESULT:     -10.9      3.934     12.015
REMARK  8 active torsions:
REMARK  status: ('A' for Active; 'I' for Inactive)
REMARK    1  A    between atoms: C_2  and  N_3 
REMARK    2  A    between atoms: N_7  and  C_8 
REMARK    3  A    between atoms: C_8  and  C_9 
REMARK    4  A    between atoms: C_10  and  C_11 
REMARK    5  A    between atoms: C_16  and  C_17 
REMARK       I    between atoms: C_17  and  N_18 
REMARK    6  A    between atoms: N_18  and  C_19 
REMARK    7  A    between atoms: C_21  and  O_22 
REMARK    8  A    between atoms: O_22  and  C_23 
ROOT
HETATM    1  C   UNL     1       7.077  29.746  57.335  1.00  0.00     0.256 C 
HETATM    2  N   UNL     1       5.966  29.664  56.514  1.00  0.00    -0.323 N 
HETATM    3  O   UNL     1       8.105  29.087  57.216  1.00  0.00    -0.267 OA
HETATM    4  H   UNL     1       5.178  30.257  56.708  1.00  0.00     0.169 HD
ENDROOT
BRANCH   1   5
HETATM    5  C   UNL     1       7.015  30.737  58.466  1.00  0.00     0.033 A 
HETATM    6  C   UNL     1       7.935  30.588  59.520  1.00  0.00     0.034 A 
HETATM    7  C   UNL     1       7.958  31.463  60.629  1.00  0.00     0.056 A 
HETATM    8  C   UNL     1       7.015  32.513  60.682  1.00  0.00    -0.015 A 
HETATM    9  C   UNL     1       6.103  32.665  59.621  1.00  0.00     0.011 A 
HETATM   10  C   UNL     1       6.097  31.788  58.533  1.00  0.00     0.017 A 
BRANCH   7  11
HETATM   11  C   UNL     1       8.964  31.192  61.734  1.00  0.00     0.418 C 
HETATM   12  F   UNL     1       9.668  30.037  61.569  1.00  0.00    -0.166 F 
HETATM   13  F   UNL     1       9.886  32.186  61.850  1.00  0.00    -0.166 F 
HETATM   14  F   UNL     1       8.381  31.078  62.960  1.00  0.00    -0.166 F 
ENDBRANCH   7  11
BRANCH   8  15
HETATM   15  C   UNL     1       6.920  33.469  61.855  1.00  0.00     0.312 C 
BRANCH  15  16
HETATM   16  N   UNL     1       5.549  33.952  62.087  1.00  0.00     0.096 N 
HETATM   17  C   UNL     1       5.477  35.312  62.652  1.00  0.00     0.300 C 
HETATM   18  C   UNL     1       5.933  35.428  64.120  1.00  0.00     0.265 C 
HETATM   19  N   UNL     1       5.166  34.449  65.002  1.00  0.00    -0.068 N 
HETATM   20  H   UNL     1       4.180  34.744  64.983  1.00  0.00     0.280 HD
HETATM   21  C   UNL     1       5.193  33.030  64.430  1.00  0.00     0.265 C 
HETATM   22  C   UNL     1       4.785  33.021  62.942  1.00  0.00     0.300 C 
BRANCH  19  23
HETATM   23  C   UNL     1       5.626  34.447  66.443  1.00  0.00     0.230 C 
HETATM   24  C   UNL     1       4.481  34.141  67.390  1.00  0.00     0.034 C 
ENDBRANCH  19  23
ENDBRANCH  15  16
ENDBRANCH   8  15
ENDBRANCH   1   5
BRANCH   2  25
HETATM   25  C   UNL     1       5.808  28.870  55.355  1.00  0.00     0.037 A 
HETATM   26  C   UNL     1       6.764  27.974  54.877  1.00  0.00     0.067 A 
HETATM   27  C   UNL     1       6.551  27.294  53.668  1.00  0.00     0.084 A 
HETATM   28  C   UNL     1       5.351  27.446  52.958  1.00  0.00    -0.028 A 
HETATM   29  C   UNL     1       5.090  26.671  51.698  1.00  0.00     0.051 C 
HETATM   30  C   UNL     1       4.379  28.313  53.464  1.00  0.00     0.012 A 
HETATM   31  C   UNL     1       4.612  29.026  54.643  1.00  0.00     0.030 A 
BRANCH  27  32
HETATM   32  O   UNL     1       7.475  26.400  53.171  1.00  0.00    -0.310 OA
BRANCH  32  33
HETATM   33  C   UNL     1       7.654  25.196  53.821  1.00  0.00     0.076 A 
HETATM   34  C   UNL     1       7.951  24.105  52.995  1.00  0.00     0.047 A 
HETATM   35  C   UNL     1       8.157  22.875  53.592  1.00  0.00    -0.020 A 
HETATM   36  C   UNL     1       8.076  22.734  54.975  1.00  0.00     0.041 A 
HETATM   37  C   UNL     1       8.480  21.549  52.973  1.00  0.00     0.144 A 
HETATM   38  N   UNL     1       8.306  21.413  55.323  1.00  0.00    -0.326 N 
HETATM   39  C   UNL     1       7.811  23.793  55.815  1.00  0.00     0.033 A 
HETATM   40  C   UNL     1       8.549  20.632  54.200  1.00  0.00     0.226 A 
HETATM   41  H   UNL     1       8.299  21.036  56.258  1.00  0.00     0.169 HD
HETATM   42  O   UNL     1       8.777  19.433  54.202  1.00  0.00    -0.273 OA
HETATM   43  C   UNL     1       7.614  25.045  55.225  1.00  0.00     0.039 A 
ENDBRANCH  32  33
ENDBRANCH  27  32
ENDBRANCH   2  25
TORSDOF 8
ENDMDL
MODEL 5
REMARK VINA RESULT:     -10.7      3.649     11.840
REMARK  8 active torsions:
REMARK  status: ('A' for Active; 'I' for Inactive)
REMARK    1  A    between atoms: C_2  and  N_3 
REMARK    2  A    between atoms: N_7  and  C_8 
REMARK    3  A    between atoms: C_8  and  C_9 
REMARK    4  A    between atoms: C_10  and  C_11 
REMARK    5  A    between atoms: C_16  and  C_17 
REMARK       I    between atoms: C_17  and  N_18 
REMARK    6  A    between atoms: N_18  and  C_19 
REMARK    7  A    between atoms: C_21  and  O_22 
REMARK    8  A    between atoms: O_22  and  C_23 
ROOT
HETATM    1  C   UNL     1       5.806  30.727  56.616  1.00  0.00     0.256 C 
HETATM    2  N   UNL     1       6.244  29.424  56.454  1.00  0.00    -0.323 N 
HETATM    3  O   UNL     1       5.193  31.384  55.782  1.00  0.00    -0.267 OA
HETATM    4  H   UNL     1       6.738  28.984  57.212  1.00  0.00     0.169 HD
ENDROOT
BRANCH   1   5
HETATM    5  C   UNL     1       6.106  31.386  57.935  1.00  0.00     0.033 A 
HETATM    6  C   UNL     1       7.349  31.116  58.536  1.00  0.00     0.034 A 
HETATM    7  C   UNL     1       7.726  31.681  59.774  1.00  0.00     0.056 A 
HETATM    8  C   UNL     1       6.816  32.537  60.432  1.00  0.00    -0.015 A 
HETATM    9  C   UNL     1       5.578  32.814  59.824  1.00  0.00     0.011 A 
HETATM   10  C   UNL     1       5.224  32.242  58.598  1.00  0.00     0.017 A 
BRANCH   7  11
HETATM   11  C   UNL     1       9.074  31.294  60.358  1.00  0.00     0.418 C 
HETATM   12  F   UNL     1       8.989  30.539  61.490  1.00  0.00    -0.166 F 
HETATM   13  F   UNL     1       9.834  30.583  59.482  1.00  0.00    -0.166 F 
HETATM   14  F   UNL     1       9.824  32.375  60.712  1.00  0.00    -0.166 F 
ENDBRANCH   7  11
BRANCH   8  15
HETATM   15  C   UNL     1       7.101  33.147  61.791  1.00  0.00     0.312 C 
BRANCH  15  16
HETATM   16  N   UNL     1       6.819  32.224  62.902  1.00  0.00     0.096 N 
HETATM   17  C   UNL     1       5.391  32.130  63.259  1.00  0.00     0.300 C 
HETATM   18  C   UNL     1       4.813  33.383  63.948  1.00  0.00     0.265 C 
HETATM   19  N   UNL     1       5.641  33.754  65.173  1.00  0.00    -0.068 N 
HETATM   20  H   UNL     1       5.537  32.983  65.846  1.00  0.00     0.280 HD
HETATM   21  C   UNL     1       7.134  33.832  64.846  1.00  0.00     0.265 C 
HETATM   22  C   UNL     1       7.607  32.566  64.102  1.00  0.00     0.300 C 
BRANCH  19  23
HETATM   23  C   UNL     1       5.181  35.028  65.848  1.00  0.00     0.230 C 
HETATM   24  C   UNL     1       3.689  35.006  66.115  1.00  0.00     0.034 C 
ENDBRANCH  19  23
ENDBRANCH  15  16
ENDBRANCH   8  15
ENDBRANCH   1   5
BRANCH   2  25
HETATM   25  C   UNL     1       6.028  28.574  55.346  1.00  0.00     0.037 A 
HETATM   26  C   UNL     1       7.017  27.799  54.742  1.00  0.00     0.067 A 
HETATM   27  C   UNL     1       6.723  27.053  53.590  1.00  0.00     0.084 A 
HETATM   28  C   UNL     1       5.422  27.014  53.069  1.00  0.00    -0.028 A 
HETATM   29  C   UNL     1       5.087  26.165  51.876  1.00  0.00     0.051 C 
HETATM   30  C   UNL     1       4.425  27.759  53.704  1.00  0.00     0.012 A 
HETATM   31  C   UNL     1       4.729  28.540  54.822  1.00  0.00     0.030 A 
BRANCH  27  32
HETATM   32  O   UNL     1       7.679  26.274  52.973  1.00  0.00    -0.310 OA
BRANCH  32  33
HETATM   33  C   UNL     1       7.829  24.961  53.371  1.00  0.00     0.076 A 
HETATM   34  C   UNL     1       7.943  24.762  54.752  1.00  0.00     0.047 A 
HETATM   35  C   UNL     1       8.080  23.465  55.212  1.00  0.00    -0.020 A 
HETATM   36  C   UNL     1       8.098  22.394  54.323  1.00  0.00     0.041 A 
HETATM   37  C   UNL     1       8.226  22.953  56.614  1.00  0.00     0.144 A 
HETATM   38  N   UNL     1       8.260  21.210  55.024  1.00  0.00    -0.326 N 
HETATM   39  C   UNL     1       7.963  22.557  52.962  1.00  0.00     0.033 A 
HETATM   40  C   UNL     1       8.351  21.442  56.390  1.00  0.00     0.226 A 
HETATM   41  H   UNL     1       8.312  20.286  54.623  1.00  0.00     0.169 HD
HETATM   42  O   UNL     1       8.502  20.588  57.249  1.00  0.00    -0.273 OA
HETATM   43  C   UNL     1       7.810  23.862  52.485  1.00  0.00     0.039 A 
ENDBRANCH  32  33
ENDBRANCH  27  32
ENDBRANCH   2  25
TORSDOF 8
ENDMDL
MODEL 6
REMARK VINA RESULT:     -10.6      2.823      4.801
REMARK  8 active torsions:
REMARK  status: ('A' for Active; 'I' for Inactive)
REMARK    1  A    between atoms: C_2  and  N_3 
REMARK    2  A    between atoms: N_7  and  C_8 
REMARK    3  A    between atoms: C_8  and  C_9 
REMARK    4  A    between atoms: C_10  and  C_11 
REMARK    5  A    between atoms: C_16  and  C_17 
REMARK       I    between atoms: C_17  and  N_18 
REMARK    6  A    between atoms: N_18  and  C_19 
REMARK    7  A    between atoms: C_21  and  O_22 
REMARK    8  A    between atoms: O_22  and  C_23 
ROOT
HETATM    1  C   UNL     1       4.131  31.144  58.210  1.00  0.00     0.256 C 
HETATM    2  N   UNL     1       4.830  31.477  59.357  1.00  0.00    -0.323 N 
HETATM    3  O   UNL     1       3.108  31.690  57.812  1.00  0.00    -0.267 OA
HETATM    4  H   UNL     1       5.660  30.957  59.583  1.00  0.00     0.169 HD
ENDROOT
BRANCH   1   5
HETATM    5  C   UNL     1       4.683  30.016  57.381  1.00  0.00     0.033 A 
HETATM    6  C   UNL     1       6.017  29.629  57.604  1.00  0.00     0.034 A 
HETATM    7  C   UNL     1       6.631  28.585  56.878  1.00  0.00     0.056 A 
HETATM    8  C   UNL     1       5.878  27.917  55.887  1.00  0.00    -0.015 A 
HETATM    9  C   UNL     1       4.541  28.299  55.673  1.00  0.00     0.011 A 
HETATM   10  C   UNL     1       3.953  29.336  56.403  1.00  0.00     0.017 A 
BRANCH   7  11
HETATM   11  C   UNL     1       8.089  28.272  57.167  1.00  0.00     0.418 C 
HETATM   12  F   UNL     1       8.611  28.984  58.205  1.00  0.00    -0.166 F 
HETATM   13  F   UNL     1       8.288  26.960  57.467  1.00  0.00    -0.166 F 
HETATM   14  F   UNL     1       8.904  28.542  56.109  1.00  0.00    -0.166 F 
ENDBRANCH   7  11
BRANCH   8  15
HETATM   15  C   UNL     1       6.462  26.824  55.014  1.00  0.00     0.312 C 
BRANCH  15  16
HETATM   16  N   UNL     1       5.673  25.581  55.051  1.00  0.00     0.096 N 
HETATM   17  C   UNL     1       5.968  24.714  56.207  1.00  0.00     0.300 C 
HETATM   18  C   UNL     1       7.345  24.022  56.162  1.00  0.00     0.265 C 
HETATM   19  N   UNL     1       7.515  23.245  54.862  1.00  0.00    -0.068 N 
HETATM   20  H   UNL     1       6.815  22.490  54.875  1.00  0.00     0.280 HD
HETATM   21  C   UNL     1       7.188  24.105  53.640  1.00  0.00     0.265 C 
HETATM   22  C   UNL     1       5.824  24.808  53.803  1.00  0.00     0.300 C 
BRANCH  19  23
HETATM   23  C   UNL     1       8.880  22.611  54.712  1.00  0.00     0.230 C 
HETATM   24  C   UNL     1       8.876  21.528  53.650  1.00  0.00     0.034 C 
ENDBRANCH  19  23
ENDBRANCH  15  16
ENDBRANCH   8  15
ENDBRANCH   1   5
BRANCH   2  25
HETATM   25  C   UNL     1       4.557  32.533  60.256  1.00  0.00     0.037 A 
HETATM   26  C   UNL     1       4.302  32.364  61.616  1.00  0.00     0.067 A 
HETATM   27  C   UNL     1       3.954  33.468  62.411  1.00  0.00     0.084 A 
HETATM   28  C   UNL     1       3.926  34.763  61.874  1.00  0.00    -0.028 A 
HETATM   29  C   UNL     1       3.619  35.955  62.733  1.00  0.00     0.051 C 
HETATM   30  C   UNL     1       4.224  34.931  60.519  1.00  0.00     0.012 A 
HETATM   31  C   UNL     1       4.523  33.826  59.717  1.00  0.00     0.030 A 
BRANCH  27  32
HETATM   32  O   UNL     1       3.700  33.334  63.759  1.00  0.00    -0.310 OA
BRANCH  32  33
HETATM   33  C   UNL     1       4.713  33.599  64.658  1.00  0.00     0.076 A 
HETATM   34  C   UNL     1       4.296  34.062  65.913  1.00  0.00     0.047 A 
HETATM   35  C   UNL     1       5.266  34.329  66.861  1.00  0.00    -0.020 A 
HETATM   36  C   UNL     1       6.615  34.137  66.573  1.00  0.00     0.041 A 
HETATM   37  C   UNL     1       5.123  34.833  68.266  1.00  0.00     0.144 A 
HETATM   38  N   UNL     1       7.381  34.488  67.672  1.00  0.00    -0.326 N 
HETATM   39  C   UNL     1       7.053  33.660  65.357  1.00  0.00     0.033 A 
HETATM   40  C   UNL     1       6.584  34.919  68.724  1.00  0.00     0.226 A 
HETATM   41  H   UNL     1       8.387  34.451  67.729  1.00  0.00     0.169 HD
HETATM   42  O   UNL     1       6.984  35.296  69.814  1.00  0.00    -0.273 OA
HETATM   43  C   UNL     1       6.081  33.372  64.393  1.00  0.00     0.039 A 
ENDBRANCH  32  33
ENDBRANCH  27  32
ENDBRANCH   2  25
TORSDOF 8
ENDMDL
MODEL 7
REMARK VINA RESULT:     -10.4      2.183      2.923
REMARK  8 active torsions:
REMARK  status: ('A' for Active; 'I' for Inactive)
REMARK    1  A    between atoms: C_2  and  N_3 
REMARK    2  A    between atoms: N_7  and  C_8 
REMARK    3  A    between atoms: C_8  and  C_9 
REMARK    4  A    between atoms: C_10  and  C_11 
REMARK    5  A    between atoms: C_16  and  C_17 
REMARK       I    between atoms: C_17  and  N_18 
REMARK    6  A    between atoms: N_18  and  C_19 
REMARK    7  A    between atoms: C_21  and  O_22 
REMARK    8  A    between atoms: O_22  and  C_23 
ROOT
HETATM    1  C   UNL     1       7.985  30.952  59.256  1.00  0.00     0.256 C 
HETATM    2  N   UNL     1       7.011  30.986  60.239  1.00  0.00    -0.323 N 
HETATM    3  O   UNL     1       8.980  31.666  59.211  1.00  0.00    -0.267 OA
HETATM    4  H   UNL     1       6.237  30.348  60.172  1.00  0.00     0.169 HD
ENDROOT
BRANCH   1   5
HETATM    5  C   UNL     1       7.804  29.943  58.154  1.00  0.00     0.033 A 
HETATM    6  C   UNL     1       6.533  29.844  57.558  1.00  0.00     0.034 A 
HETATM    7  C   UNL     1       6.258  28.928  56.519  1.00  0.00     0.056 A 
HETATM    8  C   UNL     1       7.294  28.077  56.075  1.00  0.00    -0.015 A 
HETATM    9  C   UNL     1       8.566  28.186  56.666  1.00  0.00     0.011 A 
HETATM   10  C   UNL     1       8.817  29.099  57.694  1.00  0.00     0.017 A 
BRANCH   7  11
HETATM   11  C   UNL     1       4.843  28.870  55.970  1.00  0.00     0.418 C 
HETATM   12  F   UNL     1       4.780  28.834  54.609  1.00  0.00    -0.166 F 
HETATM   13  F   UNL     1       4.159  27.780  56.412  1.00  0.00    -0.166 F 
HETATM   14  F   UNL     1       4.095  29.951  56.328  1.00  0.00    -0.166 F 
ENDBRANCH   7  11
BRANCH   8  15
HETATM   15  C   UNL     1       7.086  27.021  55.007  1.00  0.00     0.312 C 
BRANCH  15  16
HETATM   16  N   UNL     1       6.330  25.856  55.496  1.00  0.00     0.096 N 
HETATM   17  C   UNL     1       7.165  24.819  56.130  1.00  0.00     0.300 C 
HETATM   18  C   UNL     1       8.061  24.026  55.157  1.00  0.00     0.265 C 
HETATM   19  N   UNL     1       7.230  23.420  54.033  1.00  0.00    -0.068 N 
HETATM   20  H   UNL     1       6.600  22.733  54.468  1.00  0.00     0.280 HD
HETATM   21  C   UNL     1       6.326  24.462  53.370  1.00  0.00     0.265 C 
HETATM   22  C   UNL     1       5.519  25.249  54.423  1.00  0.00     0.300 C 
BRANCH  19  23
HETATM   23  C   UNL     1       8.058  22.700  52.991  1.00  0.00     0.230 C 
HETATM   24  C   UNL     1       7.971  21.195  53.157  1.00  0.00     0.034 C 
ENDBRANCH  19  23
ENDBRANCH  15  16
ENDBRANCH   8  15
ENDBRANCH   1   5
BRANCH   2  25
HETATM   25  C   UNL     1       6.990  31.787  61.403  1.00  0.00     0.037 A 
HETATM   26  C   UNL     1       6.024  32.755  61.677  1.00  0.00     0.067 A 
HETATM   27  C   UNL     1       6.138  33.561  62.820  1.00  0.00     0.084 A 
HETATM   28  C   UNL     1       7.178  33.364  63.741  1.00  0.00    -0.028 A 
HETATM   29  C   UNL     1       7.268  34.179  64.999  1.00  0.00     0.051 C 
HETATM   30  C   UNL     1       8.119  32.364  63.482  1.00  0.00     0.012 A 
HETATM   31  C   UNL     1       8.032  31.594  62.320  1.00  0.00     0.030 A 
BRANCH  27  32
HETATM   32  O   UNL     1       5.198  34.524  63.120  1.00  0.00    -0.310 OA
BRANCH  32  33
HETATM   33  C   UNL     1       5.130  35.658  62.337  1.00  0.00     0.076 A 
HETATM   34  C   UNL     1       6.016  36.684  62.687  1.00  0.00     0.047 A 
HETATM   35  C   UNL     1       6.005  37.838  61.927  1.00  0.00    -0.020 A 
HETATM   36  C   UNL     1       5.139  37.969  60.844  1.00  0.00     0.041 A 
HETATM   37  C   UNL     1       6.823  39.087  62.065  1.00  0.00     0.144 A 
HETATM   38  N   UNL     1       5.308  39.214  60.261  1.00  0.00    -0.326 N 
HETATM   39  C   UNL     1       4.274  36.968  60.461  1.00  0.00     0.033 A 
HETATM   40  C   UNL     1       6.283  39.951  60.920  1.00  0.00     0.226 A 
HETATM   41  H   UNL     1       4.802  39.568  59.463  1.00  0.00     0.169 HD
HETATM   42  O   UNL     1       6.638  41.083  60.630  1.00  0.00    -0.273 OA
HETATM   43  C   UNL     1       4.285  35.789  61.213  1.00  0.00     0.039 A 
ENDBRANCH  32  33
ENDBRANCH  27  32
ENDBRANCH   2  25
TORSDOF 8
ENDMDL
MODEL 8
REMARK VINA RESULT:     -10.2      3.066      3.894
REMARK  8 active torsions:
REMARK  status: ('A' for Active; 'I' for Inactive)
REMARK    1  A    between atoms: C_2  and  N_3 
REMARK    2  A    between atoms: N_7  and  C_8 
REMARK    3  A    between atoms: C_8  and  C_9 
REMARK    4  A    between atoms: C_10  and  C_11 
REMARK    5  A    between atoms: C_16  and  C_17 
REMARK       I    between atoms: C_17  and  N_18 
REMARK    6  A    between atoms: N_18  and  C_19 
REMARK    7  A    between atoms: C_21  and  O_22 
REMARK    8  A    between atoms: O_22  and  C_23 
ROOT
HETATM    1  C   UNL     1       7.780  32.010  60.128  1.00  0.00     0.256 C 
HETATM    2  N   UNL     1       6.778  31.843  61.067  1.00  0.00    -0.323 N 
HETATM    3  O   UNL     1       8.703  32.814  60.203  1.00  0.00    -0.267 OA
HETATM    4  H   UNL     1       6.071  31.148  60.898  1.00  0.00     0.169 HD
ENDROOT
BRANCH   1   5
HETATM    5  C   UNL     1       7.731  31.121  58.915  1.00  0.00     0.033 A 
HETATM    6  C   UNL     1       8.952  30.755  58.319  1.00  0.00     0.034 A 
HETATM    7  C   UNL     1       9.015  29.927  57.177  1.00  0.00     0.056 A 
HETATM    8  C   UNL     1       7.808  29.463  56.611  1.00  0.00    -0.015 A 
HETATM    9  C   UNL     1       6.589  29.822  57.215  1.00  0.00     0.011 A 
HETATM   10  C   UNL     1       6.549  30.643  58.345  1.00  0.00     0.017 A 
BRANCH   7  11
HETATM   11  C   UNL     1      10.381  29.623  56.586  1.00  0.00     0.418 C 
HETATM   12  F   UNL     1      11.405  30.287  57.193  1.00  0.00    -0.166 F 
HETATM   13  F   UNL     1      10.693  28.301  56.653  1.00  0.00    -0.166 F 
HETATM   14  F   UNL     1      10.472  29.963  55.270  1.00  0.00    -0.166 F 
ENDBRANCH   7  11
BRANCH   8  15
HETATM   15  C   UNL     1       7.765  28.618  55.352  1.00  0.00     0.312 C 
BRANCH  15  16
HETATM   16  N   UNL     1       6.533  27.819  55.242  1.00  0.00     0.096 N 
HETATM   17  C   UNL     1       6.655  26.448  55.772  1.00  0.00     0.300 C 
HETATM   18  C   UNL     1       7.530  25.502  54.925  1.00  0.00     0.265 C 
HETATM   19  N   UNL     1       7.044  25.469  53.481  1.00  0.00    -0.068 N 
HETATM   20  H   UNL     1       6.102  25.053  53.495  1.00  0.00     0.280 HD
HETATM   21  C   UNL     1       6.877  26.877  52.906  1.00  0.00     0.265 C 
HETATM   22  C   UNL     1       6.044  27.769  53.850  1.00  0.00     0.300 C 
BRANCH  19  23
HETATM   23  C   UNL     1       7.912  24.627  52.572  1.00  0.00     0.230 C 
HETATM   24  C   UNL     1       7.752  23.147  52.866  1.00  0.00     0.034 C 
ENDBRANCH  19  23
ENDBRANCH  15  16
ENDBRANCH   8  15
ENDBRANCH   1   5
BRANCH   2  25
HETATM   25  C   UNL     1       6.644  32.501  62.310  1.00  0.00     0.037 A 
HETATM   26  C   UNL     1       5.632  33.411  62.615  1.00  0.00     0.067 A 
HETATM   27  C   UNL     1       5.634  34.080  63.849  1.00  0.00     0.084 A 
HETATM   28  C   UNL     1       6.604  33.796  64.822  1.00  0.00    -0.028 A 
HETATM   29  C   UNL     1       6.573  34.460  66.168  1.00  0.00     0.051 C 
HETATM   30  C   UNL     1       7.591  32.852  64.526  1.00  0.00     0.012 A 
HETATM   31  C   UNL     1       7.616  32.222  63.279  1.00  0.00     0.030 A 
BRANCH  27  32
HETATM   32  O   UNL     1       4.646  34.982  64.182  1.00  0.00    -0.310 OA
BRANCH  32  33
HETATM   33  C   UNL     1       4.558  36.166  63.478  1.00  0.00     0.076 A 
HETATM   34  C   UNL     1       5.695  36.982  63.531  1.00  0.00     0.047 A 
HETATM   35  C   UNL     1       5.671  38.174  62.832  1.00  0.00    -0.020 A 
HETATM   36  C   UNL     1       4.550  38.543  62.093  1.00  0.00     0.041 A 
HETATM   37  C   UNL     1       6.721  39.237  62.709  1.00  0.00     0.144 A 
HETATM   38  N   UNL     1       4.767  39.777  61.502  1.00  0.00    -0.326 N 
HETATM   39  C   UNL     1       3.427  37.750  62.002  1.00  0.00     0.033 A 
HETATM   40  C   UNL     1       6.027  40.271  61.815  1.00  0.00     0.226 A 
HETATM   41  H   UNL     1       4.114  40.278  60.918  1.00  0.00     0.169 HD
HETATM   42  O   UNL     1       6.488  41.336  61.439  1.00  0.00    -0.273 OA
HETATM   43  C   UNL     1       3.444  36.534  62.694  1.00  0.00     0.039 A 
ENDBRANCH  32  33
ENDBRANCH  27  32
ENDBRANCH   2  25
TORSDOF 8
ENDMDL
MODEL 9
REMARK VINA RESULT:      -9.8      2.003      2.513
REMARK  8 active torsions:
REMARK  status: ('A' for Active; 'I' for Inactive)
REMARK    1  A    between atoms: C_2  and  N_3 
REMARK    2  A    between atoms: N_7  and  C_8 
REMARK    3  A    between atoms: C_8  and  C_9 
REMARK    4  A    between atoms: C_10  and  C_11 
REMARK    5  A    between atoms: C_16  and  C_17 
REMARK       I    between atoms: C_17  and  N_18 
REMARK    6  A    between atoms: N_18  and  C_19 
REMARK    7  A    between atoms: C_21  and  O_22 
REMARK    8  A    between atoms: O_22  and  C_23 
ROOT
HETATM    1  C   UNL     1       6.802  31.701  59.327  1.00  0.00     0.256 C 
HETATM    2  N   UNL     1       7.072  31.288  60.620  1.00  0.00    -0.323 N 
HETATM    3  O   UNL     1       6.421  32.819  58.999  1.00  0.00    -0.267 OA
HETATM    4  H   UNL     1       7.382  30.343  60.769  1.00  0.00     0.169 HD
ENDROOT
BRANCH   1   5
HETATM    5  C   UNL     1       7.005  30.687  58.233  1.00  0.00     0.033 A 
HETATM    6  C   UNL     1       8.308  30.511  57.735  1.00  0.00     0.034 A 
HETATM    7  C   UNL     1       8.604  29.587  56.708  1.00  0.00     0.056 A 
HETATM    8  C   UNL     1       7.549  28.827  56.158  1.00  0.00    -0.015 A 
HETATM    9  C   UNL     1       6.248  28.998  56.666  1.00  0.00     0.011 A 
HETATM   10  C   UNL     1       5.977  29.918  57.683  1.00  0.00     0.017 A 
BRANCH   7  11
HETATM   11  C   UNL     1      10.037  29.501  56.212  1.00  0.00     0.418 C 
HETATM   12  F   UNL     1      10.692  28.375  56.612  1.00  0.00    -0.166 F 
HETATM   13  F   UNL     1      10.118  29.527  54.854  1.00  0.00    -0.166 F 
HETATM   14  F   UNL     1      10.809  30.533  56.653  1.00  0.00    -0.166 F 
ENDBRANCH   7  11
BRANCH   8  15
HETATM   15  C   UNL     1       7.751  27.852  55.014  1.00  0.00     0.312 C 
BRANCH  15  16
HETATM   16  N   UNL     1       6.530  27.100  54.682  1.00  0.00     0.096 N 
HETATM   17  C   UNL     1       6.381  25.835  55.425  1.00  0.00     0.300 C 
HETATM   18  C   UNL     1       7.366  24.723  55.012  1.00  0.00     0.265 C 
HETATM   19  N   UNL     1       7.291  24.466  53.511  1.00  0.00    -0.068 N 
HETATM   20  H   UNL     1       6.348  24.100  53.320  1.00  0.00     0.280 HD
HETATM   21  C   UNL     1       7.412  25.762  52.707  1.00  0.00     0.265 C 
HETATM   22  C   UNL     1       6.436  26.836  53.232  1.00  0.00     0.300 C 
BRANCH  19  23
HETATM   23  C   UNL     1       8.295  23.446  53.022  1.00  0.00     0.230 C 
HETATM   24  C   UNL     1       7.780  22.030  53.200  1.00  0.00     0.034 C 
ENDBRANCH  19  23
ENDBRANCH  15  16
ENDBRANCH   8  15
ENDBRANCH   1   5
BRANCH   2  25
HETATM   25  C   UNL     1       7.027  32.065  61.800  1.00  0.00     0.037 A 
HETATM   26  C   UNL     1       6.146  33.125  62.012  1.00  0.00     0.067 A 
HETATM   27  C   UNL     1       6.237  33.894  63.183  1.00  0.00     0.084 A 
HETATM   28  C   UNL     1       7.160  33.570  64.188  1.00  0.00    -0.028 A 
HETATM   29  C   UNL     1       7.218  34.347  65.471  1.00  0.00     0.051 C 
HETATM   30  C   UNL     1       8.012  32.480  63.988  1.00  0.00     0.012 A 
HETATM   31  C   UNL     1       7.953  31.745  62.801  1.00  0.00     0.030 A 
BRANCH  27  32
HETATM   32  O   UNL     1       5.379  34.945  63.424  1.00  0.00    -0.310 OA
BRANCH  32  33
HETATM   33  C   UNL     1       4.479  35.310  62.443  1.00  0.00     0.076 A 
HETATM   34  C   UNL     1       3.249  34.643  62.476  1.00  0.00     0.047 A 
HETATM   35  C   UNL     1       2.302  34.979  61.528  1.00  0.00    -0.020 A 
HETATM   36  C   UNL     1       2.567  35.957  60.573  1.00  0.00     0.041 A 
HETATM   37  C   UNL     1       0.920  34.438  61.316  1.00  0.00     0.144 A 
HETATM   38  N   UNL     1       1.474  36.098  59.734  1.00  0.00    -0.326 N 
HETATM   39  C   UNL     1       3.758  36.648  60.530  1.00  0.00     0.033 A 
HETATM   40  C   UNL     1       0.449  35.233  60.093  1.00  0.00     0.226 A 
HETATM   41  H   UNL     1       1.404  36.733  58.953  1.00  0.00     0.169 HD
HETATM   42  O   UNL     1      -0.630  35.134  59.530  1.00  0.00    -0.273 OA
HETATM   43  C   UNL     1       4.720  36.327  61.493  1.00  0.00     0.039 A 
ENDBRANCH  32  33
ENDBRANCH  27  32
ENDBRANCH   2  25
TORSDOF 8
ENDMDL
MODEL 10
REMARK VINA RESULT:      -9.7      2.762      4.409
REMARK  8 active torsions:
REMARK  status: ('A' for Active; 'I' for Inactive)
REMARK    1  A    between atoms: C_2  and  N_3 
REMARK    2  A    between atoms: N_7  and  C_8 
REMARK    3  A    between atoms: C_8  and  C_9 
REMARK    4  A    between atoms: C_10  and  C_11 
REMARK    5  A    between atoms: C_16  and  C_17 
REMARK       I    between atoms: C_17  and  N_18 
REMARK    6  A    between atoms: N_18  and  C_19 
REMARK    7  A    between atoms: C_21  and  O_22 
REMARK    8  A    between atoms: O_22  and  C_23 
ROOT
HETATM    1  C   UNL     1       4.080  30.245  57.012  1.00  0.00     0.256 C 
HETATM    2  N   UNL     1       4.635  30.790  58.157  1.00  0.00    -0.323 N 
HETATM    3  O   UNL     1       3.182  30.745  56.344  1.00  0.00    -0.267 OA
HETATM    4  H   UNL     1       5.371  30.288  58.622  1.00  0.00     0.169 HD
ENDROOT
BRANCH   1   5
HETATM    5  C   UNL     1       4.638  28.926  56.549  1.00  0.00     0.033 A 
HETATM    6  C   UNL     1       4.480  28.587  55.192  1.00  0.00     0.034 A 
HETATM    7  C   UNL     1       4.964  27.373  54.658  1.00  0.00     0.056 A 
HETATM    8  C   UNL     1       5.617  26.466  55.522  1.00  0.00    -0.015 A 
HETATM    9  C   UNL     1       5.782  26.812  56.876  1.00  0.00     0.011 A 
HETATM   10  C   UNL     1       5.295  28.020  57.385  1.00  0.00     0.017 A 
BRANCH   7  11
HETATM   11  C   UNL     1       4.708  27.083  53.189  1.00  0.00     0.418 C 
HETATM   12  F   UNL     1       5.824  27.156  52.410  1.00  0.00    -0.166 F 
HETATM   13  F   UNL     1       4.184  25.844  52.989  1.00  0.00    -0.166 F 
HETATM   14  F   UNL     1       3.827  27.957  52.627  1.00  0.00    -0.166 F 
ENDBRANCH   7  11
BRANCH   8  15
HETATM   15  C   UNL     1       6.121  25.113  55.060  1.00  0.00     0.312 C 
BRANCH  15  16
HETATM   16  N   UNL     1       7.570  25.100  54.802  1.00  0.00     0.096 N 
HETATM   17  C   UNL     1       7.939  24.623  53.456  1.00  0.00     0.300 C 
HETATM   18  C   UNL     1       7.727  23.114  53.225  1.00  0.00     0.265 C 
HETATM   19  N   UNL     1       8.450  22.298  54.290  1.00  0.00    -0.068 N 
HETATM   20  H   UNL     1       9.457  22.470  54.162  1.00  0.00     0.280 HD
HETATM   21  C   UNL     1       8.115  22.785  55.702  1.00  0.00     0.265 C 
HETATM   22  C   UNL     1       8.293  24.313  55.820  1.00  0.00     0.300 C 
BRANCH  19  23
HETATM   23  C   UNL     1       8.212  20.809  54.175  1.00  0.00     0.230 C 
HETATM   24  C   UNL     1       8.256  20.350  52.730  1.00  0.00     0.034 C 
ENDBRANCH  19  23
ENDBRANCH  15  16
ENDBRANCH   8  15
ENDBRANCH   1   5
BRANCH   2  25
HETATM   25  C   UNL     1       4.336  32.039  58.748  1.00  0.00     0.037 A 
HETATM   26  C   UNL     1       3.756  32.196  60.007  1.00  0.00     0.067 A 
HETATM   27  C   UNL     1       3.416  33.476  60.471  1.00  0.00     0.084 A 
HETATM   28  C   UNL     1       3.715  34.620  59.717  1.00  0.00    -0.028 A 
HETATM   29  C   UNL     1       3.414  35.996  60.238  1.00  0.00     0.051 C 
HETATM   30  C   UNL     1       4.335  34.458  58.475  1.00  0.00     0.012 A 
HETATM   31  C   UNL     1       4.629  33.181  57.992  1.00  0.00     0.030 A 
BRANCH  27  32
HETATM   32  O   UNL     1       2.846  33.665  61.712  1.00  0.00    -0.310 OA
BRANCH  32  33
HETATM   33  C   UNL     1       3.657  33.650  62.828  1.00  0.00     0.076 A 
HETATM   34  C   UNL     1       3.134  34.287  63.960  1.00  0.00     0.047 A 
HETATM   35  C   UNL     1       3.896  34.291  65.114  1.00  0.00    -0.020 A 
HETATM   36  C   UNL     1       5.142  33.672  65.145  1.00  0.00     0.041 A 
HETATM   37  C   UNL     1       3.603  34.890  66.456  1.00  0.00     0.144 A 
HETATM   38  N   UNL     1       5.708  33.826  66.399  1.00  0.00    -0.326 N 
HETATM   39  C   UNL     1       5.672  33.016  64.055  1.00  0.00     0.033 A 
HETATM   40  C   UNL     1       4.870  34.541  67.245  1.00  0.00     0.226 A 
HETATM   41  H   UNL     1       6.610  33.480  66.690  1.00  0.00     0.169 HD
HETATM   42  O   UNL     1       5.110  34.833  68.406  1.00  0.00    -0.273 OA
HETATM   43  C   UNL     1       4.906  32.993  62.886  1.00  0.00     0.039 A 
ENDBRANCH  32  33
ENDBRANCH  27  32
ENDBRANCH   2  25
TORSDOF 8
ENDMDL
