MODEL 1
REMARK VINA RESULT:      -9.5      0.000      0.000
REMARK  5 active torsions:
REMARK  status: ('A' for Active; 'I' for Inactive)
REMARK    1  A    between atoms: C_3  and  N_4 
REMARK    2  A    between atoms: N_5  and  C_6 
REMARK    3  A    between atoms: C_6  and  C_7 
REMARK    4  A    between atoms: C_7  and  C_8 
REMARK    5  A    between atoms: C_19  and  C_20 
ROOT
HETATM    1  C   UNL     1      10.627  30.814  57.569  1.00  0.00     0.175 C 
HETATM    2  N   UNL     1       9.361  30.097  57.568  1.00  0.00    -0.186 N 
HETATM    3  C   UNL     1       8.938  29.333  56.567  1.00  0.00     0.680 C 
HETATM    4  N   UNL     1       7.924  28.587  56.992  1.00  0.00    -0.184 N 
HETATM    5  C   UNL     1       7.583  29.015  58.267  1.00  0.00     0.140 C 
HETATM    6  C   UNL     1       8.441  30.033  58.630  1.00  0.00     0.077 C 
ENDROOT
BRANCH   4   7
HETATM    7  C   UNL     1       7.295  27.441  56.299  1.00  0.00     0.231 C 
BRANCH   7   8
HETATM    8  C   UNL     1       7.862  26.084  56.702  1.00  0.00     0.178 C 
HETATM    9  O   UNL     1       8.309  25.869  57.831  1.00  0.00    -0.290 OA
BRANCH   8  10
HETATM   10  C   UNL     1       7.815  24.964  55.724  1.00  0.00     0.014 A 
HETATM   11  C   UNL     1       8.616  23.825  55.868  1.00  0.00     0.055 A 
HETATM   12  C   UNL     1       8.530  22.858  54.887  1.00  0.00     0.106 A 
HETATM   13  C   UNL     1       7.692  22.986  53.804  1.00  0.00     0.105 A 
HETATM   14  O   UNL     1       9.242  21.701  54.856  1.00  0.00    -0.323 OA
HETATM   15  O   UNL     1       7.770  21.926  52.960  1.00  0.00    -0.323 OA
HETATM   16  C   UNL     1       6.891  24.094  53.634  1.00  0.00     0.040 A 
HETATM   17  C   UNL     1       8.776  21.124  53.614  1.00  0.00     0.352 A 
HETATM   18  C   UNL     1       6.961  25.098  54.605  1.00  0.00     0.018 A 
ENDBRANCH   8  10
ENDBRANCH   7   8
ENDBRANCH   4   7
BRANCH   3  19
HETATM   19  N   UNL     1       9.472  29.323  55.350  1.00  0.00    -0.234 N 
HETATM   20  H   UNL     1       8.909  29.261  54.517  1.00  0.00     0.174 HD
HETATM   21  H   UNL     1      10.450  29.049  55.258  1.00  0.00     0.174 HD
ENDBRANCH   3  19
BRANCH   6  22
HETATM   22  C   UNL     1       8.367  30.837  59.899  1.00  0.00    -0.007 A 
HETATM   23  C   UNL     1       9.177  30.498  60.995  1.00  0.00     0.017 A 
HETATM   24  C   UNL     1       9.105  31.243  62.176  1.00  0.00     0.043 A 
HETATM   25  C   UNL     1       8.218  32.308  62.267  1.00  0.00     0.116 A 
HETATM   26  F   UNL     1       8.149  33.016  63.400  1.00  0.00    -0.206 F 
HETATM   27  C   UNL     1       7.398  32.642  61.198  1.00  0.00     0.043 A 
HETATM   28  C   UNL     1       7.469  31.905  60.013  1.00  0.00     0.017 A 
ENDBRANCH   6  22
TORSDOF 5
ENDMDL
MODEL 2
REMARK VINA RESULT:      -9.5      2.968      4.493
REMARK  5 active torsions:
REMARK  status: ('A' for Active; 'I' for Inactive)
REMARK    1  A    between atoms: C_3  and  N_4 
REMARK    2  A    between atoms: N_5  and  C_6 
REMARK    3  A    between atoms: C_6  and  C_7 
REMARK    4  A    between atoms: C_7  and  C_8 
REMARK    5  A    between atoms: C_19  and  C_20 
ROOT
HETATM    1  C   UNL     1       4.817  29.566  54.526  1.00  0.00     0.175 C 
HETATM    2  N   UNL     1       5.413  28.239  54.492  1.00  0.00    -0.186 N 
HETATM    3  C   UNL     1       4.914  27.214  53.809  1.00  0.00     0.680 C 
HETATM    4  N   UNL     1       5.834  26.260  53.727  1.00  0.00    -0.184 N 
HETATM    5  C   UNL     1       6.903  26.626  54.534  1.00  0.00     0.140 C 
HETATM    6  C   UNL     1       6.625  27.856  55.094  1.00  0.00     0.077 C 
ENDROOT
BRANCH   4   7
HETATM    7  C   UNL     1       5.804  25.048  52.879  1.00  0.00     0.231 C 
BRANCH   7   8
HETATM    8  C   UNL     1       7.172  24.411  52.658  1.00  0.00     0.178 C 
HETATM    9  O   UNL     1       8.009  24.901  51.896  1.00  0.00    -0.290 OA
BRANCH   8  10
HETATM   10  C   UNL     1       7.534  23.195  53.434  1.00  0.00     0.014 A 
HETATM   11  C   UNL     1       7.686  23.227  54.826  1.00  0.00     0.055 A 
HETATM   12  C   UNL     1       8.061  22.055  55.452  1.00  0.00     0.106 A 
HETATM   13  C   UNL     1       8.278  20.889  54.756  1.00  0.00     0.105 A 
HETATM   14  O   UNL     1       8.271  21.907  56.787  1.00  0.00    -0.323 OA
HETATM   15  O   UNL     1       8.646  19.863  55.564  1.00  0.00    -0.323 OA
HETATM   16  C   UNL     1       8.135  20.826  53.387  1.00  0.00     0.040 A 
HETATM   17  C   UNL     1       8.670  20.518  56.850  1.00  0.00     0.352 A 
HETATM   18  C   UNL     1       7.765  21.997  52.719  1.00  0.00     0.018 A 
ENDBRANCH   8  10
ENDBRANCH   7   8
ENDBRANCH   4   7
BRANCH   3  19
HETATM   19  N   UNL     1       3.692  27.182  53.287  1.00  0.00    -0.234 N 
HETATM   20  H   UNL     1       3.269  26.328  52.963  1.00  0.00     0.174 HD
HETATM   21  H   UNL     1       3.309  28.050  52.911  1.00  0.00     0.174 HD
ENDBRANCH   3  19
BRANCH   6  22
HETATM   22  C   UNL     1       7.480  28.579  56.099  1.00  0.00    -0.007 A 
HETATM   23  C   UNL     1       8.748  29.055  55.731  1.00  0.00     0.017 A 
HETATM   24  C   UNL     1       9.544  29.723  56.667  1.00  0.00     0.043 A 
HETATM   25  C   UNL     1       9.082  29.899  57.965  1.00  0.00     0.116 A 
HETATM   26  F   UNL     1       9.849  30.536  58.859  1.00  0.00    -0.206 F 
HETATM   27  C   UNL     1       7.839  29.416  58.348  1.00  0.00     0.043 A 
HETATM   28  C   UNL     1       7.036  28.752  57.416  1.00  0.00     0.017 A 
ENDBRANCH   6  22
TORSDOF 5
ENDMDL
MODEL 3
REMARK VINA RESULT:      -9.4      4.242      9.338
REMARK  5 active torsions:
REMARK  status: ('A' for Active; 'I' for Inactive)
REMARK    1  A    between atoms: C_3  and  N_4 
REMARK    2  A    between atoms: N_5  and  C_6 
REMARK    3  A    between atoms: C_6  and  C_7 
REMARK    4  A    between atoms: C_7  and  C_8 
REMARK    5  A    between atoms: C_19  and  C_20 
ROOT
HETATM    1  C   UNL     1       4.828  24.832  53.248  1.00  0.00     0.175 C 
HETATM    2  N   UNL     1       5.825  25.376  54.157  1.00  0.00    -0.186 N 
HETATM    3  C   UNL     1       5.842  26.637  54.578  1.00  0.00     0.680 C 
HETATM    4  N   UNL     1       6.665  26.735  55.615  1.00  0.00    -0.184 N 
HETATM    5  C   UNL     1       7.325  25.522  55.755  1.00  0.00     0.140 C 
HETATM    6  C   UNL     1       6.858  24.658  54.785  1.00  0.00     0.077 C 
ENDROOT
BRANCH   4   7
HETATM    7  C   UNL     1       6.824  27.882  56.536  1.00  0.00     0.231 C 
BRANCH   7   8
HETATM    8  C   UNL     1       8.011  28.782  56.209  1.00  0.00     0.178 C 
HETATM    9  O   UNL     1       8.537  28.794  55.094  1.00  0.00    -0.290 OA
BRANCH   8  10
HETATM   10  C   UNL     1       8.509  29.723  57.248  1.00  0.00     0.014 A 
HETATM   11  C   UNL     1       7.687  30.177  58.286  1.00  0.00     0.055 A 
HETATM   12  C   UNL     1       8.230  31.080  59.179  1.00  0.00     0.106 A 
HETATM   13  C   UNL     1       9.526  31.524  59.074  1.00  0.00     0.105 A 
HETATM   14  O   UNL     1       7.576  31.636  60.233  1.00  0.00    -0.323 OA
HETATM   15  O   UNL     1       9.851  32.412  60.049  1.00  0.00    -0.323 OA
HETATM   16  C   UNL     1      10.360  31.096  58.064  1.00  0.00     0.040 A 
HETATM   17  C   UNL     1       8.603  32.504  60.766  1.00  0.00     0.352 A 
HETATM   18  C   UNL     1       9.840  30.188  57.136  1.00  0.00     0.018 A 
ENDBRANCH   8  10
ENDBRANCH   7   8
ENDBRANCH   4   7
BRANCH   3  19
HETATM   19  N   UNL     1       5.127  27.619  54.039  1.00  0.00    -0.234 N 
HETATM   20  H   UNL     1       4.631  28.292  54.600  1.00  0.00     0.174 HD
HETATM   21  H   UNL     1       4.808  27.507  53.076  1.00  0.00     0.174 HD
ENDBRANCH   3  19
BRANCH   6  22
HETATM   22  C   UNL     1       7.368  23.267  54.526  1.00  0.00    -0.007 A 
HETATM   23  C   UNL     1       7.478  22.349  55.583  1.00  0.00     0.017 A 
HETATM   24  C   UNL     1       7.956  21.057  55.343  1.00  0.00     0.043 A 
HETATM   25  C   UNL     1       8.337  20.691  54.059  1.00  0.00     0.116 A 
HETATM   26  F   UNL     1       8.798  19.455  53.833  1.00  0.00    -0.206 F 
HETATM   27  C   UNL     1       8.254  21.593  53.008  1.00  0.00     0.043 A 
HETATM   28  C   UNL     1       7.772  22.885  53.240  1.00  0.00     0.017 A 
ENDBRANCH   6  22
TORSDOF 5
ENDMDL
MODEL 4
REMARK VINA RESULT:      -9.1      2.371      3.485
REMARK  5 active torsions:
REMARK  status: ('A' for Active; 'I' for Inactive)
REMARK    1  A    between atoms: C_3  and  N_4 
REMARK    2  A    between atoms: N_5  and  C_6 
REMARK    3  A    between atoms: C_6  and  C_7 
REMARK    4  A    between atoms: C_7  and  C_8 
REMARK    5  A    between atoms: C_19  and  C_20 
ROOT
HETATM    1  C   UNL     1       5.326  30.499  55.364  1.00  0.00     0.175 C 
HETATM    2  N   UNL     1       5.748  29.150  55.708  1.00  0.00    -0.186 N 
HETATM    3  C   UNL     1       5.127  28.047  55.302  1.00  0.00     0.680 C 
HETATM    4  N   UNL     1       5.918  27.002  55.515  1.00  0.00    -0.184 N 
HETATM    5  C   UNL     1       7.018  27.439  56.239  1.00  0.00     0.140 C 
HETATM    6  C   UNL     1       6.897  28.799  56.440  1.00  0.00     0.077 C 
ENDROOT
BRANCH   4   7
HETATM    7  C   UNL     1       5.740  25.620  55.018  1.00  0.00     0.231 C 
BRANCH   7   8
HETATM    8  C   UNL     1       6.865  25.136  54.109  1.00  0.00     0.178 C 
HETATM    9  O   UNL     1       7.467  25.898  53.349  1.00  0.00    -0.290 OA
BRANCH   8  10
HETATM   10  C   UNL     1       7.295  23.714  54.189  1.00  0.00     0.014 A 
HETATM   11  C   UNL     1       7.467  23.065  55.418  1.00  0.00     0.055 A 
HETATM   12  C   UNL     1       7.906  21.756  55.388  1.00  0.00     0.106 A 
HETATM   13  C   UNL     1       8.166  21.096  54.210  1.00  0.00     0.105 A 
HETATM   14  O   UNL     1       8.142  20.980  56.479  1.00  0.00    -0.323 OA
HETATM   15  O   UNL     1       8.594  19.824  54.412  1.00  0.00    -0.323 OA
HETATM   16  C   UNL     1       8.006  21.708  52.987  1.00  0.00     0.040 A 
HETATM   17  C   UNL     1       8.607  19.761  55.854  1.00  0.00     0.352 A 
HETATM   18  C   UNL     1       7.571  23.037  52.979  1.00  0.00     0.018 A 
ENDBRANCH   8  10
ENDBRANCH   7   8
ENDBRANCH   4   7
BRANCH   3  19
HETATM   19  N   UNL     1       3.915  28.025  54.757  1.00  0.00    -0.234 N 
HETATM   20  H   UNL     1       3.343  28.851  54.687  1.00  0.00     0.174 HD
HETATM   21  H   UNL     1       3.428  27.130  54.707  1.00  0.00     0.174 HD
ENDBRANCH   3  19
BRANCH   6  22
HETATM   22  C   UNL     1       7.829  29.656  57.252  1.00  0.00    -0.007 A 
HETATM   23  C   UNL     1       7.320  30.492  58.258  1.00  0.00     0.017 A 
HETATM   24  C   UNL     1       8.187  31.292  59.009  1.00  0.00     0.043 A 
HETATM   25  C   UNL     1       9.550  31.268  58.745  1.00  0.00     0.116 A 
HETATM   26  F   UNL     1      10.377  32.038  59.463  1.00  0.00    -0.206 F 
HETATM   27  C   UNL     1      10.065  30.461  57.740  1.00  0.00     0.043 A 
HETATM   28  C   UNL     1       9.205  29.655  56.989  1.00  0.00     0.017 A 
ENDBRANCH   6  22
TORSDOF 5
ENDMDL
MODEL 5
REMARK VINA RESULT:      -9.1      4.249      9.166
REMARK  5 active torsions:
REMARK  status: ('A' for Active; 'I' for Inactive)
REMARK    1  A    between atoms: C_3  and  N_4 
REMARK    2  A    between atoms: N_5  and  C_6 
REMARK    3  A    between atoms: C_6  and  C_7 
REMARK    4  A    between atoms: C_7  and  C_8 
REMARK    5  A    between atoms: C_19  and  C_20 
ROOT
HETATM    1  C   UNL     1       4.964  24.870  52.836  1.00  0.00     0.175 C 
HETATM    2  N   UNL     1       6.001  25.538  53.608  1.00  0.00    -0.186 N 
HETATM    3  C   UNL     1       6.086  26.856  53.758  1.00  0.00     0.680 C 
HETATM    4  N   UNL     1       6.929  27.124  54.749  1.00  0.00    -0.184 N 
HETATM    5  C   UNL     1       7.530  25.934  55.134  1.00  0.00     0.140 C 
HETATM    6  C   UNL     1       7.006  24.913  54.367  1.00  0.00     0.077 C 
ENDROOT
BRANCH   4   7
HETATM    7  C   UNL     1       7.157  28.428  55.411  1.00  0.00     0.231 C 
BRANCH   7   8
HETATM    8  C   UNL     1       6.386  28.606  56.715  1.00  0.00     0.178 C 
HETATM    9  O   UNL     1       5.426  27.891  57.013  1.00  0.00    -0.290 OA
BRANCH   8  10
HETATM   10  C   UNL     1       6.844  29.632  57.689  1.00  0.00     0.014 A 
HETATM   11  C   UNL     1       7.948  29.416  58.523  1.00  0.00     0.055 A 
HETATM   12  C   UNL     1       8.271  30.413  59.421  1.00  0.00     0.106 A 
HETATM   13  C   UNL     1       7.555  31.584  59.506  1.00  0.00     0.105 A 
HETATM   14  O   UNL     1       9.295  30.368  60.314  1.00  0.00    -0.323 OA
HETATM   15  O   UNL     1       8.040  32.421  60.458  1.00  0.00    -0.323 OA
HETATM   16  C   UNL     1       6.466  31.826  58.698  1.00  0.00     0.040 A 
HETATM   17  C   UNL     1       9.126  31.635  60.991  1.00  0.00     0.352 A 
HETATM   18  C   UNL     1       6.104  30.833  57.783  1.00  0.00     0.018 A 
ENDBRANCH   8  10
ENDBRANCH   7   8
ENDBRANCH   4   7
BRANCH   3  19
HETATM   19  N   UNL     1       5.412  27.741  53.031  1.00  0.00    -0.234 N 
HETATM   20  H   UNL     1       5.479  28.732  53.194  1.00  0.00     0.174 HD
HETATM   21  H   UNL     1       4.584  27.418  52.530  1.00  0.00     0.174 HD
ENDBRANCH   3  19
BRANCH   6  22
HETATM   22  C   UNL     1       7.443  23.474  54.399  1.00  0.00    -0.007 A 
HETATM   23  C   UNL     1       7.460  22.771  55.615  1.00  0.00     0.017 A 
HETATM   24  C   UNL     1       7.870  21.435  55.646  1.00  0.00     0.043 A 
HETATM   25  C   UNL     1       8.276  20.811  54.473  1.00  0.00     0.116 A 
HETATM   26  F   UNL     1       8.671  19.533  54.507  1.00  0.00    -0.206 F 
HETATM   27  C   UNL     1       8.283  21.499  53.268  1.00  0.00     0.043 A 
HETATM   28  C   UNL     1       7.869  22.833  53.229  1.00  0.00     0.017 A 
ENDBRANCH   6  22
TORSDOF 5
ENDMDL
MODEL 6
REMARK VINA RESULT:      -9.1      4.161      9.233
REMARK  5 active torsions:
REMARK  status: ('A' for Active; 'I' for Inactive)
REMARK    1  A    between atoms: C_3  and  N_4 
REMARK    2  A    between atoms: N_5  and  C_6 
REMARK    3  A    between atoms: C_6  and  C_7 
REMARK    4  A    between atoms: C_7  and  C_8 
REMARK    5  A    between atoms: C_19  and  C_20 
ROOT
HETATM    1  C   UNL     1       4.990  25.282  57.060  1.00  0.00     0.175 C 
HETATM    2  N   UNL     1       5.838  26.269  56.409  1.00  0.00    -0.186 N 
HETATM    3  C   UNL     1       5.804  27.572  56.673  1.00  0.00     0.680 C 
HETATM    4  N   UNL     1       6.886  28.144  56.160  1.00  0.00    -0.184 N 
HETATM    5  C   UNL     1       7.552  27.196  55.396  1.00  0.00     0.140 C 
HETATM    6  C   UNL     1       6.859  26.005  55.479  1.00  0.00     0.077 C 
ENDROOT
BRANCH   4   7
HETATM    7  C   UNL     1       7.379  29.519  56.400  1.00  0.00     0.231 C 
BRANCH   7   8
HETATM    8  C   UNL     1       8.364  29.634  57.559  1.00  0.00     0.178 C 
HETATM    9  O   UNL     1       9.469  29.087  57.536  1.00  0.00    -0.290 OA
BRANCH   8  10
HETATM   10  C   UNL     1       8.007  30.484  58.726  1.00  0.00     0.014 A 
HETATM   11  C   UNL     1       8.722  30.423  59.928  1.00  0.00     0.055 A 
HETATM   12  C   UNL     1       8.290  31.223  60.966  1.00  0.00     0.106 A 
HETATM   13  C   UNL     1       7.204  32.058  60.845  1.00  0.00     0.105 A 
HETATM   14  O   UNL     1       8.850  31.280  62.203  1.00  0.00    -0.323 OA
HETATM   15  O   UNL     1       6.950  32.747  61.987  1.00  0.00    -0.323 OA
HETATM   16  C   UNL     1       6.481  32.141  59.675  1.00  0.00     0.040 A 
HETATM   17  C   UNL     1       7.977  32.230  62.858  1.00  0.00     0.352 A 
HETATM   18  C   UNL     1       6.886  31.338  58.606  1.00  0.00     0.018 A 
ENDBRANCH   8  10
ENDBRANCH   7   8
ENDBRANCH   4   7
BRANCH   3  19
HETATM   19  N   UNL     1       4.838  28.175  57.358  1.00  0.00    -0.234 N 
HETATM   20  H   UNL     1       3.869  27.918  57.259  1.00  0.00     0.174 HD
HETATM   21  H   UNL     1       5.024  29.106  57.732  1.00  0.00     0.174 HD
ENDBRANCH   3  19
BRANCH   6  22
HETATM   22  C   UNL     1       7.189  24.741  54.733  1.00  0.00    -0.007 A 
HETATM   23  C   UNL     1       7.516  23.573  55.439  1.00  0.00     0.017 A 
HETATM   24  C   UNL     1       7.827  22.399  54.745  1.00  0.00     0.043 A 
HETATM   25  C   UNL     1       7.826  22.398  53.357  1.00  0.00     0.116 A 
HETATM   26  F   UNL     1       8.127  21.274  52.696  1.00  0.00    -0.206 F 
HETATM   27  C   UNL     1       7.523  23.551  52.646  1.00  0.00     0.043 A 
HETATM   28  C   UNL     1       7.207  24.726  53.333  1.00  0.00     0.017 A 
ENDBRANCH   6  22
TORSDOF 5
ENDMDL
MODEL 7
REMARK VINA RESULT:      -8.9      7.029      9.240
REMARK  5 active torsions:
REMARK  status: ('A' for Active; 'I' for Inactive)
REMARK    1  A    between atoms: C_3  and  N_4 
REMARK    2  A    between atoms: N_5  and  C_6 
REMARK    3  A    between atoms: C_6  and  C_7 
REMARK    4  A    between atoms: C_7  and  C_8 
REMARK    5  A    between atoms: C_19  and  C_20 
ROOT
HETATM    1  C   UNL     1       3.786  29.192  51.652  1.00  0.00     0.175 C 
HETATM    2  N   UNL     1       4.710  28.090  51.428  1.00  0.00    -0.186 N 
HETATM    3  C   UNL     1       5.789  27.859  52.170  1.00  0.00     0.680 C 
HETATM    4  N   UNL     1       6.233  26.634  51.915  1.00  0.00    -0.184 N 
HETATM    5  C   UNL     1       5.506  26.128  50.847  1.00  0.00     0.140 C 
HETATM    6  C   UNL     1       4.573  27.071  50.468  1.00  0.00     0.077 C 
ENDROOT
BRANCH   4   7
HETATM    7  C   UNL     1       7.260  25.874  52.662  1.00  0.00     0.231 C 
BRANCH   7   8
HETATM    8  C   UNL     1       6.703  25.045  53.815  1.00  0.00     0.178 C 
HETATM    9  O   UNL     1       5.822  25.473  54.565  1.00  0.00    -0.290 OA
BRANCH   8  10
HETATM   10  C   UNL     1       7.192  23.653  54.003  1.00  0.00     0.014 A 
HETATM   11  C   UNL     1       7.335  23.088  55.276  1.00  0.00     0.055 A 
HETATM   12  C   UNL     1       7.833  21.803  55.349  1.00  0.00     0.106 A 
HETATM   13  C   UNL     1       8.177  21.085  54.227  1.00  0.00     0.105 A 
HETATM   14  O   UNL     1       8.052  21.106  56.495  1.00  0.00    -0.323 OA
HETATM   15  O   UNL     1       8.651  19.849  54.527  1.00  0.00    -0.323 OA
HETATM   16  C   UNL     1       8.047  21.613  52.962  1.00  0.00     0.040 A 
HETATM   17  C   UNL     1       8.599  19.875  55.969  1.00  0.00     0.352 A 
HETATM   18  C   UNL     1       7.554  22.917  52.852  1.00  0.00     0.018 A 
ENDBRANCH   8  10
ENDBRANCH   7   8
ENDBRANCH   4   7
BRANCH   3  19
HETATM   19  N   UNL     1       6.307  28.727  53.032  1.00  0.00    -0.234 N 
HETATM   20  H   UNL     1       6.124  29.715  52.975  1.00  0.00     0.174 HD
HETATM   21  H   UNL     1       7.143  28.449  53.548  1.00  0.00     0.174 HD
ENDBRANCH   3  19
BRANCH   6  22
HETATM   22  C   UNL     1       3.637  26.962  49.296  1.00  0.00    -0.007 A 
HETATM   23  C   UNL     1       2.629  27.922  49.109  1.00  0.00     0.017 A 
HETATM   24  C   UNL     1       1.756  27.818  48.021  1.00  0.00     0.043 A 
HETATM   25  C   UNL     1       1.879  26.754  47.138  1.00  0.00     0.116 A 
HETATM   26  F   UNL     1       1.039  26.656  46.100  1.00  0.00    -0.206 F 
HETATM   27  C   UNL     1       2.857  25.787  47.322  1.00  0.00     0.043 A 
HETATM   28  C   UNL     1       3.737  25.888  48.403  1.00  0.00     0.017 A 
ENDBRANCH   6  22
TORSDOF 5
ENDMDL
MODEL 8
REMARK VINA RESULT:      -8.8      5.955      9.143
REMARK  5 active torsions:
REMARK  status: ('A' for Active; 'I' for Inactive)
REMARK    1  A    between atoms: C_3  and  N_4 
REMARK    2  A    between atoms: N_5  and  C_6 
REMARK    3  A    between atoms: C_6  and  C_7 
REMARK    4  A    between atoms: C_7  and  C_8 
REMARK    5  A    between atoms: C_19  and  C_20 
ROOT
HETATM    1  C   UNL     1       7.733  25.794  56.398  1.00  0.00     0.175 C 
HETATM    2  N   UNL     1       6.702  25.706  55.375  1.00  0.00    -0.186 N 
HETATM    3  C   UNL     1       5.788  26.646  55.154  1.00  0.00     0.680 C 
HETATM    4  N   UNL     1       5.209  26.417  53.981  1.00  0.00    -0.184 N 
HETATM    5  C   UNL     1       5.655  25.188  53.516  1.00  0.00     0.140 C 
HETATM    6  C   UNL     1       6.557  24.677  54.427  1.00  0.00     0.077 C 
ENDROOT
BRANCH   4   7
HETATM    7  C   UNL     1       4.307  27.318  53.230  1.00  0.00     0.231 C 
BRANCH   7   8
HETATM    8  C   UNL     1       4.959  27.983  52.021  1.00  0.00     0.178 C 
HETATM    9  O   UNL     1       5.979  28.668  52.121  1.00  0.00    -0.290 OA
BRANCH   8  10
HETATM   10  C   UNL     1       4.384  27.745  50.671  1.00  0.00     0.014 A 
HETATM   11  C   UNL     1       3.415  28.594  50.123  1.00  0.00     0.055 A 
HETATM   12  C   UNL     1       2.913  28.267  48.879  1.00  0.00     0.106 A 
HETATM   13  C   UNL     1       3.339  27.159  48.185  1.00  0.00     0.105 A 
HETATM   14  O   UNL     1       1.961  28.965  48.205  1.00  0.00    -0.323 OA
HETATM   15  O   UNL     1       2.711  27.023  46.989  1.00  0.00    -0.323 OA
HETATM   16  C   UNL     1       4.291  26.306  48.697  1.00  0.00     0.040 A 
HETATM   17  C   UNL     1       1.815  28.154  47.016  1.00  0.00     0.352 A 
HETATM   18  C   UNL     1       4.814  26.601  49.959  1.00  0.00     0.018 A 
ENDBRANCH   8  10
ENDBRANCH   7   8
ENDBRANCH   4   7
BRANCH   3  19
HETATM   19  N   UNL     1       5.530  27.652  55.982  1.00  0.00    -0.234 N 
HETATM   20  H   UNL     1       6.203  28.376  56.174  1.00  0.00     0.174 HD
HETATM   21  H   UNL     1       4.789  27.527  56.673  1.00  0.00     0.174 HD
ENDBRANCH   3  19
BRANCH   6  22
HETATM   22  C   UNL     1       7.215  23.327  54.353  1.00  0.00    -0.007 A 
HETATM   23  C   UNL     1       7.624  22.811  53.113  1.00  0.00     0.017 A 
HETATM   24  C   UNL     1       8.233  21.554  53.043  1.00  0.00     0.043 A 
HETATM   25  C   UNL     1       8.415  20.811  54.202  1.00  0.00     0.116 A 
HETATM   26  F   UNL     1       8.994  19.607  54.132  1.00  0.00    -0.206 F 
HETATM   27  C   UNL     1       7.998  21.300  55.432  1.00  0.00     0.043 A 
HETATM   28  C   UNL     1       7.394  22.558  55.509  1.00  0.00     0.017 A 
ENDBRANCH   6  22
TORSDOF 5
ENDMDL
MODEL 9
REMARK VINA RESULT:      -8.5      1.603      2.314
REMARK  5 active torsions:
REMARK  status: ('A' for Active; 'I' for Inactive)
REMARK    1  A    between atoms: C_3  and  N_4 
REMARK    2  A    between atoms: N_5  and  C_6 
REMARK    3  A    between atoms: C_6  and  C_7 
REMARK    4  A    between atoms: C_7  and  C_8 
REMARK    5  A    between atoms: C_19  and  C_20 
ROOT
HETATM    1  C   UNL     1       5.545  32.490  57.796  1.00  0.00     0.175 C 
HETATM    2  N   UNL     1       6.289  31.239  57.779  1.00  0.00    -0.186 N 
HETATM    3  C   UNL     1       6.209  30.338  56.805  1.00  0.00     0.680 C 
HETATM    4  N   UNL     1       7.218  29.483  56.925  1.00  0.00    -0.184 N 
HETATM    5  C   UNL     1       7.869  29.754  58.120  1.00  0.00     0.140 C 
HETATM    6  C   UNL     1       7.246  30.828  58.723  1.00  0.00     0.077 C 
ENDROOT
BRANCH   4   7
HETATM    7  C   UNL     1       7.657  28.463  55.947  1.00  0.00     0.231 C 
BRANCH   7   8
HETATM    8  C   UNL     1       6.834  27.180  55.975  1.00  0.00     0.178 C 
HETATM    9  O   UNL     1       5.607  27.191  56.098  1.00  0.00    -0.290 OA
BRANCH   8  10
HETATM   10  C   UNL     1       7.524  25.877  55.784  1.00  0.00     0.014 A 
HETATM   11  C   UNL     1       7.504  25.205  54.555  1.00  0.00     0.055 A 
HETATM   12  C   UNL     1       8.141  23.983  54.488  1.00  0.00     0.106 A 
HETATM   13  C   UNL     1       8.782  23.429  55.572  1.00  0.00     0.105 A 
HETATM   14  O   UNL     1       8.208  23.188  53.387  1.00  0.00    -0.323 OA
HETATM   15  O   UNL     1       9.333  22.222  55.288  1.00  0.00    -0.323 OA
HETATM   16  C   UNL     1       8.820  24.066  56.793  1.00  0.00     0.040 A 
HETATM   17  C   UNL     1       8.943  22.056  53.909  1.00  0.00     0.352 A 
HETATM   18  C   UNL     1       8.176  25.302  56.899  1.00  0.00     0.018 A 
ENDBRANCH   8  10
ENDBRANCH   7   8
ENDBRANCH   4   7
BRANCH   3  19
HETATM   19  N   UNL     1       5.270  30.328  55.865  1.00  0.00    -0.234 N 
HETATM   20  H   UNL     1       4.288  30.343  56.087  1.00  0.00     0.174 HD
HETATM   21  H   UNL     1       5.520  29.976  54.940  1.00  0.00     0.174 HD
ENDBRANCH   3  19
BRANCH   6  22
HETATM   22  C   UNL     1       7.580  31.394  60.075  1.00  0.00    -0.007 A 
HETATM   23  C   UNL     1       8.892  31.314  60.568  1.00  0.00     0.017 A 
HETATM   24  C   UNL     1       9.202  31.837  61.827  1.00  0.00     0.043 A 
HETATM   25  C   UNL     1       8.203  32.421  62.596  1.00  0.00     0.116 A 
HETATM   26  F   UNL     1       8.501  32.916  63.802  1.00  0.00    -0.206 F 
HETATM   27  C   UNL     1       6.897  32.489  62.131  1.00  0.00     0.043 A 
HETATM   28  C   UNL     1       6.582  31.973  60.870  1.00  0.00     0.017 A 
ENDBRANCH   6  22
TORSDOF 5
ENDMDL
MODEL 10
REMARK VINA RESULT:      -8.4      4.646      9.265
REMARK  5 active torsions:
REMARK  status: ('A' for Active; 'I' for Inactive)
REMARK    1  A    between atoms: C_3  and  N_4 
REMARK    2  A    between atoms: N_5  and  C_6 
REMARK    3  A    between atoms: C_6  and  C_7 
REMARK    4  A    between atoms: C_7  and  C_8 
REMARK    5  A    between atoms: C_19  and  C_20 
ROOT
HETATM    1  C   UNL     1       5.307  25.862  52.673  1.00  0.00     0.175 C 
HETATM    2  N   UNL     1       6.351  26.323  53.577  1.00  0.00    -0.186 N 
HETATM    3  C   UNL     1       6.588  27.602  53.850  1.00  0.00     0.680 C 
HETATM    4  N   UNL     1       7.371  27.676  54.921  1.00  0.00    -0.184 N 
HETATM    5  C   UNL     1       7.783  26.390  55.239  1.00  0.00     0.140 C 
HETATM    6  C   UNL     1       7.203  25.512  54.347  1.00  0.00     0.077 C 
ENDROOT
BRANCH   4   7
HETATM    7  C   UNL     1       7.704  28.881  55.713  1.00  0.00     0.231 C 
BRANCH   7   8
HETATM    8  C   UNL     1       7.006  28.947  57.067  1.00  0.00     0.178 C 
HETATM    9  O   UNL     1       7.311  28.199  57.999  1.00  0.00    -0.290 OA
BRANCH   8  10
HETATM   10  C   UNL     1       5.969  29.988  57.293  1.00  0.00     0.014 A 
HETATM   11  C   UNL     1       6.304  31.284  57.705  1.00  0.00     0.055 A 
HETATM   12  C   UNL     1       5.267  32.168  57.926  1.00  0.00     0.106 A 
HETATM   13  C   UNL     1       3.950  31.813  57.750  1.00  0.00     0.105 A 
HETATM   14  O   UNL     1       5.404  33.455  58.343  1.00  0.00    -0.323 OA
HETATM   15  O   UNL     1       3.097  32.831  58.030  1.00  0.00    -0.323 OA
HETATM   16  C   UNL     1       3.590  30.547  57.345  1.00  0.00     0.040 A 
HETATM   17  C   UNL     1       4.020  33.864  58.435  1.00  0.00     0.352 A 
HETATM   18  C   UNL     1       4.614  29.623  57.121  1.00  0.00     0.018 A 
ENDBRANCH   8  10
ENDBRANCH   7   8
ENDBRANCH   4   7
BRANCH   3  19
HETATM   19  N   UNL     1       6.094  28.623  53.159  1.00  0.00    -0.234 N 
HETATM   20  H   UNL     1       5.735  29.451  53.606  1.00  0.00     0.174 HD
HETATM   21  H   UNL     1       5.774  28.447  52.206  1.00  0.00     0.174 HD
ENDBRANCH   3  19
BRANCH   6  22
HETATM   22  C   UNL     1       7.451  24.030  54.282  1.00  0.00    -0.007 A 
HETATM   23  C   UNL     1       7.757  23.421  53.054  1.00  0.00     0.017 A 
HETATM   24  C   UNL     1       7.984  22.042  52.993  1.00  0.00     0.043 A 
HETATM   25  C   UNL     1       7.889  21.276  54.148  1.00  0.00     0.116 A 
HETATM   26  F   UNL     1       8.103  19.956  54.085  1.00  0.00    -0.206 F 
HETATM   27  C   UNL     1       7.567  21.862  55.364  1.00  0.00     0.043 A 
HETATM   28  C   UNL     1       7.345  23.240  55.433  1.00  0.00     0.017 A 
ENDBRANCH   6  22
TORSDOF 5
ENDMDL
