MODEL 1
REMARK VINA RESULT:      -9.8      0.000      0.000
REMARK  10 active torsions:
REMARK  status: ('A' for Active; 'I' for Inactive)
REMARK    1  A    between atoms: C_3  and  N_4 
REMARK       I    between atoms: N_4  and  C_5 
REMARK    2  A    between atoms: C_5  and  C_6 
REMARK    3  A    between atoms: C_13  and  C_14 
REMARK    4  A    between atoms: C_14  and  O_15 
REMARK    5  A    between atoms: O_15  and  C_16 
REMARK    6  A    between atoms: C_16  and  C_17 
REMARK       I    between atoms: C_17  and  N_18 
REMARK    7  A    between atoms: N_18  and  C_19 
REMARK    8  A    between atoms: C_19  and  C_20 
REMARK    9  A    between atoms: C_20  and  C_21 
REMARK   10  A    between atoms: C_24  and  O_25 
ROOT
HETATM    1  C   UNL     1       7.328  28.864  57.486  1.00  0.00     0.293 C 
HETATM    2  O   UNL     1       6.361  29.557  57.771  1.00  0.00    -0.259 OA
ENDROOT
BRANCH   1   3
HETATM    3  C   UNL     1       7.396  27.995  56.288  1.00  0.00     0.041 A 
HETATM    4  C   UNL     1       7.499  26.602  56.393  1.00  0.00     0.047 A 
HETATM    5  C   UNL     1       7.580  25.796  55.250  1.00  0.00     0.042 A 
HETATM    6  C   UNL     1       7.553  26.409  53.977  1.00  0.00    -0.035 A 
HETATM    7  C   UNL     1       7.668  25.640  52.686  1.00  0.00     0.050 C 
HETATM    8  C   UNL     1       7.448  27.809  53.885  1.00  0.00     0.010 A 
HETATM    9  C   UNL     1       7.357  28.598  55.030  1.00  0.00     0.018 A 
BRANCH   5  10
HETATM   10  N   UNL     1       7.706  24.392  55.339  1.00  0.00    -0.321 N 
HETATM   11  C   UNL     1       8.657  23.657  56.029  1.00  0.00     0.279 C 
HETATM   12  O   UNL     1       9.544  24.127  56.732  1.00  0.00    -0.265 OA
HETATM   13  H   UNL     1       6.998  23.823  54.889  1.00  0.00     0.169 HD
BRANCH  11  14
HETATM   14  C   UNL     1       8.485  22.224  55.870  1.00  0.00     0.142 A 
HETATM   15  O   UNL     1       8.515  21.673  54.614  1.00  0.00    -0.317 OA
HETATM   16  C   UNL     1       8.342  20.334  54.764  1.00  0.00     0.143 A 
HETATM   17  C   UNL     1       8.190  20.010  56.090  1.00  0.00     0.027 A 
HETATM   18  C   UNL     1       8.281  21.226  56.804  1.00  0.00     0.045 A 
ENDBRANCH  11  14
ENDBRANCH   5  10
ENDBRANCH   1   3
BRANCH   1  19
HETATM   19  O   UNL     1       8.491  28.809  58.174  1.00  0.00    -0.308 OA
BRANCH  19  20
HETATM   20  C   UNL     1       9.522  29.690  57.725  1.00  0.00     0.281 C 
BRANCH  20  21
HETATM   21  C   UNL     1       9.627  30.989  58.526  1.00  0.00     0.241 C 
HETATM   22  N   UNL     1       8.990  30.958  59.748  1.00  0.00    -0.359 N 
HETATM   23  H   UNL     1       8.691  30.047  60.097  1.00  0.00     0.162 HD
HETATM   24  O   UNL     1      10.208  31.982  58.095  1.00  0.00    -0.271 OA
BRANCH  22  25
HETATM   25  C   UNL     1       9.078  32.076  60.666  1.00  0.00     0.127 C 
BRANCH  25  26
HETATM   26  C   UNL     1       9.022  31.620  62.123  1.00  0.00     0.058 C 
BRANCH  26  27
HETATM   27  C   UNL     1       7.784  32.118  62.824  1.00  0.00    -0.057 A 
HETATM   28  C   UNL     1       7.894  32.905  63.976  1.00  0.00     0.010 A 
HETATM   29  C   UNL     1       6.747  33.355  64.633  1.00  0.00     0.037 A 
HETATM   30  C   UNL     1       5.476  33.026  64.157  1.00  0.00     0.068 A 
HETATM   31  C   UNL     1       5.361  32.233  63.016  1.00  0.00     0.037 A 
HETATM   32  C   UNL     1       6.510  31.780  62.355  1.00  0.00     0.010 A 
BRANCH  30  33
HETATM   33  O   UNL     1       4.442  33.536  64.893  1.00  0.00    -0.356 OA
HETATM   34  C   UNL     1       3.404  34.191  64.175  1.00  0.00     0.210 C 
ENDBRANCH  30  33
ENDBRANCH  26  27
ENDBRANCH  25  26
ENDBRANCH  22  25
ENDBRANCH  20  21
ENDBRANCH  19  20
ENDBRANCH   1  19
TORSDOF 10
ENDMDL
MODEL 2
REMARK VINA RESULT:      -9.7      2.266     10.182
REMARK  10 active torsions:
REMARK  status: ('A' for Active; 'I' for Inactive)
REMARK    1  A    between atoms: C_3  and  N_4 
REMARK       I    between atoms: N_4  and  C_5 
REMARK    2  A    between atoms: C_5  and  C_6 
REMARK    3  A    between atoms: C_13  and  C_14 
REMARK    4  A    between atoms: C_14  and  O_15 
REMARK    5  A    between atoms: O_15  and  C_16 
REMARK    6  A    between atoms: C_16  and  C_17 
REMARK       I    between atoms: C_17  and  N_18 
REMARK    7  A    between atoms: N_18  and  C_19 
REMARK    8  A    between atoms: C_19  and  C_20 
REMARK    9  A    between atoms: C_20  and  C_21 
REMARK   10  A    between atoms: C_24  and  O_25 
ROOT
HETATM    1  C   UNL     1       5.404  27.722  55.739  1.00  0.00     0.293 C 
HETATM    2  O   UNL     1       5.112  26.554  55.955  1.00  0.00    -0.259 OA
ENDROOT
BRANCH   1   3
HETATM    3  C   UNL     1       6.615  28.382  56.279  1.00  0.00     0.041 A 
HETATM    4  C   UNL     1       6.613  29.018  57.527  1.00  0.00     0.047 A 
HETATM    5  C   UNL     1       7.762  29.653  58.016  1.00  0.00     0.042 A 
HETATM    6  C   UNL     1       8.936  29.644  57.229  1.00  0.00    -0.035 A 
HETATM    7  C   UNL     1      10.215  30.325  57.643  1.00  0.00     0.050 C 
HETATM    8  C   UNL     1       8.925  29.001  55.978  1.00  0.00     0.010 A 
HETATM    9  C   UNL     1       7.779  28.363  55.509  1.00  0.00     0.018 A 
BRANCH   5  10
HETATM   10  N   UNL     1       7.771  30.317  59.263  1.00  0.00    -0.321 N 
HETATM   11  C   UNL     1       7.347  31.604  59.553  1.00  0.00     0.279 C 
HETATM   12  O   UNL     1       6.838  32.381  58.753  1.00  0.00    -0.265 OA
HETATM   13  H   UNL     1       8.078  29.795  60.075  1.00  0.00     0.169 HD
BRANCH  11  14
HETATM   14  C   UNL     1       7.531  31.955  60.950  1.00  0.00     0.142 A 
HETATM   15  O   UNL     1       6.819  32.998  61.486  1.00  0.00    -0.317 OA
HETATM   16  C   UNL     1       7.177  33.094  62.793  1.00  0.00     0.143 A 
HETATM   17  C   UNL     1       8.115  32.140  63.109  1.00  0.00     0.027 A 
HETATM   18  C   UNL     1       8.344  31.407  61.923  1.00  0.00     0.045 A 
ENDBRANCH  11  14
ENDBRANCH   5  10
ENDBRANCH   1   3
BRANCH   1  19
HETATM   19  O   UNL     1       4.712  28.577  54.951  1.00  0.00    -0.308 OA
BRANCH  19  20
HETATM   20  C   UNL     1       4.179  28.020  53.748  1.00  0.00     0.281 C 
BRANCH  20  21
HETATM   21  C   UNL     1       5.241  27.559  52.748  1.00  0.00     0.241 C 
HETATM   22  N   UNL     1       5.387  26.191  52.663  1.00  0.00    -0.359 N 
HETATM   23  H   UNL     1       4.665  25.615  53.097  1.00  0.00     0.162 HD
HETATM   24  O   UNL     1       5.922  28.350  52.101  1.00  0.00    -0.271 OA
BRANCH  22  25
HETATM   25  C   UNL     1       6.283  25.594  51.694  1.00  0.00     0.127 C 
BRANCH  25  26
HETATM   26  C   UNL     1       7.694  25.424  52.255  1.00  0.00     0.058 C 
BRANCH  26  27
HETATM   27  C   UNL     1       7.758  24.346  53.308  1.00  0.00    -0.057 A 
HETATM   28  C   UNL     1       7.859  24.687  54.661  1.00  0.00     0.010 A 
HETATM   29  C   UNL     1       7.932  23.689  55.635  1.00  0.00     0.037 A 
HETATM   30  C   UNL     1       7.910  22.340  55.277  1.00  0.00     0.068 A 
HETATM   31  C   UNL     1       7.821  21.995  53.929  1.00  0.00     0.037 A 
HETATM   32  C   UNL     1       7.747  22.993  52.949  1.00  0.00     0.010 A 
BRANCH  30  33
HETATM   33  O   UNL     1       7.984  21.469  56.329  1.00  0.00    -0.356 OA
HETATM   34  C   UNL     1       8.220  20.102  56.016  1.00  0.00     0.210 C 
ENDBRANCH  30  33
ENDBRANCH  26  27
ENDBRANCH  25  26
ENDBRANCH  22  25
ENDBRANCH  20  21
ENDBRANCH  19  20
ENDBRANCH   1  19
TORSDOF 10
ENDMDL
MODEL 3
REMARK VINA RESULT:      -9.6      1.864     11.433
REMARK  10 active torsions:
REMARK  status: ('A' for Active; 'I' for Inactive)
REMARK    1  A    between atoms: C_3  and  N_4 
REMARK       I    between atoms: N_4  and  C_5 
REMARK    2  A    between atoms: C_5  and  C_6 
REMARK    3  A    between atoms: C_13  and  C_14 
REMARK    4  A    between atoms: C_14  and  O_15 
REMARK    5  A    between atoms: O_15  and  C_16 
REMARK    6  A    between atoms: C_16  and  C_17 
REMARK       I    between atoms: C_17  and  N_18 
REMARK    7  A    between atoms: N_18  and  C_19 
REMARK    8  A    between atoms: C_19  and  C_20 
REMARK    9  A    between atoms: C_20  and  C_21 
REMARK   10  A    between atoms: C_24  and  O_25 
ROOT
HETATM    1  C   UNL     1       9.113  30.679  58.867  1.00  0.00     0.293 C 
HETATM    2  O   UNL     1       9.849  31.243  58.069  1.00  0.00    -0.259 OA
ENDROOT
BRANCH   1   3
HETATM    3  C   UNL     1       8.677  31.278  60.151  1.00  0.00     0.041 A 
HETATM    4  C   UNL     1       7.395  31.817  60.313  1.00  0.00     0.047 A 
HETATM    5  C   UNL     1       7.003  32.396  61.528  1.00  0.00     0.042 A 
HETATM    6  C   UNL     1       7.924  32.427  62.599  1.00  0.00    -0.035 A 
HETATM    7  C   UNL     1       7.620  33.055  63.935  1.00  0.00     0.050 C 
HETATM    8  C   UNL     1       9.209  31.881  62.423  1.00  0.00     0.010 A 
HETATM    9  C   UNL     1       9.581  31.298  61.213  1.00  0.00     0.018 A 
BRANCH   5  10
HETATM   10  N   UNL     1       5.722  32.963  61.702  1.00  0.00    -0.321 N 
HETATM   11  C   UNL     1       4.632  32.433  62.374  1.00  0.00     0.279 C 
HETATM   12  O   UNL     1       4.622  31.369  62.983  1.00  0.00    -0.265 OA
HETATM   13  H   UNL     1       5.563  33.896  61.340  1.00  0.00     0.169 HD
BRANCH  11  14
HETATM   14  C   UNL     1       3.465  33.296  62.323  1.00  0.00     0.142 A 
HETATM   15  O   UNL     1       2.617  33.353  63.401  1.00  0.00    -0.317 OA
HETATM   16  C   UNL     1       1.634  34.235  63.086  1.00  0.00     0.143 A 
HETATM   17  C   UNL     1       1.822  34.740  61.822  1.00  0.00     0.027 A 
HETATM   18  C   UNL     1       3.001  34.136  61.329  1.00  0.00     0.045 A 
ENDBRANCH  11  14
ENDBRANCH   5  10
ENDBRANCH   1   3
BRANCH   1  19
HETATM   19  O   UNL     1       8.548  29.462  58.699  1.00  0.00    -0.308 OA
BRANCH  19  20
HETATM   20  C   UNL     1       8.863  28.794  57.476  1.00  0.00     0.281 C 
BRANCH  20  21
HETATM   21  C   UNL     1       7.965  27.594  57.170  1.00  0.00     0.241 C 
HETATM   22  N   UNL     1       7.419  27.600  55.903  1.00  0.00    -0.359 N 
HETATM   23  H   UNL     1       7.805  28.263  55.230  1.00  0.00     0.162 HD
HETATM   24  O   UNL     1       7.730  26.719  57.999  1.00  0.00    -0.271 OA
BRANCH  22  25
HETATM   25  C   UNL     1       6.623  26.487  55.427  1.00  0.00     0.127 C 
BRANCH  25  26
HETATM   26  C   UNL     1       7.113  25.977  54.073  1.00  0.00     0.058 C 
BRANCH  26  27
HETATM   27  C   UNL     1       7.352  24.488  54.083  1.00  0.00    -0.057 A 
HETATM   28  C   UNL     1       7.293  23.772  55.283  1.00  0.00     0.010 A 
HETATM   29  C   UNL     1       7.528  22.395  55.293  1.00  0.00     0.037 A 
HETATM   30  C   UNL     1       7.828  21.713  54.113  1.00  0.00     0.068 A 
HETATM   31  C   UNL     1       7.899  22.424  52.916  1.00  0.00     0.037 A 
HETATM   32  C   UNL     1       7.663  23.805  52.901  1.00  0.00     0.010 A 
BRANCH  30  33
HETATM   33  O   UNL     1       8.031  20.369  54.266  1.00  0.00    -0.356 OA
HETATM   34  C   UNL     1       8.962  19.970  55.264  1.00  0.00     0.210 C 
ENDBRANCH  30  33
ENDBRANCH  26  27
ENDBRANCH  25  26
ENDBRANCH  22  25
ENDBRANCH  20  21
ENDBRANCH  19  20
ENDBRANCH   1  19
TORSDOF 10
ENDMDL
MODEL 4
REMARK VINA RESULT:      -9.4      1.655      2.172
REMARK  10 active torsions:
REMARK  status: ('A' for Active; 'I' for Inactive)
REMARK    1  A    between atoms: C_3  and  N_4 
REMARK       I    between atoms: N_4  and  C_5 
REMARK    2  A    between atoms: C_5  and  C_6 
REMARK    3  A    between atoms: C_13  and  C_14 
REMARK    4  A    between atoms: C_14  and  O_15 
REMARK    5  A    between atoms: O_15  and  C_16 
REMARK    6  A    between atoms: C_16  and  C_17 
REMARK       I    between atoms: C_17  and  N_18 
REMARK    7  A    between atoms: N_18  and  C_19 
REMARK    8  A    between atoms: C_19  and  C_20 
REMARK    9  A    between atoms: C_20  and  C_21 
REMARK   10  A    between atoms: C_24  and  O_25 
ROOT
HETATM    1  C   UNL     1       9.528  29.556  56.828  1.00  0.00     0.293 C 
HETATM    2  O   UNL     1      10.035  29.961  55.790  1.00  0.00    -0.259 OA
ENDROOT
BRANCH   1   3
HETATM    3  C   UNL     1       8.383  28.617  56.874  1.00  0.00     0.041 A 
HETATM    4  C   UNL     1       8.536  27.255  56.584  1.00  0.00     0.047 A 
HETATM    5  C   UNL     1       7.439  26.383  56.615  1.00  0.00     0.042 A 
HETATM    6  C   UNL     1       6.165  26.897  56.947  1.00  0.00    -0.035 A 
HETATM    7  C   UNL     1       4.915  26.056  56.975  1.00  0.00     0.050 C 
HETATM    8  C   UNL     1       6.026  28.267  57.236  1.00  0.00     0.010 A 
HETATM    9  C   UNL     1       7.127  29.120  57.214  1.00  0.00     0.018 A 
BRANCH   5  10
HETATM   10  N   UNL     1       7.572  25.012  56.305  1.00  0.00    -0.321 N 
HETATM   11  C   UNL     1       8.283  24.041  56.992  1.00  0.00     0.279 C 
HETATM   12  O   UNL     1       8.894  24.217  58.040  1.00  0.00    -0.265 OA
HETATM   13  H   UNL     1       7.055  24.653  55.510  1.00  0.00     0.169 HD
BRANCH  11  14
HETATM   14  C   UNL     1       8.210  22.736  56.359  1.00  0.00     0.142 A 
HETATM   15  O   UNL     1       8.553  21.616  57.074  1.00  0.00    -0.317 OA
HETATM   16  C   UNL     1       8.382  20.551  56.249  1.00  0.00     0.143 A 
HETATM   17  C   UNL     1       7.945  20.960  55.012  1.00  0.00     0.027 A 
HETATM   18  C   UNL     1       7.834  22.368  55.081  1.00  0.00     0.045 A 
ENDBRANCH  11  14
ENDBRANCH   5  10
ENDBRANCH   1   3
BRANCH   1  19
HETATM   19  O   UNL     1       9.947  29.851  58.080  1.00  0.00    -0.308 OA
BRANCH  19  20
HETATM   20  C   UNL     1       9.906  31.232  58.440  1.00  0.00     0.281 C 
BRANCH  20  21
HETATM   21  C   UNL     1       8.699  31.619  59.298  1.00  0.00     0.241 C 
HETATM   22  N   UNL     1       8.743  31.140  60.591  1.00  0.00    -0.359 N 
HETATM   23  H   UNL     1       9.631  30.761  60.920  1.00  0.00     0.162 HD
HETATM   24  O   UNL     1       7.761  32.276  58.856  1.00  0.00    -0.271 OA
BRANCH  22  25
HETATM   25  C   UNL     1       7.723  31.498  61.556  1.00  0.00     0.127 C 
BRANCH  25  26
HETATM   26  C   UNL     1       8.313  32.232  62.759  1.00  0.00     0.058 C 
BRANCH  26  27
HETATM   27  C   UNL     1       7.241  32.766  63.676  1.00  0.00    -0.057 A 
HETATM   28  C   UNL     1       7.590  33.420  64.862  1.00  0.00     0.010 A 
HETATM   29  C   UNL     1       6.597  33.903  65.718  1.00  0.00     0.037 A 
HETATM   30  C   UNL     1       5.245  33.738  65.408  1.00  0.00     0.068 A 
HETATM   31  C   UNL     1       4.893  33.077  64.232  1.00  0.00     0.037 A 
HETATM   32  C   UNL     1       5.886  32.592  63.372  1.00  0.00     0.010 A 
BRANCH  30  33
HETATM   33  O   UNL     1       4.381  34.261  66.330  1.00  0.00    -0.356 OA
HETATM   34  C   UNL     1       4.943  35.088  67.341  1.00  0.00     0.210 C 
ENDBRANCH  30  33
ENDBRANCH  26  27
ENDBRANCH  25  26
ENDBRANCH  22  25
ENDBRANCH  20  21
ENDBRANCH  19  20
ENDBRANCH   1  19
TORSDOF 10
ENDMDL
MODEL 5
REMARK VINA RESULT:      -9.3      2.107     11.151
REMARK  10 active torsions:
REMARK  status: ('A' for Active; 'I' for Inactive)
REMARK    1  A    between atoms: C_3  and  N_4 
REMARK       I    between atoms: N_4  and  C_5 
REMARK    2  A    between atoms: C_5  and  C_6 
REMARK    3  A    between atoms: C_13  and  C_14 
REMARK    4  A    between atoms: C_14  and  O_15 
REMARK    5  A    between atoms: O_15  and  C_16 
REMARK    6  A    between atoms: C_16  and  C_17 
REMARK       I    between atoms: C_17  and  N_18 
REMARK    7  A    between atoms: N_18  and  C_19 
REMARK    8  A    between atoms: C_19  and  C_20 
REMARK    9  A    between atoms: C_20  and  C_21 
REMARK   10  A    between atoms: C_24  and  O_25 
ROOT
HETATM    1  C   UNL     1       5.668  31.876  57.696  1.00  0.00     0.293 C 
HETATM    2  O   UNL     1       5.442  32.997  57.261  1.00  0.00    -0.259 OA
ENDROOT
BRANCH   1   3
HETATM    3  C   UNL     1       6.497  31.609  58.895  1.00  0.00     0.041 A 
HETATM    4  C   UNL     1       6.186  32.162  60.144  1.00  0.00     0.047 A 
HETATM    5  C   UNL     1       6.990  31.914  61.264  1.00  0.00     0.042 A 
HETATM    6  C   UNL     1       8.129  31.090  61.120  1.00  0.00    -0.035 A 
HETATM    7  C   UNL     1       9.079  30.787  62.249  1.00  0.00     0.050 C 
HETATM    8  C   UNL     1       8.430  30.540  59.860  1.00  0.00     0.010 A 
HETATM    9  C   UNL     1       7.615  30.785  58.757  1.00  0.00     0.018 A 
BRANCH   5  10
HETATM   10  N   UNL     1       6.702  32.481  62.525  1.00  0.00    -0.321 N 
HETATM   11  C   UNL     1       5.668  32.167  63.392  1.00  0.00     0.279 C 
HETATM   12  O   UNL     1       4.835  31.285  63.213  1.00  0.00    -0.265 OA
HETATM   13  H   UNL     1       7.343  33.176  62.890  1.00  0.00     0.169 HD
BRANCH  11  14
HETATM   14  C   UNL     1       5.674  32.980  64.595  1.00  0.00     0.142 A 
HETATM   15  O   UNL     1       4.500  33.207  65.266  1.00  0.00    -0.317 OA
HETATM   16  C   UNL     1       4.800  33.978  66.343  1.00  0.00     0.143 A 
HETATM   17  C   UNL     1       6.144  34.264  66.375  1.00  0.00     0.027 A 
HETATM   18  C   UNL     1       6.708  33.622  65.249  1.00  0.00     0.045 A 
ENDBRANCH  11  14
ENDBRANCH   5  10
ENDBRANCH   1   3
BRANCH   1  19
HETATM   19  O   UNL     1       5.173  30.720  57.199  1.00  0.00    -0.308 OA
BRANCH  19  20
HETATM   20  C   UNL     1       5.613  30.368  55.886  1.00  0.00     0.281 C 
BRANCH  20  21
HETATM   21  C   UNL     1       6.257  28.983  55.793  1.00  0.00     0.241 C 
HETATM   22  N   UNL     1       7.053  28.799  54.682  1.00  0.00    -0.359 N 
HETATM   23  H   UNL     1       7.307  29.629  54.145  1.00  0.00     0.162 HD
HETATM   24  O   UNL     1       6.051  28.105  56.627  1.00  0.00    -0.271 OA
BRANCH  22  25
HETATM   25  C   UNL     1       7.808  27.576  54.498  1.00  0.00     0.127 C 
BRANCH  25  26
HETATM   26  C   UNL     1       7.240  26.723  53.365  1.00  0.00     0.058 C 
BRANCH  26  27
HETATM   27  C   UNL     1       7.380  25.247  53.644  1.00  0.00    -0.057 A 
HETATM   28  C   UNL     1       7.382  24.775  54.960  1.00  0.00     0.010 A 
HETATM   29  C   UNL     1       7.525  23.410  55.218  1.00  0.00     0.037 A 
HETATM   30  C   UNL     1       7.673  22.497  54.172  1.00  0.00     0.068 A 
HETATM   31  C   UNL     1       7.683  22.965  52.858  1.00  0.00     0.037 A 
HETATM   32  C   UNL     1       7.539  24.333  52.596  1.00  0.00     0.010 A 
BRANCH  30  33
HETATM   33  O   UNL     1       7.800  21.194  54.566  1.00  0.00    -0.356 OA
HETATM   34  C   UNL     1       7.860  20.948  55.966  1.00  0.00     0.210 C 
ENDBRANCH  30  33
ENDBRANCH  26  27
ENDBRANCH  25  26
ENDBRANCH  22  25
ENDBRANCH  20  21
ENDBRANCH  19  20
ENDBRANCH   1  19
TORSDOF 10
ENDMDL
MODEL 6
REMARK VINA RESULT:      -9.3      2.026     10.561
REMARK  10 active torsions:
REMARK  status: ('A' for Active; 'I' for Inactive)
REMARK    1  A    between atoms: C_3  and  N_4 
REMARK       I    between atoms: N_4  and  C_5 
REMARK    2  A    between atoms: C_5  and  C_6 
REMARK    3  A    between atoms: C_13  and  C_14 
REMARK    4  A    between atoms: C_14  and  O_15 
REMARK    5  A    between atoms: O_15  and  C_16 
REMARK    6  A    between atoms: C_16  and  C_17 
REMARK       I    between atoms: C_17  and  N_18 
REMARK    7  A    between atoms: N_18  and  C_19 
REMARK    8  A    between atoms: C_19  and  C_20 
REMARK    9  A    between atoms: C_20  and  C_21 
REMARK   10  A    between atoms: C_24  and  O_25 
ROOT
HETATM    1  C   UNL     1       7.149  27.399  56.647  1.00  0.00     0.293 C 
HETATM    2  O   UNL     1       7.538  26.243  56.545  1.00  0.00    -0.259 OA
ENDROOT
BRANCH   1   3
HETATM    3  C   UNL     1       7.978  28.502  57.188  1.00  0.00     0.041 A 
HETATM    4  C   UNL     1       7.584  29.233  58.315  1.00  0.00     0.047 A 
HETATM    5  C   UNL     1       8.370  30.286  58.804  1.00  0.00     0.042 A 
HETATM    6  C   UNL     1       9.578  30.602  58.143  1.00  0.00    -0.035 A 
HETATM    7  C   UNL     1      10.480  31.734  58.563  1.00  0.00     0.050 C 
HETATM    8  C   UNL     1       9.962  29.858  57.012  1.00  0.00     0.010 A 
HETATM    9  C   UNL     1       9.177  28.807  56.544  1.00  0.00     0.018 A 
BRANCH   5  10
HETATM   10  N   UNL     1       7.976  31.047  59.927  1.00  0.00    -0.321 N 
HETATM   11  C   UNL     1       8.391  30.914  61.243  1.00  0.00     0.279 C 
HETATM   12  O   UNL     1       9.228  30.114  61.646  1.00  0.00    -0.265 OA
HETATM   13  H   UNL     1       7.347  31.826  59.774  1.00  0.00     0.169 HD
BRANCH  11  14
HETATM   14  C   UNL     1       7.750  31.865  62.134  1.00  0.00     0.142 A 
HETATM   15  O   UNL     1       6.592  32.487  61.741  1.00  0.00    -0.317 OA
HETATM   16  C   UNL     1       6.214  33.302  62.760  1.00  0.00     0.143 A 
HETATM   17  C   UNL     1       7.111  33.228  63.798  1.00  0.00     0.027 A 
HETATM   18  C   UNL     1       8.102  32.303  63.396  1.00  0.00     0.045 A 
ENDBRANCH  11  14
ENDBRANCH   5  10
ENDBRANCH   1   3
BRANCH   1  19
HETATM   19  O   UNL     1       5.944  27.866  56.249  1.00  0.00    -0.308 OA
BRANCH  19  20
HETATM   20  C   UNL     1       5.891  28.401  54.925  1.00  0.00     0.281 C 
BRANCH  20  21
HETATM   21  C   UNL     1       5.568  27.367  53.845  1.00  0.00     0.241 C 
HETATM   22  N   UNL     1       6.667  26.693  53.355  1.00  0.00    -0.359 N 
HETATM   23  H   UNL     1       7.541  26.783  53.874  1.00  0.00     0.162 HD
HETATM   24  O   UNL     1       4.426  27.180  53.434  1.00  0.00    -0.271 OA
BRANCH  22  25
HETATM   25  C   UNL     1       6.517  25.616  52.397  1.00  0.00     0.127 C 
BRANCH  25  26
HETATM   26  C   UNL     1       7.807  24.813  52.240  1.00  0.00     0.058 C 
BRANCH  26  27
HETATM   27  C   UNL     1       7.821  23.589  53.120  1.00  0.00    -0.057 A 
HETATM   28  C   UNL     1       7.678  23.714  54.506  1.00  0.00     0.010 A 
HETATM   29  C   UNL     1       7.705  22.581  55.322  1.00  0.00     0.037 A 
HETATM   30  C   UNL     1       7.878  21.309  54.773  1.00  0.00     0.068 A 
HETATM   31  C   UNL     1       8.033  21.180  53.393  1.00  0.00     0.037 A 
HETATM   32  C   UNL     1       8.006  22.314  52.572  1.00  0.00     0.010 A 
BRANCH  30  33
HETATM   33  O   UNL     1       7.881  20.290  55.684  1.00  0.00    -0.356 OA
HETATM   34  C   UNL     1       8.585  20.516  56.899  1.00  0.00     0.210 C 
ENDBRANCH  30  33
ENDBRANCH  26  27
ENDBRANCH  25  26
ENDBRANCH  22  25
ENDBRANCH  20  21
ENDBRANCH  19  20
ENDBRANCH   1  19
TORSDOF 10
ENDMDL
MODEL 7
REMARK VINA RESULT:      -9.2      2.241     11.389
REMARK  10 active torsions:
REMARK  status: ('A' for Active; 'I' for Inactive)
REMARK    1  A    between atoms: C_3  and  N_4 
REMARK       I    between atoms: N_4  and  C_5 
REMARK    2  A    between atoms: C_5  and  C_6 
REMARK    3  A    between atoms: C_13  and  C_14 
REMARK    4  A    between atoms: C_14  and  O_15 
REMARK    5  A    between atoms: O_15  and  C_16 
REMARK    6  A    between atoms: C_16  and  C_17 
REMARK       I    between atoms: C_17  and  N_18 
REMARK    7  A    between atoms: N_18  and  C_19 
REMARK    8  A    between atoms: C_19  and  C_20 
REMARK    9  A    between atoms: C_20  and  C_21 
REMARK   10  A    between atoms: C_24  and  O_25 
ROOT
HETATM    1  C   UNL     1       8.170  30.730  58.574  1.00  0.00     0.293 C 
HETATM    2  O   UNL     1       9.346  30.875  58.879  1.00  0.00    -0.259 OA
ENDROOT
BRANCH   1   3
HETATM    3  C   UNL     1       7.071  31.567  59.111  1.00  0.00     0.041 A 
HETATM    4  C   UNL     1       7.035  31.961  60.455  1.00  0.00     0.047 A 
HETATM    5  C   UNL     1       5.979  32.737  60.952  1.00  0.00     0.042 A 
HETATM    6  C   UNL     1       4.942  33.124  60.073  1.00  0.00    -0.035 A 
HETATM    7  C   UNL     1       3.745  33.928  60.510  1.00  0.00     0.050 C 
HETATM    8  C   UNL     1       4.991  32.722  58.726  1.00  0.00     0.010 A 
HETATM    9  C   UNL     1       6.053  31.961  58.243  1.00  0.00     0.018 A 
BRANCH   5  10
HETATM   10  N   UNL     1       5.916  33.125  62.308  1.00  0.00    -0.321 N 
HETATM   11  C   UNL     1       5.392  32.419  63.380  1.00  0.00     0.279 C 
HETATM   12  O   UNL     1       4.924  31.287  63.324  1.00  0.00    -0.265 OA
HETATM   13  H   UNL     1       6.342  34.006  62.570  1.00  0.00     0.169 HD
BRANCH  11  14
HETATM   14  C   UNL     1       5.481  33.148  64.632  1.00  0.00     0.142 A 
HETATM   15  O   UNL     1       4.333  33.469  65.312  1.00  0.00    -0.317 OA
HETATM   16  C   UNL     1       4.710  34.130  66.437  1.00  0.00     0.143 A 
HETATM   17  C   UNL     1       6.078  34.253  66.492  1.00  0.00     0.027 A 
HETATM   18  C   UNL     1       6.576  33.622  65.330  1.00  0.00     0.045 A 
ENDBRANCH  11  14
ENDBRANCH   5  10
ENDBRANCH   1   3
BRANCH   1  19
HETATM   19  O   UNL     1       7.689  29.836  57.681  1.00  0.00    -0.308 OA
BRANCH  19  20
HETATM   20  C   UNL     1       8.512  28.694  57.439  1.00  0.00     0.281 C 
BRANCH  20  21
HETATM   21  C   UNL     1       7.735  27.385  57.289  1.00  0.00     0.241 C 
HETATM   22  N   UNL     1       6.635  27.467  56.462  1.00  0.00    -0.359 N 
HETATM   23  H   UNL     1       6.549  28.299  55.878  1.00  0.00     0.162 HD
HETATM   24  O   UNL     1       8.056  26.358  57.883  1.00  0.00    -0.271 OA
BRANCH  22  25
HETATM   25  C   UNL     1       5.851  26.290  56.142  1.00  0.00     0.127 C 
BRANCH  25  26
HETATM   26  C   UNL     1       5.968  25.915  54.666  1.00  0.00     0.058 C 
BRANCH  26  27
HETATM   27  C   UNL     1       6.656  24.587  54.473  1.00  0.00    -0.057 A 
HETATM   28  C   UNL     1       6.941  24.121  53.185  1.00  0.00     0.010 A 
HETATM   29  C   UNL     1       7.566  22.885  53.007  1.00  0.00     0.037 A 
HETATM   30  C   UNL     1       7.912  22.094  54.104  1.00  0.00     0.068 A 
HETATM   31  C   UNL     1       7.621  22.550  55.389  1.00  0.00     0.037 A 
HETATM   32  C   UNL     1       6.994  23.789  55.572  1.00  0.00     0.010 A 
BRANCH  30  33
HETATM   33  O   UNL     1       8.521  20.912  53.786  1.00  0.00    -0.356 OA
HETATM   34  C   UNL     1       8.825  20.036  54.865  1.00  0.00     0.210 C 
ENDBRANCH  30  33
ENDBRANCH  26  27
ENDBRANCH  25  26
ENDBRANCH  22  25
ENDBRANCH  20  21
ENDBRANCH  19  20
ENDBRANCH   1  19
TORSDOF 10
ENDMDL
MODEL 8
REMARK VINA RESULT:      -9.2      2.502      4.287
REMARK  10 active torsions:
REMARK  status: ('A' for Active; 'I' for Inactive)
REMARK    1  A    between atoms: C_3  and  N_4 
REMARK       I    between atoms: N_4  and  C_5 
REMARK    2  A    between atoms: C_5  and  C_6 
REMARK    3  A    between atoms: C_13  and  C_14 
REMARK    4  A    between atoms: C_14  and  O_15 
REMARK    5  A    between atoms: O_15  and  C_16 
REMARK    6  A    between atoms: C_16  and  C_17 
REMARK       I    between atoms: C_17  and  N_18 
REMARK    7  A    between atoms: N_18  and  C_19 
REMARK    8  A    between atoms: C_19  and  C_20 
REMARK    9  A    between atoms: C_20  and  C_21 
REMARK   10  A    between atoms: C_24  and  O_25 
ROOT
HETATM    1  C   UNL     1       7.549  28.573  57.466  1.00  0.00     0.293 C 
HETATM    2  O   UNL     1       6.568  29.217  57.810  1.00  0.00    -0.259 OA
ENDROOT
BRANCH   1   3
HETATM    3  C   UNL     1       7.513  27.495  56.450  1.00  0.00     0.041 A 
HETATM    4  C   UNL     1       7.059  27.729  55.145  1.00  0.00     0.047 A 
HETATM    5  C   UNL     1       7.014  26.695  54.200  1.00  0.00     0.042 A 
HETATM    6  C   UNL     1       7.440  25.402  54.580  1.00  0.00    -0.035 A 
HETATM    7  C   UNL     1       7.402  24.213  53.655  1.00  0.00     0.050 C 
HETATM    8  C   UNL     1       7.896  25.182  55.893  1.00  0.00     0.010 A 
HETATM    9  C   UNL     1       7.946  26.221  56.819  1.00  0.00     0.018 A 
BRANCH   5  10
HETATM   10  N   UNL     1       6.538  26.908  52.888  1.00  0.00    -0.321 N 
HETATM   11  C   UNL     1       5.231  27.102  52.469  1.00  0.00     0.279 C 
HETATM   12  O   UNL     1       4.252  27.165  53.205  1.00  0.00    -0.265 OA
HETATM   13  H   UNL     1       7.220  26.980  52.142  1.00  0.00     0.169 HD
BRANCH  11  14
HETATM   14  C   UNL     1       5.119  27.266  51.031  1.00  0.00     0.142 A 
HETATM   15  O   UNL     1       4.687  26.216  50.261  1.00  0.00    -0.317 OA
HETATM   16  C   UNL     1       4.668  26.649  48.974  1.00  0.00     0.143 A 
HETATM   17  C   UNL     1       5.090  27.954  48.895  1.00  0.00     0.027 A 
HETATM   18  C   UNL     1       5.381  28.353  50.219  1.00  0.00     0.045 A 
ENDBRANCH  11  14
ENDBRANCH   5  10
ENDBRANCH   1   3
BRANCH   1  19
HETATM   19  O   UNL     1       8.813  28.760  57.910  1.00  0.00    -0.308 OA
BRANCH  19  20
HETATM   20  C   UNL     1       9.479  29.923  57.415  1.00  0.00     0.281 C 
BRANCH  20  21
HETATM   21  C   UNL     1       9.741  30.993  58.477  1.00  0.00     0.241 C 
HETATM   22  N   UNL     1       9.120  30.759  59.686  1.00  0.00    -0.359 N 
HETATM   23  H   UNL     1       8.726  29.830  59.838  1.00  0.00     0.162 HD
HETATM   24  O   UNL     1      10.424  31.989  58.253  1.00  0.00    -0.271 OA
BRANCH  22  25
HETATM   25  C   UNL     1       9.346  31.629  60.823  1.00  0.00     0.127 C 
BRANCH  25  26
HETATM   26  C   UNL     1       8.948  30.960  62.137  1.00  0.00     0.058 C 
BRANCH  26  27
HETATM   27  C   UNL     1       7.804  31.675  62.811  1.00  0.00    -0.057 A 
HETATM   28  C   UNL     1       6.482  31.303  62.541  1.00  0.00     0.010 A 
HETATM   29  C   UNL     1       5.423  31.975  63.156  1.00  0.00     0.037 A 
HETATM   30  C   UNL     1       5.662  33.027  64.042  1.00  0.00     0.068 A 
HETATM   31  C   UNL     1       6.977  33.408  64.306  1.00  0.00     0.037 A 
HETATM   32  C   UNL     1       8.042  32.737  63.692  1.00  0.00     0.010 A 
BRANCH  30  33
HETATM   33  O   UNL     1       4.535  33.592  64.573  1.00  0.00    -0.356 OA
HETATM   34  C   UNL     1       4.546  33.851  65.972  1.00  0.00     0.210 C 
ENDBRANCH  30  33
ENDBRANCH  26  27
ENDBRANCH  25  26
ENDBRANCH  22  25
ENDBRANCH  20  21
ENDBRANCH  19  20
ENDBRANCH   1  19
TORSDOF 10
ENDMDL
MODEL 9
REMARK VINA RESULT:      -9.1      2.309     11.537
REMARK  10 active torsions:
REMARK  status: ('A' for Active; 'I' for Inactive)
REMARK    1  A    between atoms: C_3  and  N_4 
REMARK       I    between atoms: N_4  and  C_5 
REMARK    2  A    between atoms: C_5  and  C_6 
REMARK    3  A    between atoms: C_13  and  C_14 
REMARK    4  A    between atoms: C_14  and  O_15 
REMARK    5  A    between atoms: O_15  and  C_16 
REMARK    6  A    between atoms: C_16  and  C_17 
REMARK       I    between atoms: C_17  and  N_18 
REMARK    7  A    between atoms: N_18  and  C_19 
REMARK    8  A    between atoms: C_19  and  C_20 
REMARK    9  A    between atoms: C_20  and  C_21 
REMARK   10  A    between atoms: C_24  and  O_25 
ROOT
HETATM    1  C   UNL     1       9.075  31.409  59.633  1.00  0.00     0.293 C 
HETATM    2  O   UNL     1       9.728  32.159  58.921  1.00  0.00    -0.259 OA
ENDROOT
BRANCH   1   3
HETATM    3  C   UNL     1       8.302  31.859  60.814  1.00  0.00     0.041 A 
HETATM    4  C   UNL     1       6.976  32.298  60.701  1.00  0.00     0.047 A 
HETATM    5  C   UNL     1       6.263  32.738  61.825  1.00  0.00     0.042 A 
HETATM    6  C   UNL     1       6.902  32.731  63.086  1.00  0.00    -0.035 A 
HETATM    7  C   UNL     1       6.240  33.213  64.351  1.00  0.00     0.050 C 
HETATM    8  C   UNL     1       8.233  32.286  63.185  1.00  0.00     0.010 A 
HETATM    9  C   UNL     1       8.926  31.841  62.061  1.00  0.00     0.018 A 
BRANCH   5  10
HETATM   10  N   UNL     1       4.934  33.204  61.726  1.00  0.00    -0.321 N 
HETATM   11  C   UNL     1       4.490  34.509  61.587  1.00  0.00     0.279 C 
HETATM   12  O   UNL     1       5.209  35.496  61.480  1.00  0.00    -0.265 OA
HETATM   13  H   UNL     1       4.191  32.516  61.704  1.00  0.00     0.169 HD
BRANCH  11  14
HETATM   14  C   UNL     1       3.042  34.609  61.542  1.00  0.00     0.142 A 
HETATM   15  O   UNL     1       2.415  34.836  60.342  1.00  0.00    -0.317 OA
HETATM   16  C   UNL     1       1.081  34.871  60.592  1.00  0.00     0.143 A 
HETATM   17  C   UNL     1       0.833  34.684  61.930  1.00  0.00     0.027 A 
HETATM   18  C   UNL     1       2.095  34.515  62.544  1.00  0.00     0.045 A 
ENDBRANCH  11  14
ENDBRANCH   5  10
ENDBRANCH   1   3
BRANCH   1  19
HETATM   19  O   UNL     1       8.913  30.080  59.442  1.00  0.00    -0.308 OA
BRANCH  19  20
HETATM   20  C   UNL     1       7.870  29.704  58.541  1.00  0.00     0.281 C 
BRANCH  20  21
HETATM   21  C   UNL     1       8.281  28.646  57.515  1.00  0.00     0.241 C 
HETATM   22  N   UNL     1       7.620  27.443  57.641  1.00  0.00    -0.359 N 
HETATM   23  H   UNL     1       6.798  27.421  58.246  1.00  0.00     0.162 HD
HETATM   24  O   UNL     1       9.151  28.851  56.672  1.00  0.00    -0.271 OA
BRANCH  22  25
HETATM   25  C   UNL     1       7.828  26.372  56.688  1.00  0.00     0.127 C 
BRANCH  25  26
HETATM   26  C   UNL     1       8.409  25.125  57.352  1.00  0.00     0.058 C 
BRANCH  26  27
HETATM   27  C   UNL     1       8.223  23.893  56.502  1.00  0.00    -0.057 A 
HETATM   28  C   UNL     1       7.857  24.013  55.157  1.00  0.00     0.010 A 
HETATM   29  C   UNL     1       7.671  22.871  54.374  1.00  0.00     0.037 A 
HETATM   30  C   UNL     1       7.843  21.597  54.917  1.00  0.00     0.068 A 
HETATM   31  C   UNL     1       8.197  21.472  56.260  1.00  0.00     0.037 A 
HETATM   32  C   UNL     1       8.385  22.614  57.048  1.00  0.00     0.010 A 
BRANCH  30  33
HETATM   33  O   UNL     1       7.634  20.569  54.039  1.00  0.00    -0.356 OA
HETATM   34  C   UNL     1       8.511  20.491  52.922  1.00  0.00     0.210 C 
ENDBRANCH  30  33
ENDBRANCH  26  27
ENDBRANCH  25  26
ENDBRANCH  22  25
ENDBRANCH  20  21
ENDBRANCH  19  20
ENDBRANCH   1  19
TORSDOF 10
ENDMDL
MODEL 10
REMARK VINA RESULT:      -9.0      2.641      4.471
REMARK  10 active torsions:
REMARK  status: ('A' for Active; 'I' for Inactive)
REMARK    1  A    between atoms: C_3  and  N_4 
REMARK       I    between atoms: N_4  and  C_5 
REMARK    2  A    between atoms: C_5  and  C_6 
REMARK    3  A    between atoms: C_13  and  C_14 
REMARK    4  A    between atoms: C_14  and  O_15 
REMARK    5  A    between atoms: O_15  and  C_16 
REMARK    6  A    between atoms: C_16  and  C_17 
REMARK       I    between atoms: C_17  and  N_18 
REMARK    7  A    between atoms: N_18  and  C_19 
REMARK    8  A    between atoms: C_19  and  C_20 
REMARK    9  A    between atoms: C_20  and  C_21 
REMARK   10  A    between atoms: C_24  and  O_25 
ROOT
HETATM    1  C   UNL     1       7.692  26.129  57.585  1.00  0.00     0.293 C 
HETATM    2  O   UNL     1       7.980  25.641  58.669  1.00  0.00    -0.259 OA
ENDROOT
BRANCH   1   3
HETATM    3  C   UNL     1       7.732  25.381  56.307  1.00  0.00     0.041 A 
HETATM    4  C   UNL     1       7.106  25.865  55.151  1.00  0.00     0.047 A 
HETATM    5  C   UNL     1       7.138  25.137  53.954  1.00  0.00     0.042 A 
HETATM    6  C   UNL     1       7.817  23.899  53.924  1.00  0.00    -0.035 A 
HETATM    7  C   UNL     1       7.884  23.020  52.702  1.00  0.00     0.050 C 
HETATM    8  C   UNL     1       8.443  23.425  55.093  1.00  0.00     0.010 A 
HETATM    9  C   UNL     1       8.413  24.165  56.273  1.00  0.00     0.018 A 
BRANCH   5  10
HETATM   10  N   UNL     1       6.494  25.600  52.786  1.00  0.00    -0.321 N 
HETATM   11  C   UNL     1       6.240  26.909  52.406  1.00  0.00     0.279 C 
HETATM   12  O   UNL     1       6.586  27.908  53.027  1.00  0.00    -0.265 OA
HETATM   13  H   UNL     1       6.211  24.914  52.097  1.00  0.00     0.169 HD
BRANCH  11  14
HETATM   14  C   UNL     1       5.531  27.001  51.143  1.00  0.00     0.142 A 
HETATM   15  O   UNL     1       5.443  28.211  50.501  1.00  0.00    -0.317 OA
HETATM   16  C   UNL     1       4.745  28.003  49.355  1.00  0.00     0.143 A 
HETATM   17  C   UNL     1       4.370  26.685  49.248  1.00  0.00     0.027 A 
HETATM   18  C   UNL     1       4.875  26.039  50.399  1.00  0.00     0.045 A 
ENDBRANCH  11  14
ENDBRANCH   5  10
ENDBRANCH   1   3
BRANCH   1  19
HETATM   19  O   UNL     1       7.252  27.392  57.379  1.00  0.00    -0.308 OA
BRANCH  19  20
HETATM   20  C   UNL     1       8.189  28.431  57.664  1.00  0.00     0.281 C 
BRANCH  20  21
HETATM   21  C   UNL     1       7.549  29.740  58.131  1.00  0.00     0.241 C 
HETATM   22  N   UNL     1       7.877  30.107  59.419  1.00  0.00    -0.359 N 
HETATM   23  H   UNL     1       8.649  29.611  59.865  1.00  0.00     0.162 HD
HETATM   24  O   UNL     1       6.784  30.387  57.421  1.00  0.00    -0.271 OA
BRANCH  22  25
HETATM   25  C   UNL     1       7.427  31.367  59.975  1.00  0.00     0.127 C 
BRANCH  25  26
HETATM   26  C   UNL     1       8.401  31.905  61.022  1.00  0.00     0.058 C 
BRANCH  26  27
HETATM   27  C   UNL     1       7.695  32.688  62.101  1.00  0.00    -0.057 A 
HETATM   28  C   UNL     1       8.053  32.521  63.443  1.00  0.00     0.010 A 
HETATM   29  C   UNL     1       7.390  33.235  64.443  1.00  0.00     0.037 A 
HETATM   30  C   UNL     1       6.359  34.121  64.123  1.00  0.00     0.068 A 
HETATM   31  C   UNL     1       5.991  34.283  62.788  1.00  0.00     0.037 A 
HETATM   32  C   UNL     1       6.654  33.568  61.783  1.00  0.00     0.010 A 
BRANCH  30  33
HETATM   33  O   UNL     1       5.799  34.757  65.197  1.00  0.00    -0.356 OA
HETATM   34  C   UNL     1       5.961  34.136  66.467  1.00  0.00     0.210 C 
ENDBRANCH  30  33
ENDBRANCH  26  27
ENDBRANCH  25  26
ENDBRANCH  22  25
ENDBRANCH  20  21
ENDBRANCH  19  20
ENDBRANCH   1  19
TORSDOF 10
ENDMDL
