MODEL 1
REMARK VINA RESULT:      -8.8      0.000      0.000
REMARK  4 active torsions:
REMARK  status: ('A' for Active; 'I' for Inactive)
REMARK    1  A    between atoms: C_9  and  C_10 
REMARK    2  A    between atoms: C_18  and  C_19 
REMARK       I    between atoms: C_19  and  N_20 
REMARK    3  A    between atoms: N_20  and  C_21 
REMARK    4  A    between atoms: C_24  and  O_25 
ROOT
HETATM    1  C   UNL     1       4.927  26.090  49.931  1.00  0.00     0.070 C 
HETATM    2  C   UNL     1       4.851  27.146  51.004  1.00  0.00     0.037 A 
HETATM    3  N   UNL     1       4.565  28.434  50.559  1.00  0.00    -0.192 N 
HETATM    4  C   UNL     1       4.319  29.468  51.386  1.00  0.00     0.725 A 
HETATM    5  N   UNL     1       4.432  29.289  52.738  1.00  0.00    -0.084 N 
HETATM    6  N   UNL     1       4.073  30.402  53.413  1.00  0.00    -0.149 NA
HETATM    7  C   UNL     1       3.807  31.230  52.396  1.00  0.00     0.275 A 
HETATM    8  N   UNL     1       3.943  30.697  51.139  1.00  0.00    -0.054 NA
HETATM    9  C   UNL     1       4.769  28.008  53.370  1.00  0.00     0.204 A 
HETATM   10  C   UNL     1       4.980  26.911  52.334  1.00  0.00     0.062 A 
HETATM   11  H   UNL     1       4.428  28.572  49.561  1.00  0.00     0.184 HD
ENDROOT
BRANCH  10  12
HETATM   12  C   UNL     1       5.210  25.568  52.928  1.00  0.00     0.256 C 
HETATM   13  N   UNL     1       6.542  25.248  53.065  1.00  0.00    -0.323 N 
HETATM   14  H   UNL     1       7.217  25.937  52.753  1.00  0.00     0.169 HD
HETATM   15  O   UNL     1       4.238  24.914  53.285  1.00  0.00    -0.267 OA
BRANCH  13  16
HETATM   16  C   UNL     1       7.078  24.054  53.591  1.00  0.00     0.035 A 
HETATM   17  C   UNL     1       7.106  23.745  54.950  1.00  0.00     0.032 A 
HETATM   18  C   UNL     1       7.649  22.531  55.389  1.00  0.00     0.039 A 
HETATM   19  C   UNL     1       8.164  21.607  54.481  1.00  0.00     0.068 A 
HETATM   20  C   UNL     1       8.142  21.912  53.122  1.00  0.00     0.039 A 
HETATM   21  C   UNL     1       7.606  23.129  52.682  1.00  0.00     0.032 A 
BRANCH  19  22
HETATM   22  O   UNL     1       8.655  20.463  55.046  1.00  0.00    -0.356 OA
HETATM   23  C   UNL     1       8.814  20.457  56.459  1.00  0.00     0.210 C 
ENDBRANCH  19  22
ENDBRANCH  13  16
ENDBRANCH  10  12
BRANCH   9  24
HETATM   24  C   UNL     1       5.923  28.166  54.360  1.00  0.00    -0.006 A 
HETATM   25  C   UNL     1       5.785  28.120  55.760  1.00  0.00     0.044 A 
HETATM   26 CL   UNL     1       4.257  27.933  56.542  1.00  0.00    -0.084 Cl
HETATM   27  C   UNL     1       6.901  28.257  56.596  1.00  0.00     0.048 A 
HETATM   28  C   UNL     1       8.162  28.454  56.046  1.00  0.00     0.035 A 
HETATM   29 CL   UNL     1       9.528  28.624  57.078  1.00  0.00    -0.084 Cl
HETATM   30  C   UNL     1       8.326  28.520  54.668  1.00  0.00     0.024 A 
HETATM   31  C   UNL     1       7.215  28.377  53.832  1.00  0.00     0.013 A 
ENDBRANCH   9  24
TORSDOF 4
ENDMDL
MODEL 2
REMARK VINA RESULT:      -8.3      2.934      4.912
REMARK  4 active torsions:
REMARK  status: ('A' for Active; 'I' for Inactive)
REMARK    1  A    between atoms: C_9  and  C_10 
REMARK    2  A    between atoms: C_18  and  C_19 
REMARK       I    between atoms: C_19  and  N_20 
REMARK    3  A    between atoms: N_20  and  C_21 
REMARK    4  A    between atoms: C_24  and  O_25 
ROOT
HETATM    1  C   UNL     1       4.362  29.528  54.569  1.00  0.00     0.070 C 
HETATM    2  C   UNL     1       4.645  29.696  53.098  1.00  0.00     0.037 A 
HETATM    3  N   UNL     1       4.625  31.006  52.630  1.00  0.00    -0.192 N 
HETATM    4  C   UNL     1       4.993  31.355  51.382  1.00  0.00     0.725 A 
HETATM    5  N   UNL     1       5.330  30.379  50.483  1.00  0.00    -0.084 N 
HETATM    6  N   UNL     1       5.749  30.910  49.315  1.00  0.00    -0.149 NA
HETATM    7  C   UNL     1       5.585  32.214  49.566  1.00  0.00     0.275 A 
HETATM    8  N   UNL     1       5.127  32.529  50.820  1.00  0.00    -0.054 NA
HETATM    9  C   UNL     1       5.359  28.947  50.802  1.00  0.00     0.204 A 
HETATM   10  C   UNL     1       4.966  28.686  52.251  1.00  0.00     0.062 A 
HETATM   11  H   UNL     1       4.427  31.747  53.298  1.00  0.00     0.184 HD
ENDROOT
BRANCH  10  12
HETATM   12  C   UNL     1       5.091  27.262  52.654  1.00  0.00     0.256 C 
HETATM   13  N   UNL     1       6.393  26.854  52.834  1.00  0.00    -0.323 N 
HETATM   14  H   UNL     1       7.120  27.542  52.675  1.00  0.00     0.169 HD
HETATM   15  O   UNL     1       4.067  26.617  52.842  1.00  0.00    -0.267 OA
BRANCH  13  16
HETATM   16  C   UNL     1       6.835  25.569  53.214  1.00  0.00     0.035 A 
HETATM   17  C   UNL     1       6.652  25.025  54.485  1.00  0.00     0.032 A 
HETATM   18  C   UNL     1       7.114  23.737  54.777  1.00  0.00     0.039 A 
HETATM   19  C   UNL     1       7.756  22.968  53.808  1.00  0.00     0.068 A 
HETATM   20  C   UNL     1       7.946  23.507  52.536  1.00  0.00     0.039 A 
HETATM   21  C   UNL     1       7.491  24.800  52.245  1.00  0.00     0.032 A 
BRANCH  19  22
HETATM   22  O   UNL     1       8.148  21.728  54.227  1.00  0.00    -0.356 OA
HETATM   23  C   UNL     1       8.129  20.684  53.262  1.00  0.00     0.210 C 
ENDBRANCH  19  22
ENDBRANCH  13  16
ENDBRANCH  10  12
BRANCH   9  24
HETATM   24  C   UNL     1       4.561  28.136  49.780  1.00  0.00    -0.006 A 
HETATM   25  C   UNL     1       3.173  28.253  49.577  1.00  0.00     0.044 A 
HETATM   26 CL   UNL     1       2.178  29.307  50.515  1.00  0.00    -0.084 Cl
HETATM   27  C   UNL     1       2.523  27.482  48.605  1.00  0.00     0.048 A 
HETATM   28  C   UNL     1       3.246  26.578  47.835  1.00  0.00     0.035 A 
HETATM   29 CL   UNL     1       2.439  25.633  46.646  1.00  0.00    -0.084 Cl
HETATM   30  C   UNL     1       4.614  26.429  48.026  1.00  0.00     0.024 A 
HETATM   31  C   UNL     1       5.266  27.202  48.990  1.00  0.00     0.013 A 
ENDBRANCH   9  24
TORSDOF 4
ENDMDL
MODEL 3
REMARK VINA RESULT:      -8.3      1.552      1.817
REMARK  4 active torsions:
REMARK  status: ('A' for Active; 'I' for Inactive)
REMARK    1  A    between atoms: C_9  and  C_10 
REMARK    2  A    between atoms: C_18  and  C_19 
REMARK       I    between atoms: C_19  and  N_20 
REMARK    3  A    between atoms: N_20  and  C_21 
REMARK    4  A    between atoms: C_24  and  O_25 
ROOT
HETATM    1  C   UNL     1       5.587  26.959  50.794  1.00  0.00     0.070 C 
HETATM    2  C   UNL     1       5.536  27.610  52.152  1.00  0.00     0.037 A 
HETATM    3  N   UNL     1       4.701  28.720  52.254  1.00  0.00    -0.192 N 
HETATM    4  C   UNL     1       4.424  29.336  53.419  1.00  0.00     0.725 A 
HETATM    5  N   UNL     1       5.047  28.921  54.564  1.00  0.00    -0.084 N 
HETATM    6  N   UNL     1       4.592  29.592  55.643  1.00  0.00    -0.149 NA
HETATM    7  C   UNL     1       3.732  30.436  55.061  1.00  0.00     0.275 A 
HETATM    8  N   UNL     1       3.598  30.311  53.702  1.00  0.00    -0.054 NA
HETATM    9  C   UNL     1       5.989  27.797  54.623  1.00  0.00     0.204 A 
HETATM   10  C   UNL     1       6.185  27.157  53.254  1.00  0.00     0.062 A 
HETATM   11  H   UNL     1       4.191  29.008  51.423  1.00  0.00     0.184 HD
ENDROOT
BRANCH  10  12
HETATM   12  C   UNL     1       7.041  25.943  53.281  1.00  0.00     0.256 C 
HETATM   13  N   UNL     1       6.467  24.881  53.943  1.00  0.00    -0.323 N 
HETATM   14  H   UNL     1       5.546  25.026  54.339  1.00  0.00     0.169 HD
HETATM   15  O   UNL     1       8.111  25.971  52.687  1.00  0.00    -0.267 OA
BRANCH  13  16
HETATM   16  C   UNL     1       7.026  23.601  54.138  1.00  0.00     0.035 A 
HETATM   17  C   UNL     1       7.181  23.000  55.386  1.00  0.00     0.032 A 
HETATM   18  C   UNL     1       7.739  21.720  55.493  1.00  0.00     0.039 A 
HETATM   19  C   UNL     1       8.142  21.018  54.358  1.00  0.00     0.068 A 
HETATM   20  C   UNL     1       7.993  21.614  53.107  1.00  0.00     0.039 A 
HETATM   21  C   UNL     1       7.443  22.898  53.001  1.00  0.00     0.032 A 
BRANCH  19  22
HETATM   22  O   UNL     1       8.661  19.778  54.607  1.00  0.00    -0.356 OA
HETATM   23  C   UNL     1       9.529  19.654  55.726  1.00  0.00     0.210 C 
ENDBRANCH  19  22
ENDBRANCH  13  16
ENDBRANCH  10  12
BRANCH   9  24
HETATM   24  C   UNL     1       7.290  28.200  55.319  1.00  0.00    -0.006 A 
HETATM   25  C   UNL     1       7.603  27.903  56.659  1.00  0.00     0.044 A 
HETATM   26 CL   UNL     1       6.511  27.080  57.713  1.00  0.00    -0.084 Cl
HETATM   27  C   UNL     1       8.827  28.296  57.213  1.00  0.00     0.048 A 
HETATM   28  C   UNL     1       9.746  29.000  56.443  1.00  0.00     0.035 A 
HETATM   29 CL   UNL     1      11.247  29.482  57.131  1.00  0.00    -0.084 Cl
HETATM   30  C   UNL     1       9.456  29.322  55.123  1.00  0.00     0.024 A 
HETATM   31  C   UNL     1       8.238  28.924  54.566  1.00  0.00     0.013 A 
ENDBRANCH   9  24
TORSDOF 4
ENDMDL
MODEL 4
REMARK VINA RESULT:      -8.2      9.539     12.525
REMARK  4 active torsions:
REMARK  status: ('A' for Active; 'I' for Inactive)
REMARK    1  A    between atoms: C_9  and  C_10 
REMARK    2  A    between atoms: C_18  and  C_19 
REMARK       I    between atoms: C_19  and  N_20 
REMARK    3  A    between atoms: N_20  and  C_21 
REMARK    4  A    between atoms: C_24  and  O_25 
ROOT
HETATM    1  C   UNL     1       8.349  32.296  61.004  1.00  0.00     0.070 C 
HETATM    2  C   UNL     1       6.934  32.332  60.488  1.00  0.00     0.037 A 
HETATM    3  N   UNL     1       6.693  31.574  59.345  1.00  0.00    -0.192 N 
HETATM    4  C   UNL     1       5.464  31.376  58.831  1.00  0.00     0.725 A 
HETATM    5  N   UNL     1       4.389  32.010  59.394  1.00  0.00    -0.084 N 
HETATM    6  N   UNL     1       3.233  31.634  58.805  1.00  0.00    -0.149 NA
HETATM    7  C   UNL     1       3.698  30.812  57.858  1.00  0.00     0.275 A 
HETATM    8  N   UNL     1       5.056  30.625  57.840  1.00  0.00    -0.054 NA
HETATM    9  C   UNL     1       4.476  32.878  60.574  1.00  0.00     0.204 A 
HETATM   10  C   UNL     1       5.907  32.987  61.086  1.00  0.00     0.062 A 
HETATM   11  H   UNL     1       7.471  31.057  58.945  1.00  0.00     0.184 HD
ENDROOT
BRANCH  10  12
HETATM   12  C   UNL     1       6.030  33.763  62.347  1.00  0.00     0.256 C 
HETATM   13  N   UNL     1       5.740  33.030  63.475  1.00  0.00    -0.323 N 
HETATM   14  H   UNL     1       5.474  32.061  63.340  1.00  0.00     0.169 HD
HETATM   15  O   UNL     1       6.421  34.922  62.281  1.00  0.00    -0.267 OA
BRANCH  13  16
HETATM   16  C   UNL     1       5.765  33.482  64.811  1.00  0.00     0.035 A 
HETATM   17  C   UNL     1       6.935  33.715  65.533  1.00  0.00     0.032 A 
HETATM   18  C   UNL     1       6.872  34.173  66.854  1.00  0.00     0.039 A 
HETATM   19  C   UNL     1       5.646  34.413  67.472  1.00  0.00     0.068 A 
HETATM   20  C   UNL     1       4.473  34.178  66.757  1.00  0.00     0.039 A 
HETATM   21  C   UNL     1       4.535  33.712  65.437  1.00  0.00     0.032 A 
BRANCH  19  22
HETATM   22  O   UNL     1       5.732  34.864  68.759  1.00  0.00    -0.356 OA
HETATM   23  C   UNL     1       7.013  35.280  69.213  1.00  0.00     0.210 C 
ENDBRANCH  19  22
ENDBRANCH  13  16
ENDBRANCH  10  12
BRANCH   9  24
HETATM   24  C   UNL     1       3.796  34.225  60.321  1.00  0.00    -0.006 A 
HETATM   25  C   UNL     1       2.835  34.805  61.170  1.00  0.00     0.044 A 
HETATM   26 CL   UNL     1       2.258  34.025  62.598  1.00  0.00    -0.084 Cl
HETATM   27  C   UNL     1       2.274  36.053  60.871  1.00  0.00     0.048 A 
HETATM   28  C   UNL     1       2.655  36.728  59.717  1.00  0.00     0.035 A 
HETATM   29 CL   UNL     1       1.959  38.260  59.355  1.00  0.00    -0.084 Cl
HETATM   30  C   UNL     1       3.588  36.171  58.852  1.00  0.00     0.024 A 
HETATM   31  C   UNL     1       4.154  34.930  59.152  1.00  0.00     0.013 A 
ENDBRANCH   9  24
TORSDOF 4
ENDMDL
MODEL 5
REMARK VINA RESULT:      -8.2      6.794      9.821
REMARK  4 active torsions:
REMARK  status: ('A' for Active; 'I' for Inactive)
REMARK    1  A    between atoms: C_9  and  C_10 
REMARK    2  A    between atoms: C_18  and  C_19 
REMARK       I    between atoms: C_19  and  N_20 
REMARK    3  A    between atoms: N_20  and  C_21 
REMARK    4  A    between atoms: C_24  and  O_25 
ROOT
HETATM    1  C   UNL     1       9.649  30.229  58.150  1.00  0.00     0.070 C 
HETATM    2  C   UNL     1       8.185  30.209  57.790  1.00  0.00     0.037 A 
HETATM    3  N   UNL     1       7.837  29.363  56.741  1.00  0.00    -0.192 N 
HETATM    4  C   UNL     1       6.564  29.112  56.380  1.00  0.00     0.725 A 
HETATM    5  N   UNL     1       5.544  29.774  57.008  1.00  0.00    -0.084 N 
HETATM    6  N   UNL     1       4.339  29.342  56.579  1.00  0.00    -0.149 NA
HETATM    7  C   UNL     1       4.715  28.454  55.650  1.00  0.00     0.275 A 
HETATM    8  N   UNL     1       6.067  28.282  55.499  1.00  0.00    -0.054 NA
HETATM    9  C   UNL     1       5.741  30.732  58.103  1.00  0.00     0.204 A 
HETATM   10  C   UNL     1       7.216  30.896  58.446  1.00  0.00     0.062 A 
HETATM   11  H   UNL     1       8.578  28.826  56.298  1.00  0.00     0.184 HD
ENDROOT
BRANCH  10  12
HETATM   12  C   UNL     1       7.459  31.768  59.624  1.00  0.00     0.256 C 
HETATM   13  N   UNL     1       6.821  31.340  60.766  1.00  0.00    -0.323 N 
HETATM   14  H   UNL     1       6.259  30.499  60.694  1.00  0.00     0.169 HD
HETATM   15  O   UNL     1       8.223  32.717  59.499  1.00  0.00    -0.267 OA
BRANCH  13  16
HETATM   16  C   UNL     1       6.855  31.951  62.037  1.00  0.00     0.035 A 
HETATM   17  C   UNL     1       8.028  32.313  62.696  1.00  0.00     0.032 A 
HETATM   18  C   UNL     1       7.974  32.924  63.955  1.00  0.00     0.039 A 
HETATM   19  C   UNL     1       6.752  33.191  64.570  1.00  0.00     0.068 A 
HETATM   20  C   UNL     1       5.575  32.828  63.918  1.00  0.00     0.039 A 
HETATM   21  C   UNL     1       5.629  32.209  62.662  1.00  0.00     0.032 A 
BRANCH  19  22
HETATM   22  O   UNL     1       6.846  33.798  65.791  1.00  0.00    -0.356 OA
HETATM   23  C   UNL     1       5.650  34.334  66.340  1.00  0.00     0.210 C 
ENDBRANCH  19  22
ENDBRANCH  13  16
ENDBRANCH  10  12
BRANCH   9  24
HETATM   24  C   UNL     1       5.011  32.047  57.826  1.00  0.00    -0.006 A 
HETATM   25  C   UNL     1       3.982  32.573  58.629  1.00  0.00     0.044 A 
HETATM   26 CL   UNL     1       3.372  31.752  60.020  1.00  0.00    -0.084 Cl
HETATM   27  C   UNL     1       3.378  33.796  58.312  1.00  0.00     0.048 A 
HETATM   28  C   UNL     1       3.783  34.499  57.183  1.00  0.00     0.035 A 
HETATM   29 CL   UNL     1       3.034  35.999  56.798  1.00  0.00    -0.084 Cl
HETATM   30  C   UNL     1       4.784  33.995  56.362  1.00  0.00     0.024 A 
HETATM   31  C   UNL     1       5.393  32.779  56.682  1.00  0.00     0.013 A 
ENDBRANCH   9  24
TORSDOF 4
ENDMDL
MODEL 6
REMARK VINA RESULT:      -8.0      2.722      6.706
REMARK  4 active torsions:
REMARK  status: ('A' for Active; 'I' for Inactive)
REMARK    1  A    between atoms: C_9  and  C_10 
REMARK    2  A    between atoms: C_18  and  C_19 
REMARK       I    between atoms: C_19  and  N_20 
REMARK    3  A    between atoms: N_20  and  C_21 
REMARK    4  A    between atoms: C_24  and  O_25 
ROOT
HETATM    1  C   UNL     1       7.294  22.376  53.025  1.00  0.00     0.070 C 
HETATM    2  C   UNL     1       7.521  23.339  54.162  1.00  0.00     0.037 A 
HETATM    3  N   UNL     1       7.792  22.755  55.397  1.00  0.00    -0.192 N 
HETATM    4  C   UNL     1       8.159  23.457  56.486  1.00  0.00     0.725 A 
HETATM    5  N   UNL     1       8.195  24.824  56.424  1.00  0.00    -0.084 N 
HETATM    6  N   UNL     1       8.660  25.356  57.575  1.00  0.00    -0.149 NA
HETATM    7  C   UNL     1       8.833  24.247  58.304  1.00  0.00     0.275 A 
HETATM    8  N   UNL     1       8.541  23.065  57.675  1.00  0.00    -0.054 NA
HETATM    9  C   UNL     1       7.894  25.597  55.214  1.00  0.00     0.204 A 
HETATM   10  C   UNL     1       7.536  24.690  54.043  1.00  0.00     0.062 A 
HETATM   11  H   UNL     1       7.820  21.740  55.446  1.00  0.00     0.184 HD
ENDROOT
BRANCH  10  12
HETATM   12  C   UNL     1       7.336  25.420  52.765  1.00  0.00     0.256 C 
HETATM   13  N   UNL     1       6.038  25.834  52.566  1.00  0.00    -0.323 N 
HETATM   14  H   UNL     1       5.364  25.604  53.286  1.00  0.00     0.169 HD
HETATM   15  O   UNL     1       8.312  25.634  52.057  1.00  0.00    -0.267 OA
BRANCH  13  16
HETATM   16  C   UNL     1       5.535  26.544  51.455  1.00  0.00     0.035 A 
HETATM   17  C   UNL     1       4.963  25.940  50.337  1.00  0.00     0.032 A 
HETATM   18  C   UNL     1       4.479  26.720  49.280  1.00  0.00     0.039 A 
HETATM   19  C   UNL     1       4.549  28.111  49.326  1.00  0.00     0.068 A 
HETATM   20  C   UNL     1       5.123  28.722  50.439  1.00  0.00     0.039 A 
HETATM   21  C   UNL     1       5.616  27.942  51.494  1.00  0.00     0.032 A 
BRANCH  19  22
HETATM   22  O   UNL     1       4.033  28.746  48.231  1.00  0.00    -0.356 OA
HETATM   23  C   UNL     1       2.821  28.231  47.697  1.00  0.00     0.210 C 
ENDBRANCH  19  22
ENDBRANCH  13  16
ENDBRANCH  10  12
BRANCH   9  24
HETATM   24  C   UNL     1       6.863  26.691  55.498  1.00  0.00    -0.006 A 
HETATM   25  C   UNL     1       7.035  28.051  55.179  1.00  0.00     0.044 A 
HETATM   26 CL   UNL     1       8.482  28.667  54.466  1.00  0.00    -0.084 Cl
HETATM   27  C   UNL     1       6.031  28.986  55.459  1.00  0.00     0.048 A 
HETATM   28  C   UNL     1       4.851  28.577  56.072  1.00  0.00     0.035 A 
HETATM   29 CL   UNL     1       3.623  29.732  56.415  1.00  0.00    -0.084 Cl
HETATM   30  C   UNL     1       4.662  27.244  56.413  1.00  0.00     0.024 A 
HETATM   31  C   UNL     1       5.660  26.309  56.128  1.00  0.00     0.013 A 
ENDBRANCH   9  24
TORSDOF 4
ENDMDL
MODEL 7
REMARK VINA RESULT:      -8.0      1.967      2.779
REMARK  4 active torsions:
REMARK  status: ('A' for Active; 'I' for Inactive)
REMARK    1  A    between atoms: C_9  and  C_10 
REMARK    2  A    between atoms: C_18  and  C_19 
REMARK       I    between atoms: C_19  and  N_20 
REMARK    3  A    between atoms: N_20  and  C_21 
REMARK    4  A    between atoms: C_24  and  O_25 
ROOT
HETATM    1  C   UNL     1       5.658  28.839  51.517  1.00  0.00     0.070 C 
HETATM    2  C   UNL     1       5.240  29.156  52.931  1.00  0.00     0.037 A 
HETATM    3  N   UNL     1       4.283  30.159  53.062  1.00  0.00    -0.192 N 
HETATM    4  C   UNL     1       3.692  30.473  54.231  1.00  0.00     0.725 A 
HETATM    5  N   UNL     1       4.095  29.844  55.378  1.00  0.00    -0.084 N 
HETATM    6  N   UNL     1       3.343  30.220  56.435  1.00  0.00    -0.149 NA
HETATM    7  C   UNL     1       2.541  31.121  55.856  1.00  0.00     0.275 A 
HETATM    8  N   UNL     1       2.720  31.304  54.508  1.00  0.00    -0.054 NA
HETATM    9  C   UNL     1       5.122  28.797  55.421  1.00  0.00     0.204 A 
HETATM   10  C   UNL     1       5.681  28.503  54.034  1.00  0.00     0.062 A 
HETATM   11  H   UNL     1       3.937  30.600  52.214  1.00  0.00     0.184 HD
ENDROOT
BRANCH  10  12
HETATM   12  C   UNL     1       6.642  27.369  54.008  1.00  0.00     0.256 C 
HETATM   13  N   UNL     1       6.035  26.134  53.986  1.00  0.00    -0.323 N 
HETATM   14  H   UNL     1       5.021  26.117  53.994  1.00  0.00     0.169 HD
HETATM   15  O   UNL     1       7.839  27.621  53.951  1.00  0.00    -0.267 OA
BRANCH  13  16
HETATM   16  C   UNL     1       6.672  24.876  53.960  1.00  0.00     0.035 A 
HETATM   17  C   UNL     1       7.138  24.262  52.799  1.00  0.00     0.032 A 
HETATM   18  C   UNL     1       7.768  23.014  52.861  1.00  0.00     0.039 A 
HETATM   19  C   UNL     1       7.951  22.363  54.080  1.00  0.00     0.068 A 
HETATM   20  C   UNL     1       7.483  22.970  55.245  1.00  0.00     0.039 A 
HETATM   21  C   UNL     1       6.845  24.215  55.182  1.00  0.00     0.032 A 
BRANCH  19  22
HETATM   22  O   UNL     1       8.587  21.157  53.996  1.00  0.00    -0.356 OA
HETATM   23  C   UNL     1       8.343  20.378  52.832  1.00  0.00     0.210 C 
ENDBRANCH  19  22
ENDBRANCH  13  16
ENDBRANCH  10  12
BRANCH   9  24
HETATM   24  C   UNL     1       6.187  29.108  56.474  1.00  0.00    -0.006 A 
HETATM   25  C   UNL     1       6.729  28.162  57.364  1.00  0.00     0.044 A 
HETATM   26 CL   UNL     1       6.206  26.517  57.411  1.00  0.00    -0.084 Cl
HETATM   27  C   UNL     1       7.716  28.529  58.287  1.00  0.00     0.048 A 
HETATM   28  C   UNL     1       8.162  29.845  58.343  1.00  0.00     0.035 A 
HETATM   29 CL   UNL     1       9.372  30.289  59.482  1.00  0.00    -0.084 Cl
HETATM   30  C   UNL     1       7.631  30.803  57.488  1.00  0.00     0.024 A 
HETATM   31  C   UNL     1       6.652  30.437  56.561  1.00  0.00     0.013 A 
ENDBRANCH   9  24
TORSDOF 4
ENDMDL
MODEL 8
REMARK VINA RESULT:      -7.7      8.814     11.550
REMARK  4 active torsions:
REMARK  status: ('A' for Active; 'I' for Inactive)
REMARK    1  A    between atoms: C_9  and  C_10 
REMARK    2  A    between atoms: C_18  and  C_19 
REMARK       I    between atoms: C_19  and  N_20 
REMARK    3  A    between atoms: N_20  and  C_21 
REMARK    4  A    between atoms: C_24  and  O_25 
ROOT
HETATM    1  C   UNL     1       7.031  33.401  64.475  1.00  0.00     0.070 C 
HETATM    2  C   UNL     1       6.282  34.481  63.737  1.00  0.00     0.037 A 
HETATM    3  N   UNL     1       6.290  35.735  64.340  1.00  0.00    -0.192 N 
HETATM    4  C   UNL     1       5.797  36.844  63.755  1.00  0.00     0.725 A 
HETATM    5  N   UNL     1       5.176  36.743  62.539  1.00  0.00    -0.084 N 
HETATM    6  N   UNL     1       4.819  37.957  62.068  1.00  0.00    -0.149 NA
HETATM    7  C   UNL     1       5.208  38.737  63.082  1.00  0.00     0.275 A 
HETATM    8  N   UNL     1       5.813  38.097  64.133  1.00  0.00    -0.054 NA
HETATM    9  C   UNL     1       5.043  35.489  61.789  1.00  0.00     0.204 A 
HETATM   10  C   UNL     1       5.677  34.320  62.533  1.00  0.00     0.062 A 
HETATM   11  H   UNL     1       6.791  35.837  65.219  1.00  0.00     0.184 HD
ENDROOT
BRANCH  10  12
HETATM   12  C   UNL     1       5.670  33.050  61.763  1.00  0.00     0.256 C 
HETATM   13  N   UNL     1       6.616  33.007  60.764  1.00  0.00    -0.323 N 
HETATM   14  H   UNL     1       7.205  33.823  60.651  1.00  0.00     0.169 HD
HETATM   15  O   UNL     1       4.896  32.164  62.106  1.00  0.00    -0.267 OA
BRANCH  13  16
HETATM   16  C   UNL     1       6.854  31.945  59.866  1.00  0.00     0.035 A 
HETATM   17  C   UNL     1       6.070  31.681  58.745  1.00  0.00     0.032 A 
HETATM   18  C   UNL     1       6.381  30.611  57.898  1.00  0.00     0.039 A 
HETATM   19  C   UNL     1       7.482  29.794  58.151  1.00  0.00     0.068 A 
HETATM   20  C   UNL     1       8.269  30.050  59.273  1.00  0.00     0.039 A 
HETATM   21  C   UNL     1       7.953  31.116  60.125  1.00  0.00     0.032 A 
BRANCH  19  22
HETATM   22  O   UNL     1       7.673  28.793  57.241  1.00  0.00    -0.356 OA
HETATM   23  C   UNL     1       9.012  28.368  57.020  1.00  0.00     0.210 C 
ENDBRANCH  19  22
ENDBRANCH  13  16
ENDBRANCH  10  12
BRANCH   9  24
HETATM   24  C   UNL     1       3.594  35.250  61.363  1.00  0.00    -0.006 A 
HETATM   25  C   UNL     1       3.131  35.321  60.036  1.00  0.00     0.044 A 
HETATM   26 CL   UNL     1       4.153  35.749  58.711  1.00  0.00    -0.084 Cl
HETATM   27  C   UNL     1       1.787  35.070  59.730  1.00  0.00     0.048 A 
HETATM   28  C   UNL     1       0.889  34.759  60.746  1.00  0.00     0.035 A 
HETATM   29 CL   UNL     1      -0.760  34.455  60.364  1.00  0.00    -0.084 Cl
HETATM   30  C   UNL     1       1.315  34.700  62.067  1.00  0.00     0.024 A 
HETATM   31  C   UNL     1       2.657  34.942  62.372  1.00  0.00     0.013 A 
ENDBRANCH   9  24
TORSDOF 4
ENDMDL
MODEL 9
REMARK VINA RESULT:      -7.5      1.477      1.880
REMARK  4 active torsions:
REMARK  status: ('A' for Active; 'I' for Inactive)
REMARK    1  A    between atoms: C_9  and  C_10 
REMARK    2  A    between atoms: C_18  and  C_19 
REMARK       I    between atoms: C_19  and  N_20 
REMARK    3  A    between atoms: N_20  and  C_21 
REMARK    4  A    between atoms: C_24  and  O_25 
ROOT
HETATM    1  C   UNL     1       4.860  26.015  51.657  1.00  0.00     0.070 C 
HETATM    2  C   UNL     1       4.763  27.124  52.673  1.00  0.00     0.037 A 
HETATM    3  N   UNL     1       4.220  28.319  52.207  1.00  0.00    -0.192 N 
HETATM    4  C   UNL     1       3.928  29.363  53.005  1.00  0.00     0.725 A 
HETATM    5  N   UNL     1       4.249  29.303  54.335  1.00  0.00    -0.084 N 
HETATM    6  N   UNL     1       3.813  30.397  54.995  1.00  0.00    -0.149 NA
HETATM    7  C   UNL     1       3.285  31.098  53.985  1.00  0.00     0.275 A 
HETATM    8  N   UNL     1       3.333  30.501  52.752  1.00  0.00    -0.054 NA
HETATM    9  C   UNL     1       4.866  28.137  54.977  1.00  0.00     0.204 A 
HETATM   10  C   UNL     1       5.105  27.009  53.980  1.00  0.00     0.062 A 
HETATM   11  H   UNL     1       3.930  28.361  51.234  1.00  0.00     0.184 HD
ENDROOT
BRANCH  10  12
HETATM   12  C   UNL     1       5.622  25.764  54.604  1.00  0.00     0.256 C 
HETATM   13  N   UNL     1       6.485  25.060  53.795  1.00  0.00    -0.323 N 
HETATM   14  H   UNL     1       6.676  25.446  52.877  1.00  0.00     0.169 HD
HETATM   15  O   UNL     1       5.297  25.512  55.758  1.00  0.00    -0.267 OA
BRANCH  13  16
HETATM   16  C   UNL     1       7.136  23.847  54.101  1.00  0.00     0.035 A 
HETATM   17  C   UNL     1       7.441  23.430  55.396  1.00  0.00     0.032 A 
HETATM   18  C   UNL     1       8.082  22.204  55.613  1.00  0.00     0.039 A 
HETATM   19  C   UNL     1       8.420  21.374  54.547  1.00  0.00     0.068 A 
HETATM   20  C   UNL     1       8.122  21.786  53.249  1.00  0.00     0.039 A 
HETATM   21  C   UNL     1       7.488  23.016  53.030  1.00  0.00     0.032 A 
BRANCH  19  22
HETATM   22  O   UNL     1       9.034  20.206  54.903  1.00  0.00    -0.356 OA
HETATM   23  C   UNL     1       9.489  20.099  56.246  1.00  0.00     0.210 C 
ENDBRANCH  19  22
ENDBRANCH  13  16
ENDBRANCH  10  12
BRANCH   9  24
HETATM   24  C   UNL     1       6.103  28.537  55.781  1.00  0.00    -0.006 A 
HETATM   25  C   UNL     1       7.400  28.651  55.245  1.00  0.00     0.044 A 
HETATM   26 CL   UNL     1       7.764  28.291  53.596  1.00  0.00    -0.084 Cl
HETATM   27  C   UNL     1       8.477  29.041  56.050  1.00  0.00     0.048 A 
HETATM   28  C   UNL     1       8.276  29.309  57.400  1.00  0.00     0.035 A 
HETATM   29 CL   UNL     1       9.605  29.785  58.383  1.00  0.00    -0.084 Cl
HETATM   30  C   UNL     1       7.010  29.188  57.959  1.00  0.00     0.024 A 
HETATM   31  C   UNL     1       5.933  28.806  57.156  1.00  0.00     0.013 A 
ENDBRANCH   9  24
TORSDOF 4
ENDMDL
MODEL 10
REMARK VINA RESULT:      -7.5      4.661      6.721
REMARK  4 active torsions:
REMARK  status: ('A' for Active; 'I' for Inactive)
REMARK    1  A    between atoms: C_9  and  C_10 
REMARK    2  A    between atoms: C_18  and  C_19 
REMARK       I    between atoms: C_19  and  N_20 
REMARK    3  A    between atoms: N_20  and  C_21 
REMARK    4  A    between atoms: C_24  and  O_25 
ROOT
HETATM    1  C   UNL     1       2.992  25.218  47.228  1.00  0.00     0.070 C 
HETATM    2  C   UNL     1       2.502  26.643  47.265  1.00  0.00     0.037 A 
HETATM    3  N   UNL     1       1.350  26.900  46.527  1.00  0.00    -0.192 N 
HETATM    4  C   UNL     1       0.694  28.075  46.560  1.00  0.00     0.725 A 
HETATM    5  N   UNL     1       1.212  29.115  47.284  1.00  0.00    -0.084 N 
HETATM    6  N   UNL     1       0.387  30.183  47.270  1.00  0.00    -0.149 NA
HETATM    7  C   UNL     1      -0.586  29.730  46.470  1.00  0.00     0.275 A 
HETATM    8  N   UNL     1      -0.438  28.445  46.016  1.00  0.00    -0.054 NA
HETATM    9  C   UNL     1       2.441  29.026  48.080  1.00  0.00     0.204 A 
HETATM   10  C   UNL     1       3.064  27.637  47.997  1.00  0.00     0.062 A 
HETATM   11  H   UNL     1       0.924  26.124  46.026  1.00  0.00     0.184 HD
ENDROOT
BRANCH  10  12
HETATM   12  C   UNL     1       4.248  27.462  48.878  1.00  0.00     0.256 C 
HETATM   13  N   UNL     1       3.924  27.121  50.172  1.00  0.00    -0.323 N 
HETATM   14  H   UNL     1       2.940  27.029  50.393  1.00  0.00     0.169 HD
HETATM   15  O   UNL     1       5.363  27.573  48.384  1.00  0.00    -0.267 OA
BRANCH  13  16
HETATM   16  C   UNL     1       4.820  26.889  51.237  1.00  0.00     0.035 A 
HETATM   17  C   UNL     1       5.186  25.621  51.685  1.00  0.00     0.032 A 
HETATM   18  C   UNL     1       6.090  25.477  52.745  1.00  0.00     0.039 A 
HETATM   19  C   UNL     1       6.646  26.593  53.367  1.00  0.00     0.068 A 
HETATM   20  C   UNL     1       6.281  27.864  52.927  1.00  0.00     0.039 A 
HETATM   21  C   UNL     1       5.371  28.009  51.872  1.00  0.00     0.032 A 
BRANCH  19  22
HETATM   22  O   UNL     1       7.518  26.308  54.381  1.00  0.00    -0.356 OA
HETATM   23  C   UNL     1       7.616  24.948  54.784  1.00  0.00     0.210 C 
ENDBRANCH  19  22
ENDBRANCH  13  16
ENDBRANCH  10  12
BRANCH   9  24
HETATM   24  C   UNL     1       3.403  30.166  47.744  1.00  0.00    -0.006 A 
HETATM   25  C   UNL     1       3.948  31.055  48.690  1.00  0.00     0.044 A 
HETATM   26 CL   UNL     1       3.544  30.997  50.367  1.00  0.00    -0.084 Cl
HETATM   27  C   UNL     1       4.837  32.063  48.298  1.00  0.00     0.048 A 
HETATM   28  C   UNL     1       5.182  32.204  46.958  1.00  0.00     0.035 A 
HETATM   29 CL   UNL     1       6.273  33.447  46.483  1.00  0.00    -0.084 Cl
HETATM   30  C   UNL     1       4.646  31.352  46.001  1.00  0.00     0.024 A 
HETATM   31  C   UNL     1       3.764  30.341  46.391  1.00  0.00     0.013 A 
ENDBRANCH   9  24
TORSDOF 4
ENDMDL
