MODEL 1
REMARK VINA RESULT:      -9.4      0.000      0.000
REMARK  4 active torsions:
REMARK  status: ('A' for Active; 'I' for Inactive)
REMARK    1  A    between atoms: C_7  and  C_8 
REMARK    2  A    between atoms: N_9  and  N_10 
REMARK       I    between atoms: N_10  and  C_11 
REMARK    3  A    between atoms: C_11  and  C_12 
REMARK    4  A    between atoms: C_12  and  C_13 
ROOT
HETATM    1  N   UNL     1       6.510  24.913  57.294  1.00  0.00    -0.247 N 
HETATM    2  C   UNL     1       7.698  25.517  57.700  1.00  0.00     0.241 C 
HETATM    3  O   UNL     1       7.771  26.605  58.269  1.00  0.00    -0.271 OA
HETATM    4  H   UNL     1       6.470  23.940  57.026  1.00  0.00     0.192 HD
ENDROOT
BRANCH   1   5
HETATM    5  N   UNL     1       5.360  25.606  57.387  1.00  0.00    -0.184 NA
HETATM    6  C   UNL     1       4.991  26.479  56.500  1.00  0.00     0.153 C 
BRANCH   6   7
HETATM    7  C   UNL     1       5.644  27.021  55.311  1.00  0.00     0.018 A 
HETATM    8  C   UNL     1       6.345  28.204  55.070  1.00  0.00     0.018 A 
HETATM    9  C   UNL     1       6.711  29.394  55.882  1.00  0.00     0.069 C 
HETATM   10  N   UNL     1       6.686  28.220  53.734  1.00  0.00    -0.358 N 
HETATM   11  H   UNL     1       7.195  28.966  53.279  1.00  0.00     0.166 HD
HETATM   12  C   UNL     1       6.151  27.152  53.069  1.00  0.00     0.043 A 
HETATM   13  C   UNL     1       5.517  26.364  54.022  1.00  0.00     0.004 A 
HETATM   14  C   UNL     1       6.171  26.840  51.704  1.00  0.00     0.030 A 
HETATM   15  C   UNL     1       4.883  25.178  53.582  1.00  0.00     0.014 A 
HETATM   16  C   UNL     1       4.887  24.849  52.220  1.00  0.00     0.001 A 
HETATM   17  C   UNL     1       5.518  25.674  51.295  1.00  0.00     0.002 A 
ENDBRANCH   6   7
ENDBRANCH   1   5
BRANCH   2  18
HETATM   18  C   UNL     1       8.932  24.712  57.331  1.00  0.00     0.145 C 
BRANCH  18  19
HETATM   19  C   UNL     1       8.614  23.395  56.682  1.00  0.00    -0.021 A 
HETATM   20  C   UNL     1       8.367  23.121  55.292  1.00  0.00    -0.001 A 
HETATM   21  C   UNL     1       8.058  21.764  55.180  1.00  0.00     0.042 A 
HETATM   22  C   UNL     1       8.377  23.891  54.109  1.00  0.00     0.014 A 
HETATM   23  C   UNL     1       7.736  21.152  53.962  1.00  0.00     0.030 A 
HETATM   24  N   UNL     1       8.154  21.222  56.440  1.00  0.00    -0.365 N 
HETATM   25  C   UNL     1       7.730  21.948  52.814  1.00  0.00     0.002 A 
HETATM   26  C   UNL     1       8.052  23.298  52.884  1.00  0.00     0.001 A 
HETATM   27  H   UNL     1       8.009  20.245  56.653  1.00  0.00     0.165 HD
HETATM   28  C   UNL     1       8.471  22.192  57.350  1.00  0.00     0.097 A 
ENDBRANCH  18  19
ENDBRANCH   2  18
TORSDOF 4
ENDMDL
MODEL 2
REMARK VINA RESULT:      -9.1      3.044      6.857
REMARK  4 active torsions:
REMARK  status: ('A' for Active; 'I' for Inactive)
REMARK    1  A    between atoms: C_7  and  C_8 
REMARK    2  A    between atoms: N_9  and  N_10 
REMARK       I    between atoms: N_10  and  C_11 
REMARK    3  A    between atoms: C_11  and  C_12 
REMARK    4  A    between atoms: C_12  and  C_13 
ROOT
HETATM    1  N   UNL     1       6.991  26.678  55.820  1.00  0.00    -0.247 N 
HETATM    2  C   UNL     1       7.885  27.417  56.591  1.00  0.00     0.241 C 
HETATM    3  O   UNL     1       8.231  27.124  57.735  1.00  0.00    -0.271 OA
HETATM    4  H   UNL     1       6.895  26.826  54.826  1.00  0.00     0.192 HD
ENDROOT
BRANCH   1   5
HETATM    5  N   UNL     1       6.332  25.651  56.389  1.00  0.00    -0.184 NA
HETATM    6  C   UNL     1       6.380  24.440  55.923  1.00  0.00     0.153 C 
BRANCH   6   7
HETATM    7  C   UNL     1       6.989  23.860  54.728  1.00  0.00     0.018 A 
HETATM    8  C   UNL     1       7.044  24.274  53.397  1.00  0.00     0.018 A 
HETATM    9  C   UNL     1       6.516  25.434  52.632  1.00  0.00     0.069 C 
HETATM   10  N   UNL     1       7.702  23.294  52.684  1.00  0.00    -0.358 N 
HETATM   11  H   UNL     1       7.879  23.325  51.689  1.00  0.00     0.166 HD
HETATM   12  C   UNL     1       7.989  22.212  53.470  1.00  0.00     0.043 A 
HETATM   13  C   UNL     1       7.586  22.537  54.760  1.00  0.00     0.004 A 
HETATM   14  C   UNL     1       8.556  20.978  53.130  1.00  0.00     0.030 A 
HETATM   15  C   UNL     1       7.785  21.573  55.776  1.00  0.00     0.014 A 
HETATM   16  C   UNL     1       8.347  20.330  55.457  1.00  0.00     0.001 A 
HETATM   17  C   UNL     1       8.721  20.037  54.150  1.00  0.00     0.002 A 
ENDBRANCH   6   7
ENDBRANCH   1   5
BRANCH   2  18
HETATM   18  C   UNL     1       8.380  28.672  55.893  1.00  0.00     0.145 C 
BRANCH  18  19
HETATM   19  C   UNL     1       9.215  29.556  56.775  1.00  0.00    -0.021 A 
HETATM   20  C   UNL     1       8.787  30.383  57.871  1.00  0.00    -0.001 A 
HETATM   21  C   UNL     1       9.910  31.063  58.348  1.00  0.00     0.042 A 
HETATM   22  C   UNL     1       7.554  30.623  58.514  1.00  0.00     0.014 A 
HETATM   23  C   UNL     1       9.856  31.980  59.404  1.00  0.00     0.030 A 
HETATM   24  N   UNL     1      10.985  30.638  57.604  1.00  0.00    -0.365 N 
HETATM   25  C   UNL     1       8.615  32.214  60.002  1.00  0.00     0.002 A 
HETATM   26  C   UNL     1       7.479  31.541  59.568  1.00  0.00     0.001 A 
HETATM   27  H   UNL     1      11.937  30.945  57.750  1.00  0.00     0.165 HD
HETATM   28  C   UNL     1      10.579  29.747  56.649  1.00  0.00     0.097 A 
ENDBRANCH  18  19
ENDBRANCH   2  18
TORSDOF 4
ENDMDL
MODEL 3
REMARK VINA RESULT:      -9.1      3.580      5.975
REMARK  4 active torsions:
REMARK  status: ('A' for Active; 'I' for Inactive)
REMARK    1  A    between atoms: C_7  and  C_8 
REMARK    2  A    between atoms: N_9  and  N_10 
REMARK       I    between atoms: N_10  and  C_11 
REMARK    3  A    between atoms: C_11  and  C_12 
REMARK    4  A    between atoms: C_12  and  C_13 
ROOT
HETATM    1  N   UNL     1       7.605  27.487  56.965  1.00  0.00    -0.247 N 
HETATM    2  C   UNL     1       7.486  26.207  57.502  1.00  0.00     0.241 C 
HETATM    3  O   UNL     1       8.324  25.672  58.226  1.00  0.00    -0.271 OA
HETATM    4  H   UNL     1       6.817  27.970  56.557  1.00  0.00     0.192 HD
ENDROOT
BRANCH   1   5
HETATM    5  N   UNL     1       8.767  28.151  57.112  1.00  0.00    -0.184 NA
HETATM    6  C   UNL     1       8.865  29.258  57.782  1.00  0.00     0.153 C 
BRANCH   6   7
HETATM    7  C   UNL     1       7.875  30.114  58.434  1.00  0.00     0.018 A 
HETATM    8  C   UNL     1       6.648  30.629  58.018  1.00  0.00     0.018 A 
HETATM    9  C   UNL     1       5.840  30.551  56.773  1.00  0.00     0.069 C 
HETATM   10  N   UNL     1       6.171  31.436  59.031  1.00  0.00    -0.358 N 
HETATM   11  H   UNL     1       5.300  31.947  58.999  1.00  0.00     0.166 HD
HETATM   12  C   UNL     1       7.080  31.553  60.046  1.00  0.00     0.043 A 
HETATM   13  C   UNL     1       8.146  30.720  59.726  1.00  0.00     0.004 A 
HETATM   14  C   UNL     1       7.040  32.339  61.204  1.00  0.00     0.030 A 
HETATM   15  C   UNL     1       9.229  30.656  60.634  1.00  0.00     0.014 A 
HETATM   16  C   UNL     1       9.212  31.437  61.796  1.00  0.00     0.001 A 
HETATM   17  C   UNL     1       8.133  32.271  62.072  1.00  0.00     0.002 A 
ENDBRANCH   6   7
ENDBRANCH   1   5
BRANCH   2  18
HETATM   18  C   UNL     1       6.216  25.494  57.070  1.00  0.00     0.145 C 
BRANCH  18  19
HETATM   19  C   UNL     1       6.292  24.931  55.680  1.00  0.00    -0.021 A 
HETATM   20  C   UNL     1       7.183  23.923  55.172  1.00  0.00    -0.001 A 
HETATM   21  C   UNL     1       6.915  23.773  53.809  1.00  0.00     0.042 A 
HETATM   22  C   UNL     1       8.194  23.114  55.734  1.00  0.00     0.014 A 
HETATM   23  C   UNL     1       7.619  22.885  52.985  1.00  0.00     0.030 A 
HETATM   24  N   UNL     1       5.877  24.622  53.506  1.00  0.00    -0.365 N 
HETATM   25  C   UNL     1       8.630  22.118  53.569  1.00  0.00     0.002 A 
HETATM   26  C   UNL     1       8.912  22.225  54.925  1.00  0.00     0.001 A 
HETATM   27  H   UNL     1       5.455  24.702  52.591  1.00  0.00     0.165 HD
HETATM   28  C   UNL     1       5.506  25.332  54.614  1.00  0.00     0.097 A 
ENDBRANCH  18  19
ENDBRANCH   2  18
TORSDOF 4
ENDMDL
MODEL 4
REMARK VINA RESULT:      -8.8      2.648      6.618
REMARK  4 active torsions:
REMARK  status: ('A' for Active; 'I' for Inactive)
REMARK    1  A    between atoms: C_7  and  C_8 
REMARK    2  A    between atoms: N_9  and  N_10 
REMARK       I    between atoms: N_10  and  C_11 
REMARK    3  A    between atoms: C_11  and  C_12 
REMARK    4  A    between atoms: C_12  and  C_13 
ROOT
HETATM    1  N   UNL     1       6.649  26.718  55.444  1.00  0.00    -0.247 N 
HETATM    2  C   UNL     1       6.270  28.045  55.636  1.00  0.00     0.241 C 
HETATM    3  O   UNL     1       6.167  28.880  54.738  1.00  0.00    -0.271 OA
HETATM    4  H   UNL     1       6.519  26.017  56.160  1.00  0.00     0.192 HD
ENDROOT
BRANCH   1   5
HETATM    5  N   UNL     1       7.078  26.331  54.228  1.00  0.00    -0.184 NA
HETATM    6  C   UNL     1       7.617  25.171  54.009  1.00  0.00     0.153 C 
BRANCH   6   7
HETATM    7  C   UNL     1       7.995  24.070  54.893  1.00  0.00     0.018 A 
HETATM    8  C   UNL     1       8.423  24.024  56.220  1.00  0.00     0.018 A 
HETATM    9  C   UNL     1       8.687  25.035  57.276  1.00  0.00     0.069 C 
HETATM   10  N   UNL     1       8.704  22.707  56.521  1.00  0.00    -0.358 N 
HETATM   11  H   UNL     1       9.043  22.381  57.415  1.00  0.00     0.166 HD
HETATM   12  C   UNL     1       8.578  21.906  55.419  1.00  0.00     0.043 A 
HETATM   13  C   UNL     1       8.109  22.712  54.390  1.00  0.00     0.004 A 
HETATM   14  C   UNL     1       8.857  20.543  55.262  1.00  0.00     0.030 A 
HETATM   15  C   UNL     1       7.885  22.109  53.129  1.00  0.00     0.014 A 
HETATM   16  C   UNL     1       8.162  20.748  52.949  1.00  0.00     0.001 A 
HETATM   17  C   UNL     1       8.647  19.979  54.002  1.00  0.00     0.002 A 
ENDBRANCH   6   7
ENDBRANCH   1   5
BRANCH   2  18
HETATM   18  C   UNL     1       6.028  28.392  57.095  1.00  0.00     0.145 C 
BRANCH  18  19
HETATM   19  C   UNL     1       6.913  29.495  57.600  1.00  0.00    -0.021 A 
HETATM   20  C   UNL     1       8.336  29.635  57.456  1.00  0.00    -0.001 A 
HETATM   21  C   UNL     1       8.717  30.791  58.142  1.00  0.00     0.042 A 
HETATM   22  C   UNL     1       9.347  28.896  56.804  1.00  0.00     0.014 A 
HETATM   23  C   UNL     1      10.046  31.223  58.231  1.00  0.00     0.030 A 
HETATM   24  N   UNL     1       7.571  31.356  58.648  1.00  0.00    -0.365 N 
HETATM   25  C   UNL     1      11.026  30.455  57.597  1.00  0.00     0.002 A 
HETATM   26  C   UNL     1      10.682  29.309  56.888  1.00  0.00     0.001 A 
HETATM   27  H   UNL     1       7.544  32.221  59.170  1.00  0.00     0.165 HD
HETATM   28  C   UNL     1       6.486  30.581  58.344  1.00  0.00     0.097 A 
ENDBRANCH  18  19
ENDBRANCH   2  18
TORSDOF 4
ENDMDL
MODEL 5
REMARK VINA RESULT:      -8.8      2.511      4.670
REMARK  4 active torsions:
REMARK  status: ('A' for Active; 'I' for Inactive)
REMARK    1  A    between atoms: C_7  and  C_8 
REMARK    2  A    between atoms: N_9  and  N_10 
REMARK       I    between atoms: N_10  and  C_11 
REMARK    3  A    between atoms: C_11  and  C_12 
REMARK    4  A    between atoms: C_12  and  C_13 
ROOT
HETATM    1  N   UNL     1       4.180  27.153  53.624  1.00  0.00    -0.247 N 
HETATM    2  C   UNL     1       4.966  26.432  52.728  1.00  0.00     0.241 C 
HETATM    3  O   UNL     1       5.595  26.926  51.794  1.00  0.00    -0.271 OA
HETATM    4  H   UNL     1       3.855  26.752  54.492  1.00  0.00     0.192 HD
ENDROOT
BRANCH   1   5
HETATM    5  N   UNL     1       3.958  28.461  53.391  1.00  0.00    -0.184 NA
HETATM    6  C   UNL     1       4.277  29.391  54.238  1.00  0.00     0.153 C 
BRANCH   6   7
HETATM    7  C   UNL     1       4.817  29.353  55.596  1.00  0.00     0.018 A 
HETATM    8  C   UNL     1       4.321  29.787  56.825  1.00  0.00     0.018 A 
HETATM    9  C   UNL     1       3.078  30.465  57.279  1.00  0.00     0.069 C 
HETATM   10  N   UNL     1       5.294  29.551  57.773  1.00  0.00    -0.358 N 
HETATM   11  H   UNL     1       5.209  29.776  58.755  1.00  0.00     0.166 HD
HETATM   12  C   UNL     1       6.444  29.079  57.201  1.00  0.00     0.043 A 
HETATM   13  C   UNL     1       6.178  28.913  55.847  1.00  0.00     0.004 A 
HETATM   14  C   UNL     1       7.689  28.804  57.779  1.00  0.00     0.030 A 
HETATM   15  C   UNL     1       7.219  28.420  55.026  1.00  0.00     0.014 A 
HETATM   16  C   UNL     1       8.474  28.143  55.583  1.00  0.00     0.001 A 
HETATM   17  C   UNL     1       8.705  28.339  56.941  1.00  0.00     0.002 A 
ENDBRANCH   6   7
ENDBRANCH   1   5
BRANCH   2  18
HETATM   18  C   UNL     1       4.946  24.936  52.988  1.00  0.00     0.145 C 
BRANCH  18  19
HETATM   19  C   UNL     1       6.218  24.419  53.599  1.00  0.00    -0.021 A 
HETATM   20  C   UNL     1       6.689  24.578  54.948  1.00  0.00    -0.001 A 
HETATM   21  C   UNL     1       7.946  23.975  55.028  1.00  0.00     0.042 A 
HETATM   22  C   UNL     1       6.171  25.172  56.119  1.00  0.00     0.014 A 
HETATM   23  C   UNL     1       8.714  23.962  56.200  1.00  0.00     0.030 A 
HETATM   24  N   UNL     1       8.214  23.435  53.793  1.00  0.00    -0.365 N 
HETATM   25  C   UNL     1       8.183  24.581  57.334  1.00  0.00     0.002 A 
HETATM   26  C   UNL     1       6.926  25.174  57.298  1.00  0.00     0.001 A 
HETATM   27  H   UNL     1       9.049  22.911  53.569  1.00  0.00     0.165 HD
HETATM   28  C   UNL     1       7.194  23.707  52.924  1.00  0.00     0.097 A 
ENDBRANCH  18  19
ENDBRANCH   2  18
TORSDOF 4
ENDMDL
MODEL 6
REMARK VINA RESULT:      -8.7      3.357      6.979
REMARK  4 active torsions:
REMARK  status: ('A' for Active; 'I' for Inactive)
REMARK    1  A    between atoms: C_7  and  C_8 
REMARK    2  A    between atoms: N_9  and  N_10 
REMARK       I    between atoms: N_10  and  C_11 
REMARK    3  A    between atoms: C_11  and  C_12 
REMARK    4  A    between atoms: C_12  and  C_13 
ROOT
HETATM    1  N   UNL     1       6.116  27.600  56.843  1.00  0.00    -0.247 N 
HETATM    2  C   UNL     1       7.288  27.897  57.533  1.00  0.00     0.241 C 
HETATM    3  O   UNL     1       7.851  27.136  58.319  1.00  0.00    -0.271 OA
HETATM    4  H   UNL     1       5.803  28.154  56.058  1.00  0.00     0.192 HD
ENDROOT
BRANCH   1   5
HETATM    5  N   UNL     1       5.451  26.468  57.143  1.00  0.00    -0.184 NA
HETATM    6  C   UNL     1       5.420  25.439  56.353  1.00  0.00     0.153 C 
BRANCH   6   7
HETATM    7  C   UNL     1       5.933  25.209  55.004  1.00  0.00     0.018 A 
HETATM    8  C   UNL     1       5.670  25.814  53.774  1.00  0.00     0.018 A 
HETATM    9  C   UNL     1       4.778  26.908  53.309  1.00  0.00     0.069 C 
HETATM   10  N   UNL     1       6.399  25.142  52.816  1.00  0.00    -0.358 N 
HETATM   11  H   UNL     1       6.394  25.361  51.829  1.00  0.00     0.166 HD
HETATM   12  C   UNL     1       7.045  24.060  53.348  1.00  0.00     0.043 A 
HETATM   13  C   UNL     1       6.803  24.083  54.716  1.00  0.00     0.004 A 
HETATM   14  C   UNL     1       7.805  23.067  52.718  1.00  0.00     0.030 A 
HETATM   15  C   UNL     1       7.378  23.058  55.505  1.00  0.00     0.014 A 
HETATM   16  C   UNL     1       8.138  22.052  54.895  1.00  0.00     0.001 A 
HETATM   17  C   UNL     1       8.342  22.056  53.519  1.00  0.00     0.002 A 
ENDBRANCH   6   7
ENDBRANCH   1   5
BRANCH   2  18
HETATM   18  C   UNL     1       7.805  29.299  57.256  1.00  0.00     0.145 C 
BRANCH  18  19
HETATM   19  C   UNL     1       7.295  30.325  58.227  1.00  0.00    -0.021 A 
HETATM   20  C   UNL     1       7.921  30.804  59.429  1.00  0.00    -0.001 A 
HETATM   21  C   UNL     1       7.042  31.710  60.028  1.00  0.00     0.042 A 
HETATM   22  C   UNL     1       9.153  30.563  60.074  1.00  0.00     0.014 A 
HETATM   23  C   UNL     1       7.320  32.358  61.238  1.00  0.00     0.030 A 
HETATM   24  N   UNL     1       5.946  31.813  59.205  1.00  0.00    -0.365 N 
HETATM   25  C   UNL     1       8.537  32.077  61.863  1.00  0.00     0.002 A 
HETATM   26  C   UNL     1       9.446  31.196  61.288  1.00  0.00     0.001 A 
HETATM   27  H   UNL     1       5.158  32.423  59.378  1.00  0.00     0.165 HD
HETATM   28  C   UNL     1       6.079  30.977  58.131  1.00  0.00     0.097 A 
ENDBRANCH  18  19
ENDBRANCH   2  18
TORSDOF 4
ENDMDL
MODEL 7
REMARK VINA RESULT:      -8.5      3.234      7.339
REMARK  4 active torsions:
REMARK  status: ('A' for Active; 'I' for Inactive)
REMARK    1  A    between atoms: C_7  and  C_8 
REMARK    2  A    between atoms: N_9  and  N_10 
REMARK       I    between atoms: N_10  and  C_11 
REMARK    3  A    between atoms: C_11  and  C_12 
REMARK    4  A    between atoms: C_12  and  C_13 
ROOT
HETATM    1  N   UNL     1       7.591  27.162  55.929  1.00  0.00    -0.247 N 
HETATM    2  C   UNL     1       8.337  28.326  56.104  1.00  0.00     0.241 C 
HETATM    3  O   UNL     1       8.730  29.050  55.192  1.00  0.00    -0.271 OA
HETATM    4  H   UNL     1       7.112  26.714  56.696  1.00  0.00     0.192 HD
ENDROOT
BRANCH   1   5
HETATM    5  N   UNL     1       7.396  26.695  54.681  1.00  0.00    -0.184 NA
HETATM    6  C   UNL     1       7.462  25.434  54.384  1.00  0.00     0.153 C 
BRANCH   6   7
HETATM    7  C   UNL     1       7.825  24.250  55.160  1.00  0.00     0.018 A 
HETATM    8  C   UNL     1       8.244  24.073  56.478  1.00  0.00     0.018 A 
HETATM    9  C   UNL     1       8.510  24.975  57.629  1.00  0.00     0.069 C 
HETATM   10  N   UNL     1       8.511  22.731  56.653  1.00  0.00    -0.358 N 
HETATM   11  H   UNL     1       8.842  22.316  57.514  1.00  0.00     0.166 HD
HETATM   12  C   UNL     1       8.385  22.039  55.479  1.00  0.00     0.043 A 
HETATM   13  C   UNL     1       7.930  22.946  54.529  1.00  0.00     0.004 A 
HETATM   14  C   UNL     1       8.652  20.695  55.194  1.00  0.00     0.030 A 
HETATM   15  C   UNL     1       7.708  22.468  53.216  1.00  0.00     0.014 A 
HETATM   16  C   UNL     1       7.974  21.128  52.907  1.00  0.00     0.001 A 
HETATM   17  C   UNL     1       8.445  20.257  53.884  1.00  0.00     0.002 A 
ENDBRANCH   6   7
ENDBRANCH   1   5
BRANCH   2  18
HETATM   18  C   UNL     1       8.667  28.608  57.560  1.00  0.00     0.145 C 
BRANCH  18  19
HETATM   19  C   UNL     1       7.833  29.705  58.159  1.00  0.00    -0.021 A 
HETATM   20  C   UNL     1       8.170  30.597  59.235  1.00  0.00    -0.001 A 
HETATM   21  C   UNL     1       7.056  31.405  59.476  1.00  0.00     0.042 A 
HETATM   22  C   UNL     1       9.315  30.805  60.033  1.00  0.00     0.014 A 
HETATM   23  C   UNL     1       7.022  32.379  60.481  1.00  0.00     0.030 A 
HETATM   24  N   UNL     1       6.095  31.051  58.559  1.00  0.00    -0.365 N 
HETATM   25  C   UNL     1       8.164  32.542  61.270  1.00  0.00     0.002 A 
HETATM   26  C   UNL     1       9.298  31.771  61.047  1.00  0.00     0.001 A 
HETATM   27  H   UNL     1       5.189  31.494  58.483  1.00  0.00     0.165 HD
HETATM   28  C   UNL     1       6.542  30.024  57.775  1.00  0.00     0.097 A 
ENDBRANCH  18  19
ENDBRANCH   2  18
TORSDOF 4
ENDMDL
MODEL 8
REMARK VINA RESULT:      -8.5      2.528      4.433
REMARK  4 active torsions:
REMARK  status: ('A' for Active; 'I' for Inactive)
REMARK    1  A    between atoms: C_7  and  C_8 
REMARK    2  A    between atoms: N_9  and  N_10 
REMARK       I    between atoms: N_10  and  C_11 
REMARK    3  A    between atoms: C_11  and  C_12 
REMARK    4  A    between atoms: C_12  and  C_13 
ROOT
HETATM    1  N   UNL     1       4.634  27.502  55.702  1.00  0.00    -0.247 N 
HETATM    2  C   UNL     1       5.588  26.605  55.229  1.00  0.00     0.241 C 
HETATM    3  O   UNL     1       6.411  26.856  54.350  1.00  0.00    -0.271 OA
HETATM    4  H   UNL     1       4.124  27.337  56.558  1.00  0.00     0.192 HD
ENDROOT
BRANCH   1   5
HETATM    5  N   UNL     1       4.483  28.684  55.075  1.00  0.00    -0.184 NA
HETATM    6  C   UNL     1       4.978  29.793  55.533  1.00  0.00     0.153 C 
BRANCH   6   7
HETATM    7  C   UNL     1       5.684  30.128  56.768  1.00  0.00     0.018 A 
HETATM    8  C   UNL     1       5.295  30.792  57.932  1.00  0.00     0.018 A 
HETATM    9  C   UNL     1       4.044  31.437  58.408  1.00  0.00     0.069 C 
HETATM   10  N   UNL     1       6.402  30.879  58.750  1.00  0.00    -0.358 N 
HETATM   11  H   UNL     1       6.413  31.321  59.659  1.00  0.00     0.166 HD
HETATM   12  C   UNL     1       7.521  30.395  58.130  1.00  0.00     0.043 A 
HETATM   13  C   UNL     1       7.111  29.891  56.902  1.00  0.00     0.004 A 
HETATM   14  C   UNL     1       8.854  30.383  58.559  1.00  0.00     0.030 A 
HETATM   15  C   UNL     1       8.095  29.318  56.062  1.00  0.00     0.014 A 
HETATM   16  C   UNL     1       9.435  29.299  56.470  1.00  0.00     0.001 A 
HETATM   17  C   UNL     1       9.807  29.831  57.700  1.00  0.00     0.002 A 
ENDBRANCH   6   7
ENDBRANCH   1   5
BRANCH   2  18
HETATM   18  C   UNL     1       5.495  25.236  55.882  1.00  0.00     0.145 C 
BRANCH  18  19
HETATM   19  C   UNL     1       6.815  24.523  55.962  1.00  0.00    -0.021 A 
HETATM   20  C   UNL     1       7.413  23.640  54.997  1.00  0.00    -0.001 A 
HETATM   21  C   UNL     1       8.614  23.176  55.539  1.00  0.00     0.042 A 
HETATM   22  C   UNL     1       7.056  23.186  53.709  1.00  0.00     0.014 A 
HETATM   23  C   UNL     1       9.452  22.271  54.876  1.00  0.00     0.030 A 
HETATM   24  N   UNL     1       8.765  23.782  56.763  1.00  0.00    -0.365 N 
HETATM   25  C   UNL     1       9.057  21.822  53.613  1.00  0.00     0.002 A 
HETATM   26  C   UNL     1       7.878  22.277  53.033  1.00  0.00     0.001 A 
HETATM   27  H   UNL     1       9.563  23.652  57.369  1.00  0.00     0.165 HD
HETATM   28  C   UNL     1       7.687  24.579  57.035  1.00  0.00     0.097 A 
ENDBRANCH  18  19
ENDBRANCH   2  18
TORSDOF 4
ENDMDL
MODEL 9
REMARK VINA RESULT:      -8.4      3.879      6.176
REMARK  4 active torsions:
REMARK  status: ('A' for Active; 'I' for Inactive)
REMARK    1  A    between atoms: C_7  and  C_8 
REMARK    2  A    between atoms: N_9  and  N_10 
REMARK       I    between atoms: N_10  and  C_11 
REMARK    3  A    between atoms: C_11  and  C_12 
REMARK    4  A    between atoms: C_12  and  C_13 
ROOT
HETATM    1  N   UNL     1       6.659  28.229  57.474  1.00  0.00    -0.247 N 
HETATM    2  C   UNL     1       7.277  27.610  56.390  1.00  0.00     0.241 C 
HETATM    3  O   UNL     1       7.497  28.150  55.307  1.00  0.00    -0.271 OA
HETATM    4  H   UNL     1       6.685  27.832  58.402  1.00  0.00     0.192 HD
ENDROOT
BRANCH   1   5
HETATM    5  N   UNL     1       6.125  29.454  57.308  1.00  0.00    -0.184 NA
HETATM    6  C   UNL     1       6.723  30.540  57.690  1.00  0.00     0.153 C 
BRANCH   6   7
HETATM    7  C   UNL     1       7.962  30.784  58.427  1.00  0.00     0.018 A 
HETATM    8  C   UNL     1       9.299  30.496  58.153  1.00  0.00     0.018 A 
HETATM    9  C   UNL     1      10.027  29.831  57.041  1.00  0.00     0.069 C 
HETATM   10  N   UNL     1      10.043  30.900  59.242  1.00  0.00    -0.358 N 
HETATM   11  H   UNL     1      11.046  30.805  59.322  1.00  0.00     0.166 HD
HETATM   12  C   UNL     1       9.240  31.342  60.258  1.00  0.00     0.043 A 
HETATM   13  C   UNL     1       7.936  31.313  59.779  1.00  0.00     0.004 A 
HETATM   14  C   UNL     1       9.573  31.748  61.556  1.00  0.00     0.030 A 
HETATM   15  C   UNL     1       6.904  31.737  60.649  1.00  0.00     0.014 A 
HETATM   16  C   UNL     1       7.214  32.142  61.953  1.00  0.00     0.001 A 
HETATM   17  C   UNL     1       8.532  32.141  62.400  1.00  0.00     0.002 A 
ENDBRANCH   6   7
ENDBRANCH   1   5
BRANCH   2  18
HETATM   18  C   UNL     1       7.629  26.156  56.655  1.00  0.00     0.145 C 
BRANCH  18  19
HETATM   19  C   UNL     1       7.232  25.233  55.538  1.00  0.00    -0.021 A 
HETATM   20  C   UNL     1       7.887  24.031  55.098  1.00  0.00    -0.001 A 
HETATM   21  C   UNL     1       7.183  23.550  53.991  1.00  0.00     0.042 A 
HETATM   22  C   UNL     1       9.011  23.295  55.531  1.00  0.00     0.014 A 
HETATM   23  C   UNL     1       7.559  22.399  53.288  1.00  0.00     0.030 A 
HETATM   24  N   UNL     1       6.120  24.397  53.790  1.00  0.00    -0.365 N 
HETATM   25  C   UNL     1       8.692  21.708  53.727  1.00  0.00     0.002 A 
HETATM   26  C   UNL     1       9.406  22.145  54.837  1.00  0.00     0.001 A 
HETATM   27  H   UNL     1       5.422  24.275  53.069  1.00  0.00     0.165 HD
HETATM   28  C   UNL     1       6.147  25.418  54.700  1.00  0.00     0.097 A 
ENDBRANCH  18  19
ENDBRANCH   2  18
TORSDOF 4
ENDMDL
MODEL 10
REMARK VINA RESULT:      -8.4      3.497      4.935
REMARK  4 active torsions:
REMARK  status: ('A' for Active; 'I' for Inactive)
REMARK    1  A    between atoms: C_7  and  C_8 
REMARK    2  A    between atoms: N_9  and  N_10 
REMARK       I    between atoms: N_10  and  C_11 
REMARK    3  A    between atoms: C_11  and  C_12 
REMARK    4  A    between atoms: C_12  and  C_13 
ROOT
HETATM    1  N   UNL     1       6.117  25.885  50.980  1.00  0.00    -0.247 N 
HETATM    2  C   UNL     1       6.051  25.373  52.274  1.00  0.00     0.241 C 
HETATM    3  O   UNL     1       5.036  24.914  52.794  1.00  0.00    -0.271 OA
HETATM    4  H   UNL     1       6.999  26.055  50.517  1.00  0.00     0.192 HD
ENDROOT
BRANCH   1   5
HETATM    5  N   UNL     1       4.978  26.034  50.279  1.00  0.00    -0.184 NA
HETATM    6  C   UNL     1       4.516  27.194  49.925  1.00  0.00     0.153 C 
BRANCH   6   7
HETATM    7  C   UNL     1       4.946  28.562  50.209  1.00  0.00     0.018 A 
HETATM    8  C   UNL     1       5.278  29.224  51.391  1.00  0.00     0.018 A 
HETATM    9  C   UNL     1       5.328  28.851  52.829  1.00  0.00     0.069 C 
HETATM   10  N   UNL     1       5.551  30.537  51.070  1.00  0.00    -0.358 N 
HETATM   11  H   UNL     1       5.812  31.251  51.736  1.00  0.00     0.166 HD
HETATM   12  C   UNL     1       5.310  30.788  49.746  1.00  0.00     0.043 A 
HETATM   13  C   UNL     1       4.959  29.574  49.168  1.00  0.00     0.004 A 
HETATM   14  C   UNL     1       5.365  31.991  49.034  1.00  0.00     0.030 A 
HETATM   15  C   UNL     1       4.665  29.564  47.784  1.00  0.00     0.014 A 
HETATM   16  C   UNL     1       4.709  30.758  47.053  1.00  0.00     0.001 A 
HETATM   17  C   UNL     1       5.049  31.955  47.674  1.00  0.00     0.002 A 
ENDBRANCH   6   7
ENDBRANCH   1   5
BRANCH   2  18
HETATM   18  C   UNL     1       7.370  25.472  53.022  1.00  0.00     0.145 C 
BRANCH  18  19
HETATM   19  C   UNL     1       7.503  24.466  54.130  1.00  0.00    -0.021 A 
HETATM   20  C   UNL     1       7.710  23.046  54.027  1.00  0.00    -0.001 A 
HETATM   21  C   UNL     1       7.711  22.526  55.323  1.00  0.00     0.042 A 
HETATM   22  C   UNL     1       7.902  22.144  52.958  1.00  0.00     0.014 A 
HETATM   23  C   UNL     1       7.864  21.162  55.598  1.00  0.00     0.030 A 
HETATM   24  N   UNL     1       7.554  23.586  56.183  1.00  0.00    -0.365 N 
HETATM   25  C   UNL     1       8.027  20.293  54.516  1.00  0.00     0.002 A 
HETATM   26  C   UNL     1       8.051  20.776  53.214  1.00  0.00     0.001 A 
HETATM   27  H   UNL     1       7.546  23.507  57.191  1.00  0.00     0.165 HD
HETATM   28  C   UNL     1       7.413  24.751  55.481  1.00  0.00     0.097 A 
ENDBRANCH  18  19
ENDBRANCH   2  18
TORSDOF 4
ENDMDL
