MODEL 1
REMARK VINA RESULT:     -10.2      0.000      0.000
REMARK  4 active torsions:
REMARK  status: ('A' for Active; 'I' for Inactive)
REMARK    1  A    between atoms: O_2  and  C_3 
REMARK    2  A    between atoms: C_5  and  C_6 
REMARK    3  A    between atoms: C_10  and  C_11 
REMARK       I    between atoms: C_11  and  N_12 
REMARK    4  A    between atoms: N_12  and  N_13 
ROOT
HETATM    1  C   UNL     1       8.923  29.394  56.870  1.00  0.00     0.289 C 
HETATM    2  N   UNL     1       7.827  28.560  56.731  1.00  0.00    -0.241 N 
HETATM    3  O   UNL     1       9.898  29.383  56.123  1.00  0.00    -0.264 OA
HETATM    4  H   UNL     1       7.055  28.601  57.395  1.00  0.00     0.192 HD
ENDROOT
BRANCH   1   5
HETATM    5  C   UNL     1       8.852  30.305  57.985  1.00  0.00     0.121 A 
HETATM    6  N   UNL     1       9.745  31.330  58.115  1.00  0.00    -0.272 N 
HETATM    7  N   UNL     1       9.560  32.089  59.204  1.00  0.00    -0.174 NA
HETATM    8  H   UNL     1      10.508  31.552  57.482  1.00  0.00     0.189 HD
HETATM    9  C   UNL     1       8.487  31.558  59.812  1.00  0.00     0.089 A 
HETATM   10  C   UNL     1       8.018  30.428  59.079  1.00  0.00     0.071 A 
BRANCH   9  11
HETATM   11  C   UNL     1       7.952  32.126  61.056  1.00  0.00    -0.003 A 
HETATM   12  C   UNL     1       6.715  32.796  61.051  1.00  0.00     0.050 A 
HETATM   13  C   UNL     1       6.187  33.342  62.224  1.00  0.00     0.069 A 
HETATM   14  C   UNL     1       6.903  33.219  63.416  1.00  0.00     0.037 A 
HETATM   15  C   UNL     1       8.128  32.556  63.441  1.00  0.00     0.004 A 
HETATM   16  C   UNL     1       8.651  32.010  62.266  1.00  0.00     0.014 A 
BRANCH  13  17
HETATM   17  O   UNL     1       4.999  34.012  62.336  1.00  0.00    -0.356 OA
HETATM   18  C   UNL     1       4.308  33.885  63.573  1.00  0.00     0.210 C 
ENDBRANCH  13  17
ENDBRANCH   9  11
ENDBRANCH   1   5
BRANCH   2  19
HETATM   19  N   UNL     1       7.770  27.653  55.708  1.00  0.00    -0.165 NA
HETATM   20  C   UNL     1       7.699  26.405  56.044  1.00  0.00     0.157 A 
HETATM   21  C   UNL     1       7.674  25.797  57.449  1.00  0.00     0.277 A 
HETATM   22  C   UNL     1       7.628  25.279  55.121  1.00  0.00     0.027 A 
HETATM   23  O   UNL     1       7.712  26.438  58.479  1.00  0.00    -0.266 OA
HETATM   24  N   UNL     1       7.603  24.434  57.262  1.00  0.00    -0.321 N 
HETATM   25  C   UNL     1       7.574  24.126  55.903  1.00  0.00     0.048 A 
HETATM   26  H   UNL     1       7.574  23.767  58.019  1.00  0.00     0.169 HD
HETATM   27  C   UNL     1       7.501  22.876  55.328  1.00  0.00     0.030 A 
HETATM   28  C   UNL     1       7.481  22.813  53.928  1.00  0.00     0.002 A 
HETATM   29  C   UNL     1       7.535  23.984  53.144  1.00  0.00     0.001 A 
HETATM   30  C   UNL     1       7.610  25.244  53.742  1.00  0.00     0.016 A 
ENDBRANCH   2  19
TORSDOF 4
ENDMDL
MODEL 2
REMARK VINA RESULT:      -9.9      1.646      2.294
REMARK  4 active torsions:
REMARK  status: ('A' for Active; 'I' for Inactive)
REMARK    1  A    between atoms: O_2  and  C_3 
REMARK    2  A    between atoms: C_5  and  C_6 
REMARK    3  A    between atoms: C_10  and  C_11 
REMARK       I    between atoms: C_11  and  N_12 
REMARK    4  A    between atoms: N_12  and  N_13 
ROOT
HETATM    1  C   UNL     1       7.634  27.889  55.594  1.00  0.00     0.289 C 
HETATM    2  N   UNL     1       7.308  26.596  55.964  1.00  0.00    -0.241 N 
HETATM    3  O   UNL     1       7.995  28.213  54.465  1.00  0.00    -0.264 OA
HETATM    4  H   UNL     1       7.033  26.383  56.923  1.00  0.00     0.192 HD
ENDROOT
BRANCH   1   5
HETATM    5  C   UNL     1       7.525  28.866  56.648  1.00  0.00     0.121 A 
HETATM    6  N   UNL     1       6.560  29.832  56.616  1.00  0.00    -0.272 N 
HETATM    7  N   UNL     1       6.586  30.674  57.659  1.00  0.00    -0.174 NA
HETATM    8  H   UNL     1       5.856  29.961  55.895  1.00  0.00     0.189 HD
HETATM    9  C   UNL     1       7.599  30.237  58.424  1.00  0.00     0.089 A 
HETATM   10  C   UNL     1       8.220  29.106  57.818  1.00  0.00     0.071 A 
BRANCH   9  11
HETATM   11  C   UNL     1       7.946  30.901  59.688  1.00  0.00    -0.003 A 
HETATM   12  C   UNL     1       7.178  31.986  60.149  1.00  0.00     0.050 A 
HETATM   13  C   UNL     1       7.490  32.630  61.349  1.00  0.00     0.069 A 
HETATM   14  C   UNL     1       8.582  32.187  62.097  1.00  0.00     0.037 A 
HETATM   15  C   UNL     1       9.352  31.112  61.658  1.00  0.00     0.004 A 
HETATM   16  C   UNL     1       9.035  30.470  60.458  1.00  0.00     0.014 A 
BRANCH  13  17
HETATM   17  O   UNL     1       6.816  33.690  61.892  1.00  0.00    -0.356 OA
HETATM   18  C   UNL     1       5.885  33.394  62.927  1.00  0.00     0.210 C 
ENDBRANCH  13  17
ENDBRANCH   9  11
ENDBRANCH   1   5
BRANCH   2  19
HETATM   19  N   UNL     1       7.365  25.577  55.052  1.00  0.00    -0.165 NA
HETATM   20  C   UNL     1       7.743  24.422  55.497  1.00  0.00     0.157 A 
HETATM   21  C   UNL     1       8.146  24.037  56.924  1.00  0.00     0.277 A 
HETATM   22  C   UNL     1       7.872  23.206  54.704  1.00  0.00     0.027 A 
HETATM   23  O   UNL     1       8.154  24.800  57.868  1.00  0.00    -0.266 OA
HETATM   24  N   UNL     1       8.472  22.699  56.868  1.00  0.00    -0.321 N 
HETATM   25  C   UNL     1       8.311  22.209  55.574  1.00  0.00     0.048 A 
HETATM   26  H   UNL     1       8.779  22.166  57.669  1.00  0.00     0.169 HD
HETATM   27  C   UNL     1       8.535  20.923  55.131  1.00  0.00     0.030 A 
HETATM   28  C   UNL     1       8.302  20.661  53.775  1.00  0.00     0.002 A 
HETATM   29  C   UNL     1       7.856  21.676  52.901  1.00  0.00     0.001 A 
HETATM   30  C   UNL     1       7.634  22.974  53.366  1.00  0.00     0.016 A 
ENDBRANCH   2  19
TORSDOF 4
ENDMDL
MODEL 3
REMARK VINA RESULT:      -9.8      2.331      9.725
REMARK  4 active torsions:
REMARK  status: ('A' for Active; 'I' for Inactive)
REMARK    1  A    between atoms: O_2  and  C_3 
REMARK    2  A    between atoms: C_5  and  C_6 
REMARK    3  A    between atoms: C_10  and  C_11 
REMARK       I    between atoms: C_11  and  N_12 
REMARK    4  A    between atoms: N_12  and  N_13 
ROOT
HETATM    1  C   UNL     1       6.056  29.533  57.243  1.00  0.00     0.289 C 
HETATM    2  N   UNL     1       6.944  30.510  57.660  1.00  0.00    -0.241 N 
HETATM    3  O   UNL     1       4.925  29.388  57.701  1.00  0.00    -0.264 OA
HETATM    4  H   UNL     1       7.878  30.570  57.257  1.00  0.00     0.192 HD
ENDROOT
BRANCH   1   5
HETATM    5  C   UNL     1       6.556  28.665  56.207  1.00  0.00     0.121 A 
HETATM    6  N   UNL     1       7.242  29.166  55.138  1.00  0.00    -0.272 N 
HETATM    7  N   UNL     1       7.636  28.241  54.252  1.00  0.00    -0.174 NA
HETATM    8  H   UNL     1       7.464  30.142  54.965  1.00  0.00     0.189 HD
HETATM    9  C   UNL     1       7.211  27.074  54.764  1.00  0.00     0.089 A 
HETATM   10  C   UNL     1       6.519  27.301  55.990  1.00  0.00     0.071 A 
BRANCH   9  11
HETATM   11  C   UNL     1       7.465  25.799  54.081  1.00  0.00    -0.003 A 
HETATM   12  C   UNL     1       7.549  24.606  54.822  1.00  0.00     0.050 A 
HETATM   13  C   UNL     1       7.788  23.383  54.190  1.00  0.00     0.069 A 
HETATM   14  C   UNL     1       7.947  23.350  52.804  1.00  0.00     0.037 A 
HETATM   15  C   UNL     1       7.862  24.521  52.054  1.00  0.00     0.004 A 
HETATM   16  C   UNL     1       7.622  25.741  52.689  1.00  0.00     0.014 A 
BRANCH  13  17
HETATM   17  O   UNL     1       7.890  22.165  54.807  1.00  0.00    -0.356 OA
HETATM   18  C   UNL     1       7.856  21.018  53.967  1.00  0.00     0.210 C 
ENDBRANCH  13  17
ENDBRANCH   9  11
ENDBRANCH   1   5
BRANCH   2  19
HETATM   19  N   UNL     1       6.587  31.403  58.634  1.00  0.00    -0.165 NA
HETATM   20  C   UNL     1       7.245  31.339  59.747  1.00  0.00     0.157 A 
HETATM   21  C   UNL     1       8.380  30.385  60.129  1.00  0.00     0.277 A 
HETATM   22  C   UNL     1       7.032  32.191  60.910  1.00  0.00     0.027 A 
HETATM   23  O   UNL     1       8.836  29.529  59.399  1.00  0.00    -0.266 OA
HETATM   24  N   UNL     1       8.727  30.720  61.419  1.00  0.00    -0.321 N 
HETATM   25  C   UNL     1       7.944  31.776  61.880  1.00  0.00     0.048 A 
HETATM   26  H   UNL     1       9.455  30.253  61.941  1.00  0.00     0.169 HD
HETATM   27  C   UNL     1       8.000  32.387  63.114  1.00  0.00     0.030 A 
HETATM   28  C   UNL     1       7.108  33.439  63.352  1.00  0.00     0.002 A 
HETATM   29  C   UNL     1       6.189  33.855  62.365  1.00  0.00     0.001 A 
HETATM   30  C   UNL     1       6.143  33.225  61.119  1.00  0.00     0.016 A 
ENDBRANCH   2  19
TORSDOF 4
ENDMDL
MODEL 4
REMARK VINA RESULT:      -9.3      2.248      3.195
REMARK  4 active torsions:
REMARK  status: ('A' for Active; 'I' for Inactive)
REMARK    1  A    between atoms: O_2  and  C_3 
REMARK    2  A    between atoms: C_5  and  C_6 
REMARK    3  A    between atoms: C_10  and  C_11 
REMARK       I    between atoms: C_11  and  N_12 
REMARK    4  A    between atoms: N_12  and  N_13 
ROOT
HETATM    1  C   UNL     1       7.136  27.785  54.875  1.00  0.00     0.289 C 
HETATM    2  N   UNL     1       6.522  26.580  55.170  1.00  0.00    -0.241 N 
HETATM    3  O   UNL     1       7.962  27.937  53.978  1.00  0.00    -0.264 OA
HETATM    4  H   UNL     1       5.858  26.510  55.940  1.00  0.00     0.192 HD
ENDROOT
BRANCH   1   5
HETATM    5  C   UNL     1       6.740  28.888  55.715  1.00  0.00     0.121 A 
HETATM    6  N   UNL     1       5.873  29.842  55.262  1.00  0.00    -0.272 N 
HETATM    7  N   UNL     1       5.604  30.808  56.150  1.00  0.00    -0.174 NA
HETATM    8  H   UNL     1       5.438  29.877  54.345  1.00  0.00     0.189 HD
HETATM    9  C   UNL     1       6.306  30.473  57.244  1.00  0.00     0.089 A 
HETATM   10  C   UNL     1       7.041  29.274  57.006  1.00  0.00     0.071 A 
BRANCH   9  11
HETATM   11  C   UNL     1       6.264  31.292  58.463  1.00  0.00    -0.003 A 
HETATM   12  C   UNL     1       7.412  31.421  59.267  1.00  0.00     0.050 A 
HETATM   13  C   UNL     1       7.393  32.197  60.428  1.00  0.00     0.069 A 
HETATM   14  C   UNL     1       6.215  32.852  60.793  1.00  0.00     0.037 A 
HETATM   15  C   UNL     1       5.071  32.740  60.006  1.00  0.00     0.004 A 
HETATM   16  C   UNL     1       5.094  31.964  58.845  1.00  0.00     0.014 A 
BRANCH  13  17
HETATM   17  O   UNL     1       8.444  32.392  61.283  1.00  0.00    -0.356 OA
HETATM   18  C   UNL     1       8.333  31.809  62.576  1.00  0.00     0.210 C 
ENDBRANCH  13  17
ENDBRANCH   9  11
ENDBRANCH   1   5
BRANCH   2  19
HETATM   19  N   UNL     1       6.807  25.458  54.441  1.00  0.00    -0.165 NA
HETATM   20  C   UNL     1       7.262  24.440  55.099  1.00  0.00     0.157 A 
HETATM   21  C   UNL     1       7.532  24.322  56.602  1.00  0.00     0.277 A 
HETATM   22  C   UNL     1       7.628  23.152  54.525  1.00  0.00     0.027 A 
HETATM   23  O   UNL     1       7.337  25.206  57.409  1.00  0.00    -0.266 OA
HETATM   24  N   UNL     1       8.018  23.046  56.791  1.00  0.00    -0.321 N 
HETATM   25  C   UNL     1       8.073  22.358  55.581  1.00  0.00     0.048 A 
HETATM   26  H   UNL     1       8.286  22.680  57.692  1.00  0.00     0.169 HD
HETATM   27  C   UNL     1       8.499  21.064  55.371  1.00  0.00     0.030 A 
HETATM   28  C   UNL     1       8.463  20.581  54.057  1.00  0.00     0.002 A 
HETATM   29  C   UNL     1       8.009  21.390  52.993  1.00  0.00     0.001 A 
HETATM   30  C   UNL     1       7.583  22.700  53.222  1.00  0.00     0.016 A 
ENDBRANCH   2  19
TORSDOF 4
ENDMDL
MODEL 5
REMARK VINA RESULT:      -9.2      1.910      2.331
REMARK  4 active torsions:
REMARK  status: ('A' for Active; 'I' for Inactive)
REMARK    1  A    between atoms: O_2  and  C_3 
REMARK    2  A    between atoms: C_5  and  C_6 
REMARK    3  A    between atoms: C_10  and  C_11 
REMARK       I    between atoms: C_11  and  N_12 
REMARK    4  A    between atoms: N_12  and  N_13 
ROOT
HETATM    1  C   UNL     1       6.406  28.356  55.472  1.00  0.00     0.289 C 
HETATM    2  N   UNL     1       7.180  27.286  55.887  1.00  0.00    -0.241 N 
HETATM    3  O   UNL     1       5.779  28.386  54.415  1.00  0.00    -0.264 OA
HETATM    4  H   UNL     1       7.694  27.326  56.766  1.00  0.00     0.192 HD
ENDROOT
BRANCH   1   5
HETATM    5  C   UNL     1       6.381  29.473  56.382  1.00  0.00     0.121 A 
HETATM    6  N   UNL     1       5.801  30.658  56.028  1.00  0.00    -0.272 N 
HETATM    7  N   UNL     1       5.862  31.606  56.972  1.00  0.00    -0.174 NA
HETATM    8  H   UNL     1       5.349  30.869  55.143  1.00  0.00     0.189 HD
HETATM    9  C   UNL     1       6.493  31.022  58.003  1.00  0.00     0.089 A 
HETATM   10  C   UNL     1       6.843  29.681  57.667  1.00  0.00     0.071 A 
BRANCH   9  11
HETATM   11  C   UNL     1       6.746  31.746  59.257  1.00  0.00    -0.003 A 
HETATM   12  C   UNL     1       5.697  32.426  59.903  1.00  0.00     0.050 A 
HETATM   13  C   UNL     1       5.916  33.118  61.096  1.00  0.00     0.069 A 
HETATM   14  C   UNL     1       7.197  33.133  61.651  1.00  0.00     0.037 A 
HETATM   15  C   UNL     1       8.247  32.461  61.028  1.00  0.00     0.004 A 
HETATM   16  C   UNL     1       8.022  31.769  59.835  1.00  0.00     0.014 A 
BRANCH  13  17
HETATM   17  O   UNL     1       4.976  33.812  61.809  1.00  0.00    -0.356 OA
HETATM   18  C   UNL     1       3.767  33.126  62.110  1.00  0.00     0.210 C 
ENDBRANCH  13  17
ENDBRANCH   9  11
ENDBRANCH   1   5
BRANCH   2  19
HETATM   19  N   UNL     1       7.280  26.160  55.114  1.00  0.00    -0.165 NA
HETATM   20  C   UNL     1       7.613  25.068  55.723  1.00  0.00     0.157 A 
HETATM   21  C   UNL     1       7.919  24.862  57.210  1.00  0.00     0.277 A 
HETATM   22  C   UNL     1       7.776  23.761  55.098  1.00  0.00     0.027 A 
HETATM   23  O   UNL     1       7.878  25.737  58.050  1.00  0.00    -0.266 OA
HETATM   24  N   UNL     1       8.229  23.526  57.342  1.00  0.00    -0.321 N 
HETATM   25  C   UNL     1       8.145  22.879  56.112  1.00  0.00     0.048 A 
HETATM   26  H   UNL     1       8.477  23.095  58.221  1.00  0.00     0.169 HD
HETATM   27  C   UNL     1       8.379  21.546  55.847  1.00  0.00     0.030 A 
HETATM   28  C   UNL     1       8.229  21.118  54.522  1.00  0.00     0.002 A 
HETATM   29  C   UNL     1       7.853  22.018  53.502  1.00  0.00     0.001 A 
HETATM   30  C   UNL     1       7.620  23.365  53.786  1.00  0.00     0.016 A 
ENDBRANCH   2  19
TORSDOF 4
ENDMDL
MODEL 6
REMARK VINA RESULT:      -9.1      2.280      9.626
REMARK  4 active torsions:
REMARK  status: ('A' for Active; 'I' for Inactive)
REMARK    1  A    between atoms: O_2  and  C_3 
REMARK    2  A    between atoms: C_5  and  C_6 
REMARK    3  A    between atoms: C_10  and  C_11 
REMARK       I    between atoms: C_11  and  N_12 
REMARK    4  A    between atoms: N_12  and  N_13 
ROOT
HETATM    1  C   UNL     1       8.962  31.210  60.135  1.00  0.00     0.289 C 
HETATM    2  N   UNL     1       8.065  30.784  61.099  1.00  0.00    -0.241 N 
HETATM    3  O   UNL     1       9.704  32.181  60.263  1.00  0.00    -0.264 OA
HETATM    4  H   UNL     1       7.459  29.982  60.928  1.00  0.00     0.192 HD
ENDROOT
BRANCH   1   5
HETATM    5  C   UNL     1       8.971  30.422  58.928  1.00  0.00     0.121 A 
HETATM    6  N   UNL     1      10.022  30.480  58.057  1.00  0.00    -0.272 N 
HETATM    7  N   UNL     1       9.886  29.700  56.976  1.00  0.00    -0.174 NA
HETATM    8  H   UNL     1      10.859  31.046  58.156  1.00  0.00     0.189 HD
HETATM    9  C   UNL     1       8.705  29.083  57.145  1.00  0.00     0.089 A 
HETATM   10  C   UNL     1       8.095  29.518  58.358  1.00  0.00     0.071 A 
BRANCH   9  11
HETATM   11  C   UNL     1       8.196  28.119  56.161  1.00  0.00    -0.003 A 
HETATM   12  C   UNL     1       7.817  26.827  56.570  1.00  0.00     0.050 A 
HETATM   13  C   UNL     1       7.329  25.896  55.650  1.00  0.00     0.069 A 
HETATM   14  C   UNL     1       7.218  26.257  54.306  1.00  0.00     0.037 A 
HETATM   15  C   UNL     1       7.585  27.533  53.884  1.00  0.00     0.004 A 
HETATM   16  C   UNL     1       8.071  28.462  54.807  1.00  0.00     0.014 A 
BRANCH  13  17
HETATM   17  O   UNL     1       6.933  24.616  55.933  1.00  0.00    -0.356 OA
HETATM   18  C   UNL     1       7.115  23.649  54.906  1.00  0.00     0.210 C 
ENDBRANCH  13  17
ENDBRANCH   9  11
ENDBRANCH   1   5
BRANCH   2  19
HETATM   19  N   UNL     1       7.964  31.444  62.294  1.00  0.00    -0.165 NA
HETATM   20  C   UNL     1       6.929  32.205  62.450  1.00  0.00     0.157 A 
HETATM   21  C   UNL     1       5.788  32.474  61.464  1.00  0.00     0.277 A 
HETATM   22  C   UNL     1       6.624  32.994  63.637  1.00  0.00     0.027 A 
HETATM   23  O   UNL     1       5.700  31.978  60.360  1.00  0.00    -0.266 OA
HETATM   24  N   UNL     1       4.947  33.358  62.104  1.00  0.00    -0.321 N 
HETATM   25  C   UNL     1       5.430  33.663  63.374  1.00  0.00     0.048 A 
HETATM   26  H   UNL     1       4.099  33.720  61.691  1.00  0.00     0.169 HD
HETATM   27  C   UNL     1       4.863  34.504  64.308  1.00  0.00     0.030 A 
HETATM   28  C   UNL     1       5.534  34.655  65.528  1.00  0.00     0.002 A 
HETATM   29  C   UNL     1       6.742  33.972  65.787  1.00  0.00     0.001 A 
HETATM   30  C   UNL     1       7.304  33.125  64.830  1.00  0.00     0.016 A 
ENDBRANCH   2  19
TORSDOF 4
ENDMDL
MODEL 7
REMARK VINA RESULT:      -9.0      2.694      9.877
REMARK  4 active torsions:
REMARK  status: ('A' for Active; 'I' for Inactive)
REMARK    1  A    between atoms: O_2  and  C_3 
REMARK    2  A    between atoms: C_5  and  C_6 
REMARK    3  A    between atoms: C_10  and  C_11 
REMARK       I    between atoms: C_11  and  N_12 
REMARK    4  A    between atoms: N_12  and  N_13 
ROOT
HETATM    1  C   UNL     1       5.345  27.446  55.079  1.00  0.00     0.289 C 
HETATM    2  N   UNL     1       6.023  27.900  56.198  1.00  0.00    -0.241 N 
HETATM    3  O   UNL     1       4.413  28.045  54.547  1.00  0.00    -0.264 OA
HETATM    4  H   UNL     1       6.777  27.349  56.607  1.00  0.00     0.192 HD
ENDROOT
BRANCH   1   5
HETATM    5  C   UNL     1       5.810  26.184  54.560  1.00  0.00     0.121 A 
HETATM    6  N   UNL     1       5.523  25.800  53.281  1.00  0.00    -0.272 N 
HETATM    7  N   UNL     1       6.014  24.600  52.942  1.00  0.00    -0.174 NA
HETATM    8  H   UNL     1       4.988  26.327  52.597  1.00  0.00     0.189 HD
HETATM    9  C   UNL     1       6.670  24.178  54.035  1.00  0.00     0.089 A 
HETATM   10  C   UNL     1       6.557  25.144  55.078  1.00  0.00     0.071 A 
BRANCH   9  11
HETATM   11  C   UNL     1       7.368  22.886  54.059  1.00  0.00    -0.003 A 
HETATM   12  C   UNL     1       7.717  22.294  55.287  1.00  0.00     0.050 A 
HETATM   13  C   UNL     1       8.379  21.065  55.330  1.00  0.00     0.069 A 
HETATM   14  C   UNL     1       8.699  20.419  54.135  1.00  0.00     0.037 A 
HETATM   15  C   UNL     1       8.358  20.988  52.910  1.00  0.00     0.004 A 
HETATM   16  C   UNL     1       7.694  22.216  52.871  1.00  0.00     0.014 A 
BRANCH  13  17
HETATM   17  O   UNL     1       8.766  20.399  56.462  1.00  0.00    -0.356 OA
HETATM   18  C   UNL     1       8.532  21.055  57.702  1.00  0.00     0.210 C 
ENDBRANCH  13  17
ENDBRANCH   9  11
ENDBRANCH   1   5
BRANCH   2  19
HETATM   19  N   UNL     1       5.682  29.089  56.782  1.00  0.00    -0.165 NA
HETATM   20  C   UNL     1       6.511  29.563  57.656  1.00  0.00     0.157 A 
HETATM   21  C   UNL     1       7.836  28.964  58.134  1.00  0.00     0.277 A 
HETATM   22  C   UNL     1       6.346  30.809  58.395  1.00  0.00     0.027 A 
HETATM   23  O   UNL     1       8.307  27.921  57.730  1.00  0.00    -0.266 OA
HETATM   24  N   UNL     1       8.324  29.847  59.073  1.00  0.00    -0.321 N 
HETATM   25  C   UNL     1       7.459  30.927  59.227  1.00  0.00     0.048 A 
HETATM   26  H   UNL     1       9.195  29.712  59.566  1.00  0.00     0.169 HD
HETATM   27  C   UNL     1       7.609  32.009  60.068  1.00  0.00     0.030 A 
HETATM   28  C   UNL     1       6.601  32.982  60.049  1.00  0.00     0.002 A 
HETATM   29  C   UNL     1       5.479  32.855  59.203  1.00  0.00     0.001 A 
HETATM   30  C   UNL     1       5.341  31.753  58.357  1.00  0.00     0.016 A 
ENDBRANCH   2  19
TORSDOF 4
ENDMDL
MODEL 8
REMARK VINA RESULT:      -8.8      2.824      9.896
REMARK  4 active torsions:
REMARK  status: ('A' for Active; 'I' for Inactive)
REMARK    1  A    between atoms: O_2  and  C_3 
REMARK    2  A    between atoms: C_5  and  C_6 
REMARK    3  A    between atoms: C_10  and  C_11 
REMARK       I    between atoms: C_11  and  N_12 
REMARK    4  A    between atoms: N_12  and  N_13 
ROOT
HETATM    1  C   UNL     1       7.592  31.574  59.849  1.00  0.00     0.289 C 
HETATM    2  N   UNL     1       6.981  31.143  61.014  1.00  0.00    -0.241 N 
HETATM    3  O   UNL     1       8.367  32.526  59.787  1.00  0.00    -0.264 OA
HETATM    4  H   UNL     1       6.331  30.358  61.000  1.00  0.00     0.192 HD
ENDROOT
BRANCH   1   5
HETATM    5  C   UNL     1       7.252  30.815  58.671  1.00  0.00     0.121 A 
HETATM    6  N   UNL     1       6.351  31.293  57.762  1.00  0.00    -0.272 N 
HETATM    7  N   UNL     1       6.129  30.475  56.724  1.00  0.00    -0.174 NA
HETATM    8  H   UNL     1       5.856  32.178  57.809  1.00  0.00     0.189 HD
HETATM    9  C   UNL     1       6.929  29.419  56.943  1.00  0.00     0.089 A 
HETATM   10  C   UNL     1       7.646  29.593  58.163  1.00  0.00     0.071 A 
BRANCH   9  11
HETATM   11  C   UNL     1       6.984  28.291  56.004  1.00  0.00    -0.003 A 
HETATM   12  C   UNL     1       6.582  28.466  54.667  1.00  0.00     0.050 A 
HETATM   13  C   UNL     1       6.628  27.406  53.757  1.00  0.00     0.069 A 
HETATM   14  C   UNL     1       7.080  26.157  54.187  1.00  0.00     0.037 A 
HETATM   15  C   UNL     1       7.486  25.967  55.506  1.00  0.00     0.004 A 
HETATM   16  C   UNL     1       7.439  27.029  56.411  1.00  0.00     0.014 A 
BRANCH  13  17
HETATM   17  O   UNL     1       6.263  27.460  52.439  1.00  0.00    -0.356 OA
HETATM   18  C   UNL     1       5.492  26.372  51.944  1.00  0.00     0.210 C 
ENDBRANCH  13  17
ENDBRANCH   9  11
ENDBRANCH   1   5
BRANCH   2  19
HETATM   19  N   UNL     1       7.227  31.776  62.202  1.00  0.00    -0.165 NA
HETATM   20  C   UNL     1       6.202  32.273  62.816  1.00  0.00     0.157 A 
HETATM   21  C   UNL     1       4.732  32.255  62.385  1.00  0.00     0.277 A 
HETATM   22  C   UNL     1       6.235  32.983  64.089  1.00  0.00     0.027 A 
HETATM   23  O   UNL     1       4.319  31.738  61.367  1.00  0.00    -0.266 OA
HETATM   24  N   UNL     1       4.048  32.924  63.375  1.00  0.00    -0.321 N 
HETATM   25  C   UNL     1       4.921  33.350  64.374  1.00  0.00     0.048 A 
HETATM   26  H   UNL     1       3.049  33.071  63.361  1.00  0.00     0.169 HD
HETATM   27  C   UNL     1       4.607  34.045  65.522  1.00  0.00     0.030 A 
HETATM   28  C   UNL     1       5.661  34.365  66.388  1.00  0.00     0.002 A 
HETATM   29  C   UNL     1       6.988  33.989  66.092  1.00  0.00     0.001 A 
HETATM   30  C   UNL     1       7.290  33.285  64.924  1.00  0.00     0.016 A 
ENDBRANCH   2  19
TORSDOF 4
ENDMDL
MODEL 9
REMARK VINA RESULT:      -8.8      2.982      4.240
REMARK  4 active torsions:
REMARK  status: ('A' for Active; 'I' for Inactive)
REMARK    1  A    between atoms: O_2  and  C_3 
REMARK    2  A    between atoms: C_5  and  C_6 
REMARK    3  A    between atoms: C_10  and  C_11 
REMARK       I    between atoms: C_11  and  N_12 
REMARK    4  A    between atoms: N_12  and  N_13 
ROOT
HETATM    1  C   UNL     1       7.520  26.644  57.316  1.00  0.00     0.289 C 
HETATM    2  N   UNL     1       6.598  25.750  56.798  1.00  0.00    -0.241 N 
HETATM    3  O   UNL     1       8.664  26.342  57.646  1.00  0.00    -0.264 OA
HETATM    4  H   UNL     1       5.655  26.055  56.559  1.00  0.00     0.192 HD
ENDROOT
BRANCH   1   5
HETATM    5  C   UNL     1       7.039  27.996  57.453  1.00  0.00     0.121 A 
HETATM    6  N   UNL     1       7.731  28.919  58.185  1.00  0.00    -0.272 N 
HETATM    7  N   UNL     1       7.159  30.130  58.230  1.00  0.00    -0.174 NA
HETATM    8  H   UNL     1       8.605  28.767  58.679  1.00  0.00     0.189 HD
HETATM    9  C   UNL     1       6.050  30.012  57.482  1.00  0.00     0.089 A 
HETATM   10  C   UNL     1       5.935  28.681  56.982  1.00  0.00     0.071 A 
BRANCH   9  11
HETATM   11  C   UNL     1       5.143  31.148  57.271  1.00  0.00    -0.003 A 
HETATM   12  C   UNL     1       4.474  31.729  58.365  1.00  0.00     0.050 A 
HETATM   13  C   UNL     1       3.609  32.811  58.186  1.00  0.00     0.069 A 
HETATM   14  C   UNL     1       3.408  33.319  56.902  1.00  0.00     0.037 A 
HETATM   15  C   UNL     1       4.064  32.759  55.808  1.00  0.00     0.004 A 
HETATM   16  C   UNL     1       4.930  31.678  55.991  1.00  0.00     0.014 A 
BRANCH  13  17
HETATM   17  O   UNL     1       2.908  33.452  59.172  1.00  0.00    -0.356 OA
HETATM   18  C   UNL     1       3.595  33.687  60.395  1.00  0.00     0.210 C 
ENDBRANCH  13  17
ENDBRANCH   9  11
ENDBRANCH   1   5
BRANCH   2  19
HETATM   19  N   UNL     1       6.934  24.437  56.611  1.00  0.00    -0.165 NA
HETATM   20  C   UNL     1       7.142  24.060  55.391  1.00  0.00     0.157 A 
HETATM   21  C   UNL     1       7.058  24.894  54.109  1.00  0.00     0.277 A 
HETATM   22  C   UNL     1       7.509  22.714  54.968  1.00  0.00     0.027 A 
HETATM   23  O   UNL     1       6.781  26.075  54.072  1.00  0.00    -0.266 OA
HETATM   24  N   UNL     1       7.357  24.026  53.082  1.00  0.00    -0.321 N 
HETATM   25  C   UNL     1       7.624  22.752  53.579  1.00  0.00     0.048 A 
HETATM   26  H   UNL     1       7.379  24.298  52.110  1.00  0.00     0.169 HD
HETATM   27  C   UNL     1       7.963  21.625  52.860  1.00  0.00     0.030 A 
HETATM   28  C   UNL     1       8.188  20.446  53.582  1.00  0.00     0.002 A 
HETATM   29  C   UNL     1       8.071  20.417  54.988  1.00  0.00     0.001 A 
HETATM   30  C   UNL     1       7.726  21.567  55.702  1.00  0.00     0.016 A 
ENDBRANCH   2  19
TORSDOF 4
ENDMDL
MODEL 10
REMARK VINA RESULT:      -8.8      1.748      2.055
REMARK  4 active torsions:
REMARK  status: ('A' for Active; 'I' for Inactive)
REMARK    1  A    between atoms: O_2  and  C_3 
REMARK    2  A    between atoms: C_5  and  C_6 
REMARK    3  A    between atoms: C_10  and  C_11 
REMARK       I    between atoms: C_11  and  N_12 
REMARK    4  A    between atoms: N_12  and  N_13 
ROOT
HETATM    1  C   UNL     1       6.674  30.820  57.411  1.00  0.00     0.289 C 
HETATM    2  N   UNL     1       7.477  29.774  56.990  1.00  0.00    -0.241 N 
HETATM    3  O   UNL     1       5.703  31.240  56.785  1.00  0.00    -0.264 OA
HETATM    4  H   UNL     1       8.282  29.482  57.543  1.00  0.00     0.192 HD
ENDROOT
BRANCH   1   5
HETATM    5  C   UNL     1       7.060  31.412  58.667  1.00  0.00     0.121 A 
HETATM    6  N   UNL     1       8.377  31.592  58.986  1.00  0.00    -0.272 N 
HETATM    7  N   UNL     1       8.582  32.145  60.189  1.00  0.00    -0.174 NA
HETATM    8  H   UNL     1       9.177  31.347  58.411  1.00  0.00     0.189 HD
HETATM    9  C   UNL     1       7.352  32.358  60.682  1.00  0.00     0.089 A 
HETATM   10  C   UNL     1       6.367  31.903  59.757  1.00  0.00     0.071 A 
BRANCH   9  11
HETATM   11  C   UNL     1       7.150  32.974  62.001  1.00  0.00    -0.003 A 
HETATM   12  C   UNL     1       6.282  34.072  62.142  1.00  0.00     0.050 A 
HETATM   13  C   UNL     1       6.075  34.670  63.387  1.00  0.00     0.069 A 
HETATM   14  C   UNL     1       6.744  34.168  64.505  1.00  0.00     0.037 A 
HETATM   15  C   UNL     1       7.605  33.080  64.385  1.00  0.00     0.004 A 
HETATM   16  C   UNL     1       7.807  32.483  63.138  1.00  0.00     0.014 A 
BRANCH  13  17
HETATM   17  O   UNL     1       5.258  35.738  63.641  1.00  0.00    -0.356 OA
HETATM   18  C   UNL     1       5.694  37.005  63.163  1.00  0.00     0.210 C 
ENDBRANCH  13  17
ENDBRANCH   9  11
ENDBRANCH   1   5
BRANCH   2  19
HETATM   19  N   UNL     1       7.212  29.123  55.816  1.00  0.00    -0.165 NA
HETATM   20  C   UNL     1       7.344  27.835  55.825  1.00  0.00     0.157 A 
HETATM   21  C   UNL     1       7.768  26.930  56.986  1.00  0.00     0.277 A 
HETATM   22  C   UNL     1       7.113  26.949  54.691  1.00  0.00     0.027 A 
HETATM   23  O   UNL     1       8.038  27.321  58.102  1.00  0.00    -0.266 OA
HETATM   24  N   UNL     1       7.763  25.650  56.476  1.00  0.00    -0.321 N 
HETATM   25  C   UNL     1       7.379  25.655  55.137  1.00  0.00     0.048 A 
HETATM   26  H   UNL     1       8.004  24.833  57.019  1.00  0.00     0.169 HD
HETATM   27  C   UNL     1       7.254  24.571  54.296  1.00  0.00     0.030 A 
HETATM   28  C   UNL     1       6.848  24.822  52.979  1.00  0.00     0.002 A 
HETATM   29  C   UNL     1       6.579  26.135  52.536  1.00  0.00     0.001 A 
HETATM   30  C   UNL     1       6.712  27.224  53.400  1.00  0.00     0.016 A 
ENDBRANCH   2  19
TORSDOF 4
ENDMDL
