MODEL 1
REMARK VINA RESULT:     -10.8      0.000      0.000
REMARK  6 active torsions:
REMARK  status: ('A' for Active; 'I' for Inactive)
REMARK    1  A    between atoms: C_2  and  O_3 
REMARK    2  A    between atoms: C_2  and  C_4 
REMARK    3  A    between atoms: C_6  and  N_7 
REMARK       I    between atoms: N_7  and  C_8 
REMARK    4  A    between atoms: C_8  and  C_9 
REMARK    5  A    between atoms: C_14  and  C_15 
REMARK    6  A    between atoms: C_21  and  C_22 
ROOT
HETATM    1  C   UNL     1       7.125  27.392  56.800  1.00  0.00     0.148 A 
HETATM    2  N   UNL     1       8.413  27.765  56.976  1.00  0.00    -0.165 NA
HETATM    3  N   UNL     1       8.319  28.959  57.587  1.00  0.00    -0.240 N 
HETATM    4  C   UNL     1       7.031  29.327  57.876  1.00  0.00     0.123 A 
HETATM    5  N   UNL     1       6.751  30.487  58.508  1.00  0.00    -0.364 N 
HETATM    6  C   UNL     1       7.808  31.326  59.073  1.00  0.00     0.143 C 
HETATM    7  C   UNL     1       9.080  31.200  58.220  1.00  0.00     0.068 C 
HETATM    8  C   UNL     1       9.482  29.728  58.001  1.00  0.00     0.221 C 
HETATM    9  C   UNL     1       6.233  28.331  57.382  1.00  0.00     0.089 A 
HETATM   10  H   UNL     1       5.816  30.668  58.872  1.00  0.00     0.162 HD
ENDROOT
BRANCH   1  11
HETATM   11  C   UNL     1       6.756  26.166  56.067  1.00  0.00     0.276 C 
HETATM   12  N   UNL     1       7.865  25.425  55.707  1.00  0.00    -0.322 N 
HETATM   13  H   UNL     1       8.741  25.820  56.040  1.00  0.00     0.169 HD
HETATM   14  O   UNL     1       5.584  25.902  55.821  1.00  0.00    -0.266 OA
BRANCH  12  15
HETATM   15  C   UNL     1       7.920  24.254  54.931  1.00  0.00     0.035 A 
HETATM   16  C   UNL     1       7.975  22.966  55.470  1.00  0.00     0.039 A 
HETATM   17  C   UNL     1       8.004  21.832  54.640  1.00  0.00    -0.028 A 
HETATM   18  C   UNL     1       7.993  22.009  53.250  1.00  0.00     0.010 A 
HETATM   19  C   UNL     1       7.938  23.290  52.703  1.00  0.00     0.003 A 
HETATM   20  C   UNL     1       7.899  24.406  53.540  1.00  0.00     0.029 A 
BRANCH  17  21
HETATM   21  C   UNL     1       8.063  20.449  55.253  1.00  0.00     0.147 C 
HETATM   22  C   UNL     1       8.669  20.462  56.648  1.00  0.00     0.044 C 
BRANCH  21  23
HETATM   23  O   UNL     1       8.830  19.575  54.425  1.00  0.00    -0.391 OA
HETATM   24  H   UNL     1       9.746  19.903  54.448  1.00  0.00     0.210 HD
ENDBRANCH  21  23
ENDBRANCH  17  21
ENDBRANCH  12  15
ENDBRANCH   1  11
BRANCH   8  25
HETATM   25  C   UNL     1      10.610  29.650  56.997  1.00  0.00     0.409 C 
HETATM   26  F   UNL     1      11.133  28.410  56.876  1.00  0.00    -0.169 F 
HETATM   27  F   UNL     1      10.242  30.077  55.768  1.00  0.00    -0.169 F 
HETATM   28  F   UNL     1      11.634  30.452  57.394  1.00  0.00    -0.169 F 
ENDBRANCH   8  25
BRANCH   6  29
HETATM   29  C   UNL     1       8.095  31.085  60.522  1.00  0.00     0.075 A 
HETATM   30  O   UNL     1       7.177  31.578  61.405  1.00  0.00    -0.325 OA
HETATM   31  C   UNL     1       7.604  31.249  62.651  1.00  0.00     0.142 A 
HETATM   32  C   UNL     1       8.791  30.558  62.585  1.00  0.00     0.027 A 
HETATM   33  C   UNL     1       9.111  30.451  61.210  1.00  0.00     0.037 A 
ENDBRANCH   6  29
TORSDOF 6
ENDMDL
MODEL 2
REMARK VINA RESULT:      -9.8      1.095      1.967
REMARK  6 active torsions:
REMARK  status: ('A' for Active; 'I' for Inactive)
REMARK    1  A    between atoms: C_2  and  O_3 
REMARK    2  A    between atoms: C_2  and  C_4 
REMARK    3  A    between atoms: C_6  and  N_7 
REMARK       I    between atoms: N_7  and  C_8 
REMARK    4  A    between atoms: C_8  and  C_9 
REMARK    5  A    between atoms: C_14  and  C_15 
REMARK    6  A    between atoms: C_21  and  C_22 
ROOT
HETATM    1  C   UNL     1       7.497  27.296  56.916  1.00  0.00     0.148 A 
HETATM    2  N   UNL     1       8.745  27.788  57.087  1.00  0.00    -0.165 NA
HETATM    3  N   UNL     1       8.540  28.985  57.666  1.00  0.00    -0.240 N 
HETATM    4  C   UNL     1       7.222  29.243  57.940  1.00  0.00     0.123 A 
HETATM    5  N   UNL     1       6.834  30.389  58.538  1.00  0.00    -0.364 N 
HETATM    6  C   UNL     1       7.808  31.334  59.085  1.00  0.00     0.143 C 
HETATM    7  C   UNL     1       9.091  31.302  58.240  1.00  0.00     0.068 C 
HETATM    8  C   UNL     1       9.626  29.866  58.063  1.00  0.00     0.221 C 
HETATM    9  C   UNL     1       6.520  28.166  57.470  1.00  0.00     0.089 A 
HETATM   10  H   UNL     1       5.885  30.494  58.893  1.00  0.00     0.162 HD
ENDROOT
BRANCH   1  11
HETATM   11  C   UNL     1       7.243  26.022  56.216  1.00  0.00     0.276 C 
HETATM   12  N   UNL     1       7.926  24.970  56.794  1.00  0.00    -0.322 N 
HETATM   13  H   UNL     1       8.451  25.236  57.625  1.00  0.00     0.169 HD
HETATM   14  O   UNL     1       6.517  25.973  55.230  1.00  0.00    -0.266 OA
BRANCH  12  15
HETATM   15  C   UNL     1       8.006  23.636  56.360  1.00  0.00     0.035 A 
HETATM   16  C   UNL     1       7.805  23.236  55.036  1.00  0.00     0.039 A 
HETATM   17  C   UNL     1       7.922  21.886  54.659  1.00  0.00    -0.028 A 
HETATM   18  C   UNL     1       8.231  20.933  55.639  1.00  0.00     0.010 A 
HETATM   19  C   UNL     1       8.433  21.322  56.962  1.00  0.00     0.003 A 
HETATM   20  C   UNL     1       8.324  22.667  57.319  1.00  0.00     0.029 A 
BRANCH  17  21
HETATM   21  C   UNL     1       7.699  21.484  53.217  1.00  0.00     0.147 C 
HETATM   22  C   UNL     1       8.590  20.324  52.797  1.00  0.00     0.044 C 
BRANCH  21  23
HETATM   23  O   UNL     1       7.948  22.592  52.352  1.00  0.00    -0.391 OA
HETATM   24  H   UNL     1       8.553  22.275  51.659  1.00  0.00     0.210 HD
ENDBRANCH  21  23
ENDBRANCH  17  21
ENDBRANCH  12  15
ENDBRANCH   1  11
BRANCH   8  25
HETATM   25  C   UNL     1      10.763  29.863  57.066  1.00  0.00     0.409 C 
HETATM   26  F   UNL     1      10.396  30.287  55.837  1.00  0.00    -0.169 F 
HETATM   27  F   UNL     1      11.814  30.609  57.475  1.00  0.00    -0.169 F 
HETATM   28  F   UNL     1      11.227  28.595  56.903  1.00  0.00    -0.169 F 
ENDBRANCH   8  25
BRANCH   6  29
HETATM   29  C   UNL     1       8.106  31.160  60.541  1.00  0.00     0.075 A 
HETATM   30  O   UNL     1       9.060  30.232  60.850  1.00  0.00    -0.325 OA
HETATM   31  C   UNL     1       9.196  30.234  62.200  1.00  0.00     0.142 A 
HETATM   32  C   UNL     1       8.336  31.143  62.769  1.00  0.00     0.027 A 
HETATM   33  C   UNL     1       7.630  31.743  61.698  1.00  0.00     0.037 A 
ENDBRANCH   6  29
TORSDOF 6
ENDMDL
MODEL 3
REMARK VINA RESULT:      -9.5      3.573      9.070
REMARK  6 active torsions:
REMARK  status: ('A' for Active; 'I' for Inactive)
REMARK    1  A    between atoms: C_2  and  O_3 
REMARK    2  A    between atoms: C_2  and  C_4 
REMARK    3  A    between atoms: C_6  and  N_7 
REMARK       I    between atoms: N_7  and  C_8 
REMARK    4  A    between atoms: C_8  and  C_9 
REMARK    5  A    between atoms: C_14  and  C_15 
REMARK    6  A    between atoms: C_21  and  C_22 
ROOT
HETATM    1  C   UNL     1       6.713  27.912  56.335  1.00  0.00     0.148 A 
HETATM    2  N   UNL     1       7.212  26.911  55.575  1.00  0.00    -0.165 NA
HETATM    3  N   UNL     1       6.259  26.709  54.647  1.00  0.00    -0.240 N 
HETATM    4  C   UNL     1       5.212  27.589  54.736  1.00  0.00     0.123 A 
HETATM    5  N   UNL     1       4.176  27.546  53.872  1.00  0.00    -0.364 N 
HETATM    6  C   UNL     1       4.198  26.680  52.693  1.00  0.00     0.143 C 
HETATM    7  C   UNL     1       4.997  25.404  53.003  1.00  0.00     0.068 C 
HETATM    8  C   UNL     1       6.388  25.725  53.585  1.00  0.00     0.221 C 
HETATM    9  C   UNL     1       5.477  28.384  55.818  1.00  0.00     0.089 A 
HETATM   10  H   UNL     1       3.497  28.305  53.837  1.00  0.00     0.162 HD
ENDROOT
BRANCH   1  11
HETATM   11  C   UNL     1       7.401  28.395  57.548  1.00  0.00     0.276 C 
HETATM   12  N   UNL     1       7.338  29.770  57.664  1.00  0.00    -0.322 N 
HETATM   13  H   UNL     1       6.798  30.215  56.925  1.00  0.00     0.169 HD
HETATM   14  O   UNL     1       7.959  27.618  58.313  1.00  0.00    -0.266 OA
BRANCH  12  15
HETATM   15  C   UNL     1       7.945  30.594  58.627  1.00  0.00     0.035 A 
HETATM   16  C   UNL     1       7.301  31.043  59.784  1.00  0.00     0.039 A 
HETATM   17  C   UNL     1       7.971  31.847  60.723  1.00  0.00    -0.028 A 
HETATM   18  C   UNL     1       9.301  32.211  60.477  1.00  0.00     0.010 A 
HETATM   19  C   UNL     1       9.952  31.769  59.326  1.00  0.00     0.003 A 
HETATM   20  C   UNL     1       9.278  30.962  58.409  1.00  0.00     0.029 A 
BRANCH  17  21
HETATM   21  C   UNL     1       7.246  32.316  61.967  1.00  0.00     0.147 C 
HETATM   22  C   UNL     1       8.165  32.388  63.177  1.00  0.00     0.044 C 
BRANCH  21  23
HETATM   23  O   UNL     1       6.160  31.439  62.265  1.00  0.00    -0.391 OA
HETATM   24  H   UNL     1       5.420  32.000  62.556  1.00  0.00     0.210 HD
ENDBRANCH  21  23
ENDBRANCH  17  21
ENDBRANCH  12  15
ENDBRANCH   1  11
BRANCH   8  25
HETATM   25  C   UNL     1       7.050  24.450  54.058  1.00  0.00     0.409 C 
HETATM   26  F   UNL     1       8.389  24.563  54.195  1.00  0.00    -0.169 F 
HETATM   27  F   UNL     1       6.540  24.004  55.229  1.00  0.00    -0.169 F 
HETATM   28  F   UNL     1       6.848  23.462  53.146  1.00  0.00    -0.169 F 
ENDBRANCH   8  25
BRANCH   6  29
HETATM   29  C   UNL     1       4.680  27.337  51.438  1.00  0.00     0.075 A 
HETATM   30  O   UNL     1       5.018  28.656  51.544  1.00  0.00    -0.325 OA
HETATM   31  C   UNL     1       5.441  29.060  50.319  1.00  0.00     0.142 A 
HETATM   32  C   UNL     1       5.371  28.022  49.421  1.00  0.00     0.027 A 
HETATM   33  C   UNL     1       4.880  26.907  50.142  1.00  0.00     0.037 A 
ENDBRANCH   6  29
TORSDOF 6
ENDMDL
MODEL 4
REMARK VINA RESULT:      -9.4      2.258      2.854
REMARK  6 active torsions:
REMARK  status: ('A' for Active; 'I' for Inactive)
REMARK    1  A    between atoms: C_2  and  O_3 
REMARK    2  A    between atoms: C_2  and  C_4 
REMARK    3  A    between atoms: C_6  and  N_7 
REMARK       I    between atoms: N_7  and  C_8 
REMARK    4  A    between atoms: C_8  and  C_9 
REMARK    5  A    between atoms: C_14  and  C_15 
REMARK    6  A    between atoms: C_21  and  C_22 
ROOT
HETATM    1  C   UNL     1       7.462  28.327  57.402  1.00  0.00     0.148 A 
HETATM    2  N   UNL     1       8.076  28.827  58.498  1.00  0.00    -0.165 NA
HETATM    3  N   UNL     1       7.509  30.036  58.659  1.00  0.00    -0.240 N 
HETATM    4  C   UNL     1       6.508  30.295  57.760  1.00  0.00     0.123 A 
HETATM    5  N   UNL     1       5.814  31.454  57.787  1.00  0.00    -0.364 N 
HETATM    6  C   UNL     1       5.971  32.414  58.880  1.00  0.00     0.143 C 
HETATM    7  C   UNL     1       7.413  32.366  59.408  1.00  0.00     0.068 C 
HETATM    8  C   UNL     1       7.851  30.929  59.754  1.00  0.00     0.221 C 
HETATM    9  C   UNL     1       6.449  29.206  56.934  1.00  0.00     0.089 A 
HETATM   10  H   UNL     1       4.965  31.564  57.235  1.00  0.00     0.162 HD
ENDROOT
BRANCH   1  11
HETATM   11  C   UNL     1       7.853  27.038  56.801  1.00  0.00     0.276 C 
HETATM   12  N   UNL     1       7.521  26.970  55.462  1.00  0.00    -0.322 N 
HETATM   13  H   UNL     1       7.106  27.827  55.104  1.00  0.00     0.169 HD
HETATM   14  O   UNL     1       8.389  26.162  57.471  1.00  0.00    -0.266 OA
BRANCH  12  15
HETATM   15  C   UNL     1       7.652  25.881  54.583  1.00  0.00     0.035 A 
HETATM   16  C   UNL     1       7.880  24.567  55.002  1.00  0.00     0.039 A 
HETATM   17  C   UNL     1       7.977  23.515  54.074  1.00  0.00    -0.028 A 
HETATM   18  C   UNL     1       7.860  23.804  52.708  1.00  0.00     0.010 A 
HETATM   19  C   UNL     1       7.633  25.111  52.280  1.00  0.00     0.003 A 
HETATM   20  C   UNL     1       7.527  26.142  53.214  1.00  0.00     0.029 A 
BRANCH  17  21
HETATM   21  C   UNL     1       8.223  22.102  54.559  1.00  0.00     0.147 C 
HETATM   22  C   UNL     1       7.925  21.065  53.486  1.00  0.00     0.044 C 
BRANCH  21  23
HETATM   23  O   UNL     1       7.415  21.826  55.703  1.00  0.00    -0.391 OA
HETATM   24  H   UNL     1       6.772  22.553  55.772  1.00  0.00     0.210 HD
ENDBRANCH  21  23
ENDBRANCH  17  21
ENDBRANCH  12  15
ENDBRANCH   1  11
BRANCH   8  25
HETATM   25  C   UNL     1       9.329  30.908  60.073  1.00  0.00     0.409 C 
HETATM   26  F   UNL     1       9.633  30.146  61.147  1.00  0.00    -0.169 F 
HETATM   27  F   UNL     1      10.080  30.488  59.029  1.00  0.00    -0.169 F 
HETATM   28  F   UNL     1       9.752  32.165  60.373  1.00  0.00    -0.169 F 
ENDBRANCH   8  25
BRANCH   6  29
HETATM   29  C   UNL     1       4.977  32.273  59.990  1.00  0.00     0.075 A 
HETATM   30  O   UNL     1       5.428  32.585  61.241  1.00  0.00    -0.325 OA
HETATM   31  C   UNL     1       4.388  32.410  62.096  1.00  0.00     0.142 A 
HETATM   32  C   UNL     1       3.274  31.979  61.415  1.00  0.00     0.027 A 
HETATM   33  C   UNL     1       3.652  31.890  60.054  1.00  0.00     0.037 A 
ENDBRANCH   6  29
TORSDOF 6
ENDMDL
MODEL 5
REMARK VINA RESULT:      -9.3      3.123      9.788
REMARK  6 active torsions:
REMARK  status: ('A' for Active; 'I' for Inactive)
REMARK    1  A    between atoms: C_2  and  O_3 
REMARK    2  A    between atoms: C_2  and  C_4 
REMARK    3  A    between atoms: C_6  and  N_7 
REMARK       I    between atoms: N_7  and  C_8 
REMARK    4  A    between atoms: C_8  and  C_9 
REMARK    5  A    between atoms: C_14  and  C_15 
REMARK    6  A    between atoms: C_21  and  C_22 
ROOT
HETATM    1  C   UNL     1       7.762  30.740  58.436  1.00  0.00     0.148 A 
HETATM    2  N   UNL     1       6.524  30.420  57.997  1.00  0.00    -0.165 NA
HETATM    3  N   UNL     1       6.757  29.623  56.939  1.00  0.00    -0.240 N 
HETATM    4  C   UNL     1       8.086  29.361  56.732  1.00  0.00     0.123 A 
HETATM    5  N   UNL     1       8.503  28.563  55.725  1.00  0.00    -0.364 N 
HETATM    6  C   UNL     1       7.556  27.796  54.916  1.00  0.00     0.143 C 
HETATM    7  C   UNL     1       6.236  28.572  54.788  1.00  0.00     0.068 C 
HETATM    8  C   UNL     1       5.692  29.010  56.163  1.00  0.00     0.221 C 
HETATM    9  C   UNL     1       8.765  30.068  57.688  1.00  0.00     0.089 A 
HETATM   10  H   UNL     1       9.467  28.236  55.687  1.00  0.00     0.162 HD
ENDROOT
BRANCH   1  11
HETATM   11  C   UNL     1       7.982  31.692  59.542  1.00  0.00     0.276 C 
HETATM   12  N   UNL     1       7.155  31.433  60.618  1.00  0.00    -0.322 N 
HETATM   13  H   UNL     1       6.569  30.611  60.490  1.00  0.00     0.169 HD
HETATM   14  O   UNL     1       8.802  32.598  59.447  1.00  0.00    -0.266 OA
BRANCH  12  15
HETATM   15  C   UNL     1       7.011  32.169  61.807  1.00  0.00     0.035 A 
HETATM   16  C   UNL     1       5.866  32.900  62.135  1.00  0.00     0.039 A 
HETATM   17  C   UNL     1       5.772  33.597  63.352  1.00  0.00    -0.028 A 
HETATM   18  C   UNL     1       6.859  33.564  64.237  1.00  0.00     0.010 A 
HETATM   19  C   UNL     1       8.005  32.838  63.919  1.00  0.00     0.003 A 
HETATM   20  C   UNL     1       8.079  32.142  62.712  1.00  0.00     0.029 A 
BRANCH  17  21
HETATM   21  C   UNL     1       4.518  34.379  63.680  1.00  0.00     0.147 C 
HETATM   22  C   UNL     1       4.824  35.810  64.095  1.00  0.00     0.044 C 
BRANCH  21  23
HETATM   23  O   UNL     1       3.798  33.737  64.732  1.00  0.00    -0.391 OA
HETATM   24  H   UNL     1       2.853  33.892  64.558  1.00  0.00     0.210 HD
ENDBRANCH  21  23
ENDBRANCH  17  21
ENDBRANCH  12  15
ENDBRANCH   1  11
BRANCH   8  25
HETATM   25  C   UNL     1       4.511  29.936  55.974  1.00  0.00     0.409 C 
HETATM   26  F   UNL     1       3.668  29.948  57.029  1.00  0.00    -0.169 F 
HETATM   27  F   UNL     1       4.886  31.209  55.716  1.00  0.00    -0.169 F 
HETATM   28  F   UNL     1       3.773  29.527  54.907  1.00  0.00    -0.169 F 
ENDBRANCH   8  25
BRANCH   6  29
HETATM   29  C   UNL     1       7.323  26.393  55.380  1.00  0.00     0.075 A 
HETATM   30  O   UNL     1       6.721  25.557  54.483  1.00  0.00    -0.325 OA
HETATM   31  C   UNL     1       6.613  24.342  55.079  1.00  0.00     0.142 A 
HETATM   32  C   UNL     1       7.127  24.385  56.353  1.00  0.00     0.027 A 
HETATM   33  C   UNL     1       7.587  25.709  56.551  1.00  0.00     0.037 A 
ENDBRANCH   6  29
TORSDOF 6
ENDMDL
MODEL 6
REMARK VINA RESULT:      -9.2      6.600      8.592
REMARK  6 active torsions:
REMARK  status: ('A' for Active; 'I' for Inactive)
REMARK    1  A    between atoms: C_2  and  O_3 
REMARK    2  A    between atoms: C_2  and  C_4 
REMARK    3  A    between atoms: C_6  and  N_7 
REMARK       I    between atoms: N_7  and  C_8 
REMARK    4  A    between atoms: C_8  and  C_9 
REMARK    5  A    between atoms: C_14  and  C_15 
REMARK    6  A    between atoms: C_21  and  C_22 
ROOT
HETATM    1  C   UNL     1       5.794  26.451  51.804  1.00  0.00     0.148 A 
HETATM    2  N   UNL     1       5.544  26.456  50.475  1.00  0.00    -0.165 NA
HETATM    3  N   UNL     1       4.482  27.273  50.354  1.00  0.00    -0.240 N 
HETATM    4  C   UNL     1       4.094  27.847  51.536  1.00  0.00     0.123 A 
HETATM    5  N   UNL     1       3.058  28.711  51.598  1.00  0.00    -0.364 N 
HETATM    6  C   UNL     1       2.410  29.216  50.388  1.00  0.00     0.143 C 
HETATM    7  C   UNL     1       2.453  28.140  49.290  1.00  0.00     0.068 C 
HETATM    8  C   UNL     1       3.880  27.600  49.071  1.00  0.00     0.221 C 
HETATM    9  C   UNL     1       4.927  27.338  52.495  1.00  0.00     0.089 A 
HETATM   10  H   UNL     1       2.891  29.262  52.439  1.00  0.00     0.162 HD
ENDROOT
BRANCH   1  11
HETATM   11  C   UNL     1       6.835  25.593  52.403  1.00  0.00     0.276 C 
HETATM   12  N   UNL     1       6.317  24.748  53.365  1.00  0.00    -0.322 N 
HETATM   13  H   UNL     1       5.308  24.824  53.470  1.00  0.00     0.169 HD
HETATM   14  O   UNL     1       8.008  25.683  52.058  1.00  0.00    -0.266 OA
BRANCH  12  15
HETATM   15  C   UNL     1       7.004  23.858  54.208  1.00  0.00     0.035 A 
HETATM   16  C   UNL     1       7.627  22.688  53.762  1.00  0.00     0.039 A 
HETATM   17  C   UNL     1       8.320  21.849  54.652  1.00  0.00    -0.028 A 
HETATM   18  C   UNL     1       8.368  22.194  56.009  1.00  0.00     0.010 A 
HETATM   19  C   UNL     1       7.751  23.358  56.464  1.00  0.00     0.003 A 
HETATM   20  C   UNL     1       7.076  24.186  55.566  1.00  0.00     0.029 A 
BRANCH  17  21
HETATM   21  C   UNL     1       8.985  20.590  54.138  1.00  0.00     0.147 C 
HETATM   22  C   UNL     1       8.502  20.209  52.747  1.00  0.00     0.044 C 
BRANCH  21  23
HETATM   23  O   UNL     1       8.732  19.502  55.028  1.00  0.00    -0.391 OA
HETATM   24  H   UNL     1       9.591  19.242  55.402  1.00  0.00     0.210 HD
ENDBRANCH  21  23
ENDBRANCH  17  21
ENDBRANCH  12  15
ENDBRANCH   1  11
BRANCH   8  25
HETATM   25  C   UNL     1       3.839  26.413  48.136  1.00  0.00     0.409 C 
HETATM   26  F   UNL     1       5.024  26.164  47.537  1.00  0.00    -0.169 F 
HETATM   27  F   UNL     1       3.428  25.281  48.751  1.00  0.00    -0.169 F 
HETATM   28  F   UNL     1       2.953  26.651  47.131  1.00  0.00    -0.169 F 
ENDBRANCH   8  25
BRANCH   6  29
HETATM   29  C   UNL     1       2.936  30.526  49.891  1.00  0.00     0.075 A 
HETATM   30  O   UNL     1       2.437  30.956  48.694  1.00  0.00    -0.325 OA
HETATM   31  C   UNL     1       3.018  32.154  48.427  1.00  0.00     0.142 A 
HETATM   32  C   UNL     1       3.893  32.497  49.431  1.00  0.00     0.027 A 
HETATM   33  C   UNL     1       3.842  31.447  50.378  1.00  0.00     0.037 A 
ENDBRANCH   6  29
TORSDOF 6
ENDMDL
MODEL 7
REMARK VINA RESULT:      -9.0      3.083      4.052
REMARK  6 active torsions:
REMARK  status: ('A' for Active; 'I' for Inactive)
REMARK    1  A    between atoms: C_2  and  O_3 
REMARK    2  A    between atoms: C_2  and  C_4 
REMARK    3  A    between atoms: C_6  and  N_7 
REMARK       I    between atoms: N_7  and  C_8 
REMARK    4  A    between atoms: C_8  and  C_9 
REMARK    5  A    between atoms: C_14  and  C_15 
REMARK    6  A    between atoms: C_21  and  C_22 
ROOT
HETATM    1  C   UNL     1       6.235  29.125  56.478  1.00  0.00     0.148 A 
HETATM    2  N   UNL     1       7.538  28.853  56.716  1.00  0.00    -0.165 NA
HETATM    3  N   UNL     1       7.933  29.860  57.516  1.00  0.00    -0.240 N 
HETATM    4  C   UNL     1       6.920  30.717  57.858  1.00  0.00     0.123 A 
HETATM    5  N   UNL     1       7.132  31.774  58.671  1.00  0.00    -0.364 N 
HETATM    6  C   UNL     1       8.403  31.960  59.370  1.00  0.00     0.143 C 
HETATM    7  C   UNL     1       9.551  31.406  58.511  1.00  0.00     0.068 C 
HETATM    8  C   UNL     1       9.280  29.959  58.054  1.00  0.00     0.221 C 
HETATM    9  C   UNL     1       5.805  30.267  57.205  1.00  0.00     0.089 A 
HETATM   10  H   UNL     1       6.347  32.298  59.057  1.00  0.00     0.162 HD
ENDROOT
BRANCH   1  11
HETATM   11  C   UNL     1       5.420  28.314  55.552  1.00  0.00     0.276 C 
HETATM   12  N   UNL     1       6.193  27.703  54.583  1.00  0.00    -0.322 N 
HETATM   13  H   UNL     1       7.190  27.876  54.692  1.00  0.00     0.169 HD
HETATM   14  O   UNL     1       4.202  28.247  55.670  1.00  0.00    -0.266 OA
BRANCH  12  15
HETATM   15  C   UNL     1       5.771  26.933  53.486  1.00  0.00     0.035 A 
HETATM   16  C   UNL     1       5.420  27.474  52.246  1.00  0.00     0.039 A 
HETATM   17  C   UNL     1       5.029  26.648  51.177  1.00  0.00    -0.028 A 
HETATM   18  C   UNL     1       4.978  25.262  51.376  1.00  0.00     0.010 A 
HETATM   19  C   UNL     1       5.326  24.713  52.609  1.00  0.00     0.003 A 
HETATM   20  C   UNL     1       5.724  25.545  53.656  1.00  0.00     0.029 A 
BRANCH  17  21
HETATM   21  C   UNL     1       4.655  27.264  49.845  1.00  0.00     0.147 C 
HETATM   22  C   UNL     1       4.059  26.245  48.886  1.00  0.00     0.044 C 
BRANCH  21  23
HETATM   23  O   UNL     1       5.804  27.854  49.236  1.00  0.00    -0.391 OA
HETATM   24  H   UNL     1       5.917  27.417  48.374  1.00  0.00     0.210 HD
ENDBRANCH  21  23
ENDBRANCH  17  21
ENDBRANCH  12  15
ENDBRANCH   1  11
BRANCH   8  25
HETATM   25  C   UNL     1      10.331  29.533  57.053  1.00  0.00     0.409 C 
HETATM   26  F   UNL     1      11.580  29.920  57.394  1.00  0.00    -0.169 F 
HETATM   27  F   UNL     1      10.342  28.197  56.848  1.00  0.00    -0.169 F 
HETATM   28  F   UNL     1      10.077  30.108  55.847  1.00  0.00    -0.169 F 
ENDBRANCH   8  25
BRANCH   6  29
HETATM   29  C   UNL     1       8.445  31.408  60.760  1.00  0.00     0.075 A 
HETATM   30  O   UNL     1       7.396  31.742  61.569  1.00  0.00    -0.325 OA
HETATM   31  C   UNL     1       7.608  31.139  62.767  1.00  0.00     0.142 A 
HETATM   32  C   UNL     1       8.785  30.429  62.746  1.00  0.00     0.027 A 
HETATM   33  C   UNL     1       9.328  30.601  61.450  1.00  0.00     0.037 A 
ENDBRANCH   6  29
TORSDOF 6
ENDMDL
MODEL 8
REMARK VINA RESULT:      -8.9      6.172      9.149
REMARK  6 active torsions:
REMARK  status: ('A' for Active; 'I' for Inactive)
REMARK    1  A    between atoms: C_2  and  O_3 
REMARK    2  A    between atoms: C_2  and  C_4 
REMARK    3  A    between atoms: C_6  and  N_7 
REMARK       I    between atoms: N_7  and  C_8 
REMARK    4  A    between atoms: C_8  and  C_9 
REMARK    5  A    between atoms: C_14  and  C_15 
REMARK    6  A    between atoms: C_21  and  C_22 
ROOT
HETATM    1  C   UNL     1       5.193  26.525  51.733  1.00  0.00     0.148 A 
HETATM    2  N   UNL     1       4.679  27.776  51.713  1.00  0.00    -0.165 NA
HETATM    3  N   UNL     1       4.505  28.029  50.403  1.00  0.00    -0.240 N 
HETATM    4  C   UNL     1       4.815  26.967  49.594  1.00  0.00     0.123 A 
HETATM    5  N   UNL     1       4.681  27.037  48.252  1.00  0.00    -0.364 N 
HETATM    6  C   UNL     1       4.034  28.179  47.606  1.00  0.00     0.143 C 
HETATM    7  C   UNL     1       4.300  29.454  48.422  1.00  0.00     0.068 C 
HETATM    8  C   UNL     1       3.936  29.272  49.908  1.00  0.00     0.221 C 
HETATM    9  C   UNL     1       5.261  25.975  50.425  1.00  0.00     0.089 A 
HETATM   10  H   UNL     1       4.744  26.196  47.680  1.00  0.00     0.162 HD
ENDROOT
BRANCH   1  11
HETATM   11  C   UNL     1       5.632  25.876  52.983  1.00  0.00     0.276 C 
HETATM   12  N   UNL     1       6.768  25.112  52.797  1.00  0.00    -0.322 N 
HETATM   13  H   UNL     1       7.136  25.157  51.849  1.00  0.00     0.169 HD
HETATM   14  O   UNL     1       5.008  26.022  54.027  1.00  0.00    -0.266 OA
BRANCH  12  15
HETATM   15  C   UNL     1       7.425  24.283  53.722  1.00  0.00     0.035 A 
HETATM   16  C   UNL     1       7.850  22.982  53.436  1.00  0.00     0.039 A 
HETATM   17  C   UNL     1       8.525  22.210  54.397  1.00  0.00    -0.028 A 
HETATM   18  C   UNL     1       8.754  22.758  55.667  1.00  0.00     0.010 A 
HETATM   19  C   UNL     1       8.334  24.053  55.962  1.00  0.00     0.003 A 
HETATM   20  C   UNL     1       7.676  24.812  54.993  1.00  0.00     0.029 A 
BRANCH  17  21
HETATM   21  C   UNL     1       8.973  20.804  54.057  1.00  0.00     0.147 C 
HETATM   22  C   UNL     1       8.330  20.288  52.779  1.00  0.00     0.044 C 
BRANCH  21  23
HETATM   23  O   UNL     1       8.655  19.913  55.126  1.00  0.00    -0.391 OA
HETATM   24  H   UNL     1       8.217  19.142  54.725  1.00  0.00     0.210 HD
ENDBRANCH  21  23
ENDBRANCH  17  21
ENDBRANCH  12  15
ENDBRANCH   1  11
BRANCH   8  25
HETATM   25  C   UNL     1       4.401  30.473  50.700  1.00  0.00     0.409 C 
HETATM   26  F   UNL     1       3.822  30.568  51.917  1.00  0.00    -0.169 F 
HETATM   27  F   UNL     1       5.743  30.498  50.866  1.00  0.00    -0.169 F 
HETATM   28  F   UNL     1       4.072  31.615  50.037  1.00  0.00    -0.169 F 
ENDBRANCH   8  25
BRANCH   6  29
HETATM   29  C   UNL     1       2.575  28.002  47.328  1.00  0.00     0.075 A 
HETATM   30  O   UNL     1       1.965  29.021  46.654  1.00  0.00    -0.325 OA
HETATM   31  C   UNL     1       0.665  28.669  46.488  1.00  0.00     0.142 A 
HETATM   32  C   UNL     1       0.424  27.440  47.055  1.00  0.00     0.027 A 
HETATM   33  C   UNL     1       1.657  27.006  47.599  1.00  0.00     0.037 A 
ENDBRANCH   6  29
TORSDOF 6
ENDMDL
MODEL 9
REMARK VINA RESULT:      -8.7      6.926      9.156
REMARK  6 active torsions:
REMARK  status: ('A' for Active; 'I' for Inactive)
REMARK    1  A    between atoms: C_2  and  O_3 
REMARK    2  A    between atoms: C_2  and  C_4 
REMARK    3  A    between atoms: C_6  and  N_7 
REMARK       I    between atoms: N_7  and  C_8 
REMARK    4  A    between atoms: C_8  and  C_9 
REMARK    5  A    between atoms: C_14  and  C_15 
REMARK    6  A    between atoms: C_21  and  C_22 
ROOT
HETATM    1  C   UNL     1       5.286  27.190  51.773  1.00  0.00     0.148 A 
HETATM    2  N   UNL     1       5.217  26.937  50.446  1.00  0.00    -0.165 NA
HETATM    3  N   UNL     1       4.088  27.559  50.061  1.00  0.00    -0.240 N 
HETATM    4  C   UNL     1       3.477  28.260  51.069  1.00  0.00     0.123 A 
HETATM    5  N   UNL     1       2.343  28.961  50.857  1.00  0.00    -0.364 N 
HETATM    6  C   UNL     1       1.805  29.157  49.511  1.00  0.00     0.143 C 
HETATM    7  C   UNL     1       2.127  27.931  48.641  1.00  0.00     0.068 C 
HETATM    8  C   UNL     1       3.627  27.576  48.683  1.00  0.00     0.221 C 
HETATM    9  C   UNL     1       4.231  28.044  52.190  1.00  0.00     0.089 A 
HETATM   10  H   UNL     1       1.998  29.614  51.559  1.00  0.00     0.162 HD
ENDROOT
BRANCH   1  11
HETATM   11  C   UNL     1       6.336  26.606  52.630  1.00  0.00     0.276 C 
HETATM   12  N   UNL     1       6.278  25.226  52.649  1.00  0.00    -0.322 N 
HETATM   13  H   UNL     1       5.556  24.842  52.043  1.00  0.00     0.169 HD
HETATM   14  O   UNL     1       7.125  27.317  53.242  1.00  0.00    -0.266 OA
BRANCH  12  15
HETATM   15  C   UNL     1       7.046  24.329  53.412  1.00  0.00     0.035 A 
HETATM   16  C   UNL     1       7.148  24.382  54.805  1.00  0.00     0.039 A 
HETATM   17  C   UNL     1       7.914  23.441  55.514  1.00  0.00    -0.028 A 
HETATM   18  C   UNL     1       8.596  22.447  54.800  1.00  0.00     0.010 A 
HETATM   19  C   UNL     1       8.501  22.385  53.411  1.00  0.00     0.003 A 
HETATM   20  C   UNL     1       7.727  23.320  52.722  1.00  0.00     0.029 A 
BRANCH  17  21
HETATM   21  C   UNL     1       8.004  23.524  57.023  1.00  0.00     0.147 C 
HETATM   22  C   UNL     1       9.013  24.565  57.484  1.00  0.00     0.044 C 
BRANCH  21  23
HETATM   23  O   UNL     1       8.371  22.255  57.565  1.00  0.00    -0.391 OA
HETATM   24  H   UNL     1       8.973  21.841  56.923  1.00  0.00     0.210 HD
ENDBRANCH  21  23
ENDBRANCH  17  21
ENDBRANCH  12  15
ENDBRANCH   1  11
BRANCH   8  25
HETATM   25  C   UNL     1       3.858  26.256  47.982  1.00  0.00     0.409 C 
HETATM   26  F   UNL     1       5.135  26.083  47.577  1.00  0.00    -0.169 F 
HETATM   27  F   UNL     1       3.508  25.195  48.744  1.00  0.00    -0.169 F 
HETATM   28  F   UNL     1       3.095  26.193  46.858  1.00  0.00    -0.169 F 
ENDBRANCH   8  25
BRANCH   6  29
HETATM   29  C   UNL     1       2.226  30.428  48.843  1.00  0.00     0.075 A 
HETATM   30  O   UNL     1       1.835  30.579  47.543  1.00  0.00    -0.325 OA
HETATM   31  C   UNL     1       2.295  31.786  47.125  1.00  0.00     0.142 A 
HETATM   32  C   UNL     1       2.986  32.412  48.135  1.00  0.00     0.027 A 
HETATM   33  C   UNL     1       2.943  31.537  49.246  1.00  0.00     0.037 A 
ENDBRANCH   6  29
TORSDOF 6
ENDMDL
MODEL 10
REMARK VINA RESULT:      -8.6      2.566      3.678
REMARK  6 active torsions:
REMARK  status: ('A' for Active; 'I' for Inactive)
REMARK    1  A    between atoms: C_2  and  O_3 
REMARK    2  A    between atoms: C_2  and  C_4 
REMARK    3  A    between atoms: C_6  and  N_7 
REMARK       I    between atoms: N_7  and  C_8 
REMARK    4  A    between atoms: C_8  and  C_9 
REMARK    5  A    between atoms: C_14  and  C_15 
REMARK    6  A    between atoms: C_21  and  C_22 
ROOT
HETATM    1  C   UNL     1       7.593  29.417  57.579  1.00  0.00     0.148 A 
HETATM    2  N   UNL     1       8.106  29.504  58.827  1.00  0.00    -0.165 NA
HETATM    3  N   UNL     1       7.640  30.682  59.282  1.00  0.00    -0.240 N 
HETATM    4  C   UNL     1       6.793  31.311  58.408  1.00  0.00     0.123 A 
HETATM    5  N   UNL     1       6.216  32.494  58.709  1.00  0.00    -0.364 N 
HETATM    6  C   UNL     1       6.322  33.079  60.045  1.00  0.00     0.143 C 
HETATM    7  C   UNL     1       7.673  32.698  60.672  1.00  0.00     0.068 C 
HETATM    8  C   UNL     1       7.922  31.178  60.619  1.00  0.00     0.221 C 
HETATM    9  C   UNL     1       6.738  30.516  57.296  1.00  0.00     0.089 A 
HETATM   10  H   UNL     1       5.460  32.864  58.135  1.00  0.00     0.162 HD
ENDROOT
BRANCH   1  11
HETATM   11  C   UNL     1       7.933  28.310  56.665  1.00  0.00     0.276 C 
HETATM   12  N   UNL     1       7.555  27.083  57.177  1.00  0.00    -0.322 N 
HETATM   13  H   UNL     1       7.071  27.149  58.070  1.00  0.00     0.169 HD
HETATM   14  O   UNL     1       8.502  28.517  55.600  1.00  0.00    -0.266 OA
BRANCH  12  15
HETATM   15  C   UNL     1       7.788  25.804  56.644  1.00  0.00     0.035 A 
HETATM   16  C   UNL     1       7.474  25.440  55.331  1.00  0.00     0.039 A 
HETATM   17  C   UNL     1       7.755  24.149  54.849  1.00  0.00    -0.028 A 
HETATM   18  C   UNL     1       8.345  23.217  55.712  1.00  0.00     0.010 A 
HETATM   19  C   UNL     1       8.662  23.570  57.022  1.00  0.00     0.003 A 
HETATM   20  C   UNL     1       8.388  24.859  57.483  1.00  0.00     0.029 A 
BRANCH  17  21
HETATM   21  C   UNL     1       7.403  23.785  53.422  1.00  0.00     0.147 C 
HETATM   22  C   UNL     1       7.801  22.358  53.077  1.00  0.00     0.044 C 
BRANCH  21  23
HETATM   23  O   UNL     1       8.048  24.676  52.512  1.00  0.00    -0.391 OA
HETATM   24  H   UNL     1       8.798  25.068  52.991  1.00  0.00     0.210 HD
ENDBRANCH  21  23
ENDBRANCH  17  21
ENDBRANCH  12  15
ENDBRANCH   1  11
BRANCH   8  25
HETATM   25  C   UNL     1       9.338  30.877  61.058  1.00  0.00     0.409 C 
HETATM   26  F   UNL     1       9.913  31.891  61.740  1.00  0.00    -0.169 F 
HETATM   27  F   UNL     1       9.422  29.757  61.811  1.00  0.00    -0.169 F 
HETATM   28  F   UNL     1      10.122  30.668  59.966  1.00  0.00    -0.169 F 
ENDBRANCH   8  25
BRANCH   6  29
HETATM   29  C   UNL     1       5.184  32.760  60.964  1.00  0.00     0.075 A 
HETATM   30  O   UNL     1       5.334  33.155  62.263  1.00  0.00    -0.325 OA
HETATM   31  C   UNL     1       4.204  32.794  62.923  1.00  0.00     0.142 A 
HETATM   32  C   UNL     1       3.331  32.162  62.071  1.00  0.00     0.027 A 
HETATM   33  C   UNL     1       3.961  32.139  60.803  1.00  0.00     0.037 A 
ENDBRANCH   6  29
TORSDOF 6
ENDMDL
