MODEL 1
REMARK VINA RESULT:      -8.9      0.000      0.000
REMARK  9 active torsions:
REMARK  status: ('A' for Active; 'I' for Inactive)
REMARK    1  A    between atoms: C_2  and  N_3 
REMARK    2  A    between atoms: C_2  and  C_23 
REMARK       I    between atoms: N_3  and  C_4 
REMARK       I    between atoms: C_4  and  N_5 
REMARK    3  A    between atoms: N_5  and  C_6 
REMARK    4  A    between atoms: C_6  and  C_7 
REMARK    5  A    between atoms: C_7  and  N_8 
REMARK    6  A    between atoms: C_7  and  C_14 
REMARK    7  A    between atoms: C_15  and  O_16 
REMARK    8  A    between atoms: C_23  and  C_24 
REMARK    9  A    between atoms: C_27  and  O_28 
ROOT
HETATM    1  N   UNL     1       7.131  26.251  54.893  1.00  0.00    -0.339 N 
HETATM    2  C   UNL     1       6.960  26.630  56.195  1.00  0.00     0.316 C 
HETATM    3  N   UNL     1       7.749  27.707  56.523  1.00  0.00    -0.341 N 
HETATM    4  O   UNL     1       6.289  26.030  57.021  1.00  0.00    -0.248 OA
HETATM    5  H   UNL     1       7.311  26.997  54.238  1.00  0.00     0.164 HD
HETATM    6  H   UNL     1       7.981  28.296  55.735  1.00  0.00     0.164 HD
ENDROOT
BRANCH   3   7
HETATM    7  C   UNL     1       7.537  28.398  57.788  1.00  0.00     0.162 C 
BRANCH   7   8
HETATM    8  C   UNL     1       7.190  29.930  57.748  1.00  0.00     0.241 C 
BRANCH   8   9
HETATM    9  N   UNL     1       5.675  30.228  57.866  1.00  0.00    -0.061 N 
HETATM   10  H   UNL     1       5.523  30.298  58.879  1.00  0.00     0.280 HD
HETATM   11  C   UNL     1       4.698  29.212  57.327  1.00  0.00     0.236 C 
HETATM   12  C   UNL     1       3.959  29.930  56.218  1.00  0.00     0.029 C 
HETATM   13  C   UNL     1       3.879  31.352  56.727  1.00  0.00     0.029 C 
HETATM   14  C   UNL     1       5.248  31.588  57.339  1.00  0.00     0.236 C 
ENDBRANCH   8   9
BRANCH   8  15
HETATM   15  C   UNL     1       8.041  30.684  58.782  1.00  0.00     0.007 A 
HETATM   16  C   UNL     1       9.383  31.000  58.459  1.00  0.00     0.076 A 
HETATM   17  C   UNL     1      10.189  31.686  59.374  1.00  0.00     0.037 A 
HETATM   18  C   UNL     1       9.684  32.056  60.618  1.00  0.00     0.003 A 
HETATM   19  C   UNL     1       8.374  31.740  60.957  1.00  0.00     0.001 A 
HETATM   20  C   UNL     1       7.559  31.057  60.050  1.00  0.00     0.012 A 
BRANCH  16  21
HETATM   21  O   UNL     1       9.805  30.611  57.215  1.00  0.00    -0.355 OA
HETATM   22  C   UNL     1      10.998  29.832  57.144  1.00  0.00     0.210 C 
ENDBRANCH  16  21
ENDBRANCH   8  15
ENDBRANCH   7   8
ENDBRANCH   3   7
BRANCH   1  23
HETATM   23  C   UNL     1       6.474  25.077  54.308  1.00  0.00     0.086 C 
HETATM   24  C   UNL     1       5.121  25.452  53.700  1.00  0.00     0.032 C 
BRANCH  23  25
HETATM   25  C   UNL     1       7.339  24.305  53.288  1.00  0.00     0.063 C 
BRANCH  25  26
HETATM   26  C   UNL     1       7.733  22.922  53.753  1.00  0.00    -0.056 A 
HETATM   27  C   UNL     1       8.065  21.920  52.830  1.00  0.00     0.010 A 
HETATM   28  C   UNL     1       8.416  20.641  53.270  1.00  0.00     0.037 A 
HETATM   29  C   UNL     1       8.434  20.367  54.633  1.00  0.00     0.065 A 
HETATM   30  C   UNL     1       8.109  21.348  55.561  1.00  0.00     0.037 A 
HETATM   31  C   UNL     1       7.762  22.624  55.122  1.00  0.00     0.010 A 
BRANCH  29  32
HETATM   32  O   UNL     1       8.770  19.134  55.107  1.00  0.00    -0.361 OA
HETATM   33  H   UNL     1       8.202  18.470  54.681  1.00  0.00     0.217 HD
ENDBRANCH  29  32
ENDBRANCH  25  26
ENDBRANCH  23  25
ENDBRANCH   1  23
TORSDOF 9
ENDMDL
MODEL 2
REMARK VINA RESULT:      -8.9      1.443      1.985
REMARK  9 active torsions:
REMARK  status: ('A' for Active; 'I' for Inactive)
REMARK    1  A    between atoms: C_2  and  N_3 
REMARK    2  A    between atoms: C_2  and  C_23 
REMARK       I    between atoms: N_3  and  C_4 
REMARK       I    between atoms: C_4  and  N_5 
REMARK    3  A    between atoms: N_5  and  C_6 
REMARK    4  A    between atoms: C_6  and  C_7 
REMARK    5  A    between atoms: C_7  and  N_8 
REMARK    6  A    between atoms: C_7  and  C_14 
REMARK    7  A    between atoms: C_15  and  O_16 
REMARK    8  A    between atoms: C_23  and  C_24 
REMARK    9  A    between atoms: C_27  and  O_28 
ROOT
HETATM    1  N   UNL     1       7.199  26.545  54.173  1.00  0.00    -0.339 N 
HETATM    2  C   UNL     1       7.485  26.886  55.465  1.00  0.00     0.316 C 
HETATM    3  N   UNL     1       7.893  28.194  55.573  1.00  0.00    -0.341 N 
HETATM    4  O   UNL     1       7.504  26.110  56.410  1.00  0.00    -0.248 OA
HETATM    5  H   UNL     1       6.795  27.276  53.605  1.00  0.00     0.164 HD
HETATM    6  H   UNL     1       7.532  28.793  54.844  1.00  0.00     0.164 HD
ENDROOT
BRANCH   3   7
HETATM    7  C   UNL     1       8.018  28.805  56.890  1.00  0.00     0.162 C 
BRANCH   7   8
HETATM    8  C   UNL     1       7.224  30.131  57.171  1.00  0.00     0.241 C 
BRANCH   8   9
HETATM    9  N   UNL     1       5.694  29.994  56.974  1.00  0.00    -0.061 N 
HETATM   10  H   UNL     1       5.310  30.768  57.529  1.00  0.00     0.280 HD
HETATM   11  C   UNL     1       5.020  28.725  57.434  1.00  0.00     0.236 C 
HETATM   12  C   UNL     1       4.452  28.105  56.176  1.00  0.00     0.029 C 
HETATM   13  C   UNL     1       4.054  29.310  55.352  1.00  0.00     0.029 C 
HETATM   14  C   UNL     1       5.202  30.280  55.564  1.00  0.00     0.236 C 
ENDBRANCH   8   9
BRANCH   8  15
HETATM   15  C   UNL     1       7.613  30.688  58.549  1.00  0.00     0.007 A 
HETATM   16  C   UNL     1       7.059  31.923  58.967  1.00  0.00     0.076 A 
HETATM   17  C   UNL     1       7.389  32.462  60.215  1.00  0.00     0.037 A 
HETATM   18  C   UNL     1       8.275  31.796  61.057  1.00  0.00     0.003 A 
HETATM   19  C   UNL     1       8.839  30.590  60.658  1.00  0.00     0.001 A 
HETATM   20  C   UNL     1       8.516  30.042  59.414  1.00  0.00     0.012 A 
BRANCH  16  21
HETATM   21  O   UNL     1       6.190  32.514  58.087  1.00  0.00    -0.355 OA
HETATM   22  C   UNL     1       5.069  33.201  58.640  1.00  0.00     0.210 C 
ENDBRANCH  16  21
ENDBRANCH   8  15
ENDBRANCH   7   8
ENDBRANCH   3   7
BRANCH   1  23
HETATM   23  C   UNL     1       6.824  25.187  53.766  1.00  0.00     0.086 C 
HETATM   24  C   UNL     1       5.501  25.190  52.998  1.00  0.00     0.032 C 
BRANCH  23  25
HETATM   25  C   UNL     1       7.916  24.434  52.975  1.00  0.00     0.063 C 
BRANCH  25  26
HETATM   26  C   UNL     1       8.200  23.048  53.507  1.00  0.00    -0.056 A 
HETATM   27  C   UNL     1       7.936  21.911  52.729  1.00  0.00     0.010 A 
HETATM   28  C   UNL     1       8.191  20.634  53.234  1.00  0.00     0.037 A 
HETATM   29  C   UNL     1       8.710  20.496  54.517  1.00  0.00     0.065 A 
HETATM   30  C   UNL     1       8.979  21.611  55.300  1.00  0.00     0.037 A 
HETATM   31  C   UNL     1       8.727  22.885  54.795  1.00  0.00     0.010 A 
BRANCH  29  32
HETATM   32  O   UNL     1       8.974  19.269  55.050  1.00  0.00    -0.361 OA
HETATM   33  H   UNL     1       8.478  18.598  54.552  1.00  0.00     0.217 HD
ENDBRANCH  29  32
ENDBRANCH  25  26
ENDBRANCH  23  25
ENDBRANCH   1  23
TORSDOF 9
ENDMDL
MODEL 3
REMARK VINA RESULT:      -8.7      1.340      2.216
REMARK  9 active torsions:
REMARK  status: ('A' for Active; 'I' for Inactive)
REMARK    1  A    between atoms: C_2  and  N_3 
REMARK    2  A    between atoms: C_2  and  C_23 
REMARK       I    between atoms: N_3  and  C_4 
REMARK       I    between atoms: C_4  and  N_5 
REMARK    3  A    between atoms: N_5  and  C_6 
REMARK    4  A    between atoms: C_6  and  C_7 
REMARK    5  A    between atoms: C_7  and  N_8 
REMARK    6  A    between atoms: C_7  and  C_14 
REMARK    7  A    between atoms: C_15  and  O_16 
REMARK    8  A    between atoms: C_23  and  C_24 
REMARK    9  A    between atoms: C_27  and  O_28 
ROOT
HETATM    1  N   UNL     1       5.228  25.392  54.697  1.00  0.00    -0.339 N 
HETATM    2  C   UNL     1       6.027  26.357  55.242  1.00  0.00     0.316 C 
HETATM    3  N   UNL     1       5.388  27.044  56.247  1.00  0.00    -0.341 N 
HETATM    4  O   UNL     1       7.131  26.675  54.827  1.00  0.00    -0.248 OA
HETATM    5  H   UNL     1       4.594  24.933  55.334  1.00  0.00     0.164 HD
HETATM    6  H   UNL     1       4.664  26.510  56.708  1.00  0.00     0.164 HD
ENDROOT
BRANCH   3   7
HETATM    7  C   UNL     1       6.149  27.947  57.101  1.00  0.00     0.162 C 
BRANCH   7   8
HETATM    8  C   UNL     1       6.530  29.362  56.533  1.00  0.00     0.241 C 
BRANCH   8   9
HETATM    9  N   UNL     1       5.592  30.498  57.011  1.00  0.00    -0.061 N 
HETATM   10  H   UNL     1       6.166  31.011  57.691  1.00  0.00     0.280 HD
HETATM   11  C   UNL     1       4.300  30.124  57.694  1.00  0.00     0.236 C 
HETATM   12  C   UNL     1       3.210  30.663  56.792  1.00  0.00     0.029 C 
HETATM   13  C   UNL     1       3.822  31.933  56.241  1.00  0.00     0.029 C 
HETATM   14  C   UNL     1       5.260  31.540  55.956  1.00  0.00     0.236 C 
ENDBRANCH   8   9
BRANCH   8  15
HETATM   15  C   UNL     1       8.017  29.646  56.800  1.00  0.00     0.007 A 
HETATM   16  C   UNL     1       8.392  30.192  58.051  1.00  0.00     0.076 A 
HETATM   17  C   UNL     1       9.735  30.464  58.331  1.00  0.00     0.037 A 
HETATM   18  C   UNL     1      10.718  30.211  57.378  1.00  0.00     0.003 A 
HETATM   19  C   UNL     1      10.366  29.689  56.139  1.00  0.00     0.001 A 
HETATM   20  C   UNL     1       9.028  29.412  55.849  1.00  0.00     0.012 A 
BRANCH  16  21
HETATM   21  O   UNL     1       7.371  30.405  58.939  1.00  0.00    -0.355 OA
HETATM   22  C   UNL     1       7.537  31.460  59.885  1.00  0.00     0.210 C 
ENDBRANCH  16  21
ENDBRANCH   8  15
ENDBRANCH   7   8
ENDBRANCH   3   7
BRANCH   1  23
HETATM   23  C   UNL     1       5.632  24.571  53.550  1.00  0.00     0.086 C 
HETATM   24  C   UNL     1       5.040  25.118  52.249  1.00  0.00     0.032 C 
BRANCH  23  25
HETATM   25  C   UNL     1       7.157  24.369  53.417  1.00  0.00     0.063 C 
BRANCH  25  26
HETATM   26  C   UNL     1       7.620  22.986  53.816  1.00  0.00    -0.056 A 
HETATM   27  C   UNL     1       8.016  22.053  52.847  1.00  0.00     0.010 A 
HETATM   28  C   UNL     1       8.431  20.774  53.226  1.00  0.00     0.037 A 
HETATM   29  C   UNL     1       8.449  20.431  54.574  1.00  0.00     0.065 A 
HETATM   30  C   UNL     1       8.062  21.343  55.546  1.00  0.00     0.037 A 
HETATM   31  C   UNL     1       7.651  22.620  55.169  1.00  0.00     0.010 A 
BRANCH  29  32
HETATM   32  O   UNL     1       8.846  19.195  54.988  1.00  0.00    -0.361 OA
HETATM   33  H   UNL     1       8.176  18.544  54.721  1.00  0.00     0.217 HD
ENDBRANCH  29  32
ENDBRANCH  25  26
ENDBRANCH  23  25
ENDBRANCH   1  23
TORSDOF 9
ENDMDL
MODEL 4
REMARK VINA RESULT:      -8.5      4.908      8.438
REMARK  9 active torsions:
REMARK  status: ('A' for Active; 'I' for Inactive)
REMARK    1  A    between atoms: C_2  and  N_3 
REMARK    2  A    between atoms: C_2  and  C_23 
REMARK       I    between atoms: N_3  and  C_4 
REMARK       I    between atoms: C_4  and  N_5 
REMARK    3  A    between atoms: N_5  and  C_6 
REMARK    4  A    between atoms: C_6  and  C_7 
REMARK    5  A    between atoms: C_7  and  N_8 
REMARK    6  A    between atoms: C_7  and  C_14 
REMARK    7  A    between atoms: C_15  and  O_16 
REMARK    8  A    between atoms: C_23  and  C_24 
REMARK    9  A    between atoms: C_27  and  O_28 
ROOT
HETATM    1  N   UNL     1       5.992  25.692  53.937  1.00  0.00    -0.339 N 
HETATM    2  C   UNL     1       6.160  25.775  52.583  1.00  0.00     0.316 C 
HETATM    3  N   UNL     1       4.968  25.983  51.930  1.00  0.00    -0.341 N 
HETATM    4  O   UNL     1       7.209  25.571  51.990  1.00  0.00    -0.248 OA
HETATM    5  H   UNL     1       5.268  26.277  54.327  1.00  0.00     0.164 HD
HETATM    6  H   UNL     1       4.272  26.450  52.494  1.00  0.00     0.164 HD
ENDROOT
BRANCH   3   7
HETATM    7  C   UNL     1       4.972  26.329  50.515  1.00  0.00     0.162 C 
BRANCH   7   8
HETATM    8  C   UNL     1       4.237  27.645  50.071  1.00  0.00     0.241 C 
BRANCH   8   9
HETATM    9  N   UNL     1       5.197  28.820  49.761  1.00  0.00    -0.061 N 
HETATM   10  H   UNL     1       6.107  28.360  49.643  1.00  0.00     0.280 HD
HETATM   11  C   UNL     1       5.364  29.905  50.795  1.00  0.00     0.236 C 
HETATM   12  C   UNL     1       4.859  31.165  50.126  1.00  0.00     0.029 C 
HETATM   13  C   UNL     1       5.263  30.968  48.681  1.00  0.00     0.029 C 
HETATM   14  C   UNL     1       4.960  29.503  48.424  1.00  0.00     0.236 C 
ENDBRANCH   8   9
BRANCH   8  15
HETATM   15  C   UNL     1       3.263  27.335  48.923  1.00  0.00     0.007 A 
HETATM   16  C   UNL     1       2.045  28.054  48.849  1.00  0.00     0.076 A 
HETATM   17  C   UNL     1       1.134  27.801  47.818  1.00  0.00     0.037 A 
HETATM   18  C   UNL     1       1.408  26.829  46.859  1.00  0.00     0.003 A 
HETATM   19  C   UNL     1       2.591  26.103  46.925  1.00  0.00     0.001 A 
HETATM   20  C   UNL     1       3.510  26.349  47.949  1.00  0.00     0.012 A 
BRANCH  16  21
HETATM   21  O   UNL     1       1.851  28.998  49.822  1.00  0.00    -0.355 OA
HETATM   22  C   UNL     1       1.274  30.240  49.422  1.00  0.00     0.210 C 
ENDBRANCH  16  21
ENDBRANCH   8  15
ENDBRANCH   7   8
ENDBRANCH   3   7
BRANCH   1  23
HETATM   23  C   UNL     1       7.088  25.389  54.863  1.00  0.00     0.086 C 
HETATM   24  C   UNL     1       7.522  26.640  55.628  1.00  0.00     0.032 C 
BRANCH  23  25
HETATM   25  C   UNL     1       6.797  24.225  55.835  1.00  0.00     0.063 C 
BRANCH  25  26
HETATM   26  C   UNL     1       7.427  22.916  55.417  1.00  0.00    -0.056 A 
HETATM   27  C   UNL     1       7.527  22.566  54.063  1.00  0.00     0.010 A 
HETATM   28  C   UNL     1       8.099  21.348  53.688  1.00  0.00     0.037 A 
HETATM   29  C   UNL     1       8.571  20.482  54.669  1.00  0.00     0.065 A 
HETATM   30  C   UNL     1       8.481  20.813  56.015  1.00  0.00     0.037 A 
HETATM   31  C   UNL     1       7.912  22.029  56.389  1.00  0.00     0.010 A 
BRANCH  29  32
HETATM   32  O   UNL     1       9.137  19.284  54.349  1.00  0.00    -0.361 OA
HETATM   33  H   UNL     1       8.473  18.735  53.898  1.00  0.00     0.217 HD
ENDBRANCH  29  32
ENDBRANCH  25  26
ENDBRANCH  23  25
ENDBRANCH   1  23
TORSDOF 9
ENDMDL
MODEL 5
REMARK VINA RESULT:      -8.3      2.457      8.870
REMARK  9 active torsions:
REMARK  status: ('A' for Active; 'I' for Inactive)
REMARK    1  A    between atoms: C_2  and  N_3 
REMARK    2  A    between atoms: C_2  and  C_23 
REMARK       I    between atoms: N_3  and  C_4 
REMARK       I    between atoms: C_4  and  N_5 
REMARK    3  A    between atoms: N_5  and  C_6 
REMARK    4  A    between atoms: C_6  and  C_7 
REMARK    5  A    between atoms: C_7  and  N_8 
REMARK    6  A    between atoms: C_7  and  C_14 
REMARK    7  A    between atoms: C_15  and  O_16 
REMARK    8  A    between atoms: C_23  and  C_24 
REMARK    9  A    between atoms: C_27  and  O_28 
ROOT
HETATM    1  N   UNL     1       7.788  29.680  57.862  1.00  0.00    -0.339 N 
HETATM    2  C   UNL     1       7.397  28.373  57.779  1.00  0.00     0.316 C 
HETATM    3  N   UNL     1       6.106  28.252  57.324  1.00  0.00    -0.341 N 
HETATM    4  O   UNL     1       8.050  27.417  58.170  1.00  0.00    -0.248 OA
HETATM    5  H   UNL     1       7.413  30.297  57.157  1.00  0.00     0.164 HD
HETATM    6  H   UNL     1       5.805  29.023  56.743  1.00  0.00     0.164 HD
ENDROOT
BRANCH   3   7
HETATM    7  C   UNL     1       5.593  26.941  56.948  1.00  0.00     0.162 C 
BRANCH   7   8
HETATM    8  C   UNL     1       5.402  26.628  55.421  1.00  0.00     0.241 C 
BRANCH   8   9
HETATM    9  N   UNL     1       5.490  27.881  54.514  1.00  0.00    -0.061 N 
HETATM   10  H   UNL     1       5.892  28.596  55.131  1.00  0.00     0.280 HD
HETATM   11  C   UNL     1       4.215  28.442  53.935  1.00  0.00     0.236 C 
HETATM   12  C   UNL     1       4.372  28.305  52.436  1.00  0.00     0.029 C 
HETATM   13  C   UNL     1       5.854  28.532  52.227  1.00  0.00     0.029 C 
HETATM   14  C   UNL     1       6.494  27.777  53.377  1.00  0.00     0.236 C 
ENDBRANCH   8   9
BRANCH   8  15
HETATM   15  C   UNL     1       6.356  25.501  54.997  1.00  0.00     0.007 A 
HETATM   16  C   UNL     1       5.995  24.678  53.902  1.00  0.00     0.076 A 
HETATM   17  C   UNL     1       6.838  23.642  53.486  1.00  0.00     0.037 A 
HETATM   18  C   UNL     1       8.037  23.400  54.152  1.00  0.00     0.003 A 
HETATM   19  C   UNL     1       8.400  24.188  55.237  1.00  0.00     0.001 A 
HETATM   20  C   UNL     1       7.567  25.226  55.660  1.00  0.00     0.012 A 
BRANCH  16  21
HETATM   21  O   UNL     1       4.806  24.984  53.293  1.00  0.00    -0.355 OA
HETATM   22  C   UNL     1       4.713  24.751  51.889  1.00  0.00     0.210 C 
ENDBRANCH  16  21
ENDBRANCH   8  15
ENDBRANCH   7   8
ENDBRANCH   3   7
BRANCH   1  23
HETATM   23  C   UNL     1       9.088  30.095  58.399  1.00  0.00     0.086 C 
HETATM   24  C   UNL     1      10.220  29.733  57.436  1.00  0.00     0.032 C 
BRANCH  23  25
HETATM   25  C   UNL     1       9.166  31.584  58.801  1.00  0.00     0.063 C 
BRANCH  25  26
HETATM   26  C   UNL     1       8.513  31.886  60.131  1.00  0.00    -0.056 A 
HETATM   27  C   UNL     1       7.190  32.346  60.195  1.00  0.00     0.010 A 
HETATM   28  C   UNL     1       6.600  32.634  61.428  1.00  0.00     0.037 A 
HETATM   29  C   UNL     1       7.336  32.461  62.596  1.00  0.00     0.065 A 
HETATM   30  C   UNL     1       8.647  32.005  62.551  1.00  0.00     0.037 A 
HETATM   31  C   UNL     1       9.234  31.715  61.321  1.00  0.00     0.010 A 
BRANCH  29  32
HETATM   32  O   UNL     1       6.801  32.729  63.820  1.00  0.00    -0.361 OA
HETATM   33  H   UNL     1       6.531  33.662  63.847  1.00  0.00     0.217 HD
ENDBRANCH  29  32
ENDBRANCH  25  26
ENDBRANCH  23  25
ENDBRANCH   1  23
TORSDOF 9
ENDMDL
MODEL 6
REMARK VINA RESULT:      -8.3      1.543      3.846
REMARK  9 active torsions:
REMARK  status: ('A' for Active; 'I' for Inactive)
REMARK    1  A    between atoms: C_2  and  N_3 
REMARK    2  A    between atoms: C_2  and  C_23 
REMARK       I    between atoms: N_3  and  C_4 
REMARK       I    between atoms: C_4  and  N_5 
REMARK    3  A    between atoms: N_5  and  C_6 
REMARK    4  A    between atoms: C_6  and  C_7 
REMARK    5  A    between atoms: C_7  and  N_8 
REMARK    6  A    between atoms: C_7  and  C_14 
REMARK    7  A    between atoms: C_15  and  O_16 
REMARK    8  A    between atoms: C_23  and  C_24 
REMARK    9  A    between atoms: C_27  and  O_28 
ROOT
HETATM    1  N   UNL     1       6.947  26.018  54.118  1.00  0.00    -0.339 N 
HETATM    2  C   UNL     1       6.940  26.074  55.484  1.00  0.00     0.316 C 
HETATM    3  N   UNL     1       7.529  27.224  55.952  1.00  0.00    -0.341 N 
HETATM    4  O   UNL     1       6.575  25.172  56.223  1.00  0.00    -0.248 OA
HETATM    5  H   UNL     1       6.842  26.900  53.641  1.00  0.00     0.164 HD
HETATM    6  H   UNL     1       7.482  27.998  55.304  1.00  0.00     0.164 HD
ENDROOT
BRANCH   3   7
HETATM    7  C   UNL     1       7.409  27.573  57.362  1.00  0.00     0.162 C 
BRANCH   7   8
HETATM    8  C   UNL     1       7.234  29.088  57.739  1.00  0.00     0.241 C 
BRANCH   8   9
HETATM    9  N   UNL     1       8.366  29.998  57.202  1.00  0.00    -0.061 N 
HETATM   10  H   UNL     1       7.863  30.814  56.833  1.00  0.00     0.280 HD
HETATM   11  C   UNL     1       9.251  29.471  56.100  1.00  0.00     0.236 C 
HETATM   12  C   UNL     1      10.639  29.421  56.703  1.00  0.00     0.029 C 
HETATM   13  C   UNL     1      10.651  30.618  57.628  1.00  0.00     0.029 C 
HETATM   14  C   UNL     1       9.275  30.585  58.269  1.00  0.00     0.236 C 
ENDBRANCH   8   9
BRANCH   8  15
HETATM   15  C   UNL     1       5.828  29.565  57.339  1.00  0.00     0.007 A 
HETATM   16  C   UNL     1       5.264  30.670  58.020  1.00  0.00     0.076 A 
HETATM   17  C   UNL     1       3.987  31.134  57.684  1.00  0.00     0.037 A 
HETATM   18  C   UNL     1       3.252  30.505  56.683  1.00  0.00     0.003 A 
HETATM   19  C   UNL     1       3.784  29.410  56.014  1.00  0.00     0.001 A 
HETATM   20  C   UNL     1       5.058  28.939  56.340  1.00  0.00     0.012 A 
BRANCH  16  21
HETATM   21  O   UNL     1       6.051  31.241  58.986  1.00  0.00    -0.355 OA
HETATM   22  C   UNL     1       5.923  32.647  59.187  1.00  0.00     0.210 C 
ENDBRANCH  16  21
ENDBRANCH   8  15
ENDBRANCH   7   8
ENDBRANCH   3   7
BRANCH   1  23
HETATM   23  C   UNL     1       6.460  24.859  53.361  1.00  0.00     0.086 C 
HETATM   24  C   UNL     1       5.338  25.263  52.403  1.00  0.00     0.032 C 
BRANCH  23  25
HETATM   25  C   UNL     1       7.563  24.076  52.615  1.00  0.00     0.063 C 
BRANCH  25  26
HETATM   26  C   UNL     1       7.978  22.802  53.315  1.00  0.00    -0.056 A 
HETATM   27  C   UNL     1       8.570  22.839  54.585  1.00  0.00     0.010 A 
HETATM   28  C   UNL     1       8.961  21.656  55.218  1.00  0.00     0.037 A 
HETATM   29  C   UNL     1       8.759  20.438  54.578  1.00  0.00     0.065 A 
HETATM   30  C   UNL     1       8.172  20.383  53.320  1.00  0.00     0.037 A 
HETATM   31  C   UNL     1       7.779  21.562  52.690  1.00  0.00     0.010 A 
BRANCH  29  32
HETATM   32  O   UNL     1       9.124  19.260  55.157  1.00  0.00    -0.361 OA
HETATM   33  H   UNL     1       9.772  19.444  55.858  1.00  0.00     0.217 HD
ENDBRANCH  29  32
ENDBRANCH  25  26
ENDBRANCH  23  25
ENDBRANCH   1  23
TORSDOF 9
ENDMDL
MODEL 7
REMARK VINA RESULT:      -8.2      5.170      7.681
REMARK  9 active torsions:
REMARK  status: ('A' for Active; 'I' for Inactive)
REMARK    1  A    between atoms: C_2  and  N_3 
REMARK    2  A    between atoms: C_2  and  C_23 
REMARK       I    between atoms: N_3  and  C_4 
REMARK       I    between atoms: C_4  and  N_5 
REMARK    3  A    between atoms: N_5  and  C_6 
REMARK    4  A    between atoms: C_6  and  C_7 
REMARK    5  A    between atoms: C_7  and  N_8 
REMARK    6  A    between atoms: C_7  and  C_14 
REMARK    7  A    between atoms: C_15  and  O_16 
REMARK    8  A    between atoms: C_23  and  C_24 
REMARK    9  A    between atoms: C_27  and  O_28 
ROOT
HETATM    1  N   UNL     1       7.076  25.674  51.848  1.00  0.00    -0.339 N 
HETATM    2  C   UNL     1       5.862  26.248  51.596  1.00  0.00     0.316 C 
HETATM    3  N   UNL     1       5.695  26.527  50.261  1.00  0.00    -0.341 N 
HETATM    4  O   UNL     1       5.057  26.596  52.447  1.00  0.00    -0.248 OA
HETATM    5  H   UNL     1       7.431  25.061  51.129  1.00  0.00     0.164 HD
HETATM    6  H   UNL     1       6.231  25.926  49.649  1.00  0.00     0.164 HD
ENDROOT
BRANCH   3   7
HETATM    7  C   UNL     1       4.383  26.924  49.765  1.00  0.00     0.162 C 
BRANCH   7   8
HETATM    8  C   UNL     1       4.276  28.246  48.923  1.00  0.00     0.241 C 
BRANCH   8   9
HETATM    9  N   UNL     1       3.194  28.192  47.816  1.00  0.00    -0.061 N 
HETATM   10  H   UNL     1       3.572  28.804  47.082  1.00  0.00     0.280 HD
HETATM   11  C   UNL     1       1.804  28.677  48.144  1.00  0.00     0.236 C 
HETATM   12  C   UNL     1       0.917  27.462  47.983  1.00  0.00     0.029 C 
HETATM   13  C   UNL     1       1.566  26.715  46.838  1.00  0.00     0.029 C 
HETATM   14  C   UNL     1       3.051  26.845  47.126  1.00  0.00     0.236 C 
ENDBRANCH   8   9
BRANCH   8  15
HETATM   15  C   UNL     1       4.125  29.451  49.864  1.00  0.00     0.007 A 
HETATM   16  C   UNL     1       4.535  30.728  49.408  1.00  0.00     0.076 A 
HETATM   17  C   UNL     1       4.413  31.849  50.235  1.00  0.00     0.037 A 
HETATM   18  C   UNL     1       3.897  31.721  51.522  1.00  0.00     0.003 A 
HETATM   19  C   UNL     1       3.503  30.474  51.991  1.00  0.00     0.001 A 
HETATM   20  C   UNL     1       3.618  29.348  51.173  1.00  0.00     0.012 A 
BRANCH  16  21
HETATM   21  O   UNL     1       5.025  30.774  48.129  1.00  0.00    -0.355 OA
HETATM   22  C   UNL     1       4.411  31.695  47.228  1.00  0.00     0.210 C 
ENDBRANCH  16  21
ENDBRANCH   8  15
ENDBRANCH   7   8
ENDBRANCH   3   7
BRANCH   1  23
HETATM   23  C   UNL     1       7.546  25.355  53.201  1.00  0.00     0.086 C 
HETATM   24  C   UNL     1       7.722  26.626  54.034  1.00  0.00     0.032 C 
BRANCH  23  25
HETATM   25  C   UNL     1       6.675  24.324  53.951  1.00  0.00     0.063 C 
BRANCH  25  26
HETATM   26  C   UNL     1       7.338  22.974  54.109  1.00  0.00    -0.056 A 
HETATM   27  C   UNL     1       7.770  22.250  52.989  1.00  0.00     0.010 A 
HETATM   28  C   UNL     1       8.370  20.998  53.144  1.00  0.00     0.037 A 
HETATM   29  C   UNL     1       8.536  20.472  54.421  1.00  0.00     0.065 A 
HETATM   30  C   UNL     1       8.115  21.176  55.542  1.00  0.00     0.037 A 
HETATM   31  C   UNL     1       7.519  22.426  55.386  1.00  0.00     0.010 A 
BRANCH  29  32
HETATM   32  O   UNL     1       9.116  19.255  54.620  1.00  0.00    -0.361 OA
HETATM   33  H   UNL     1       8.444  18.564  54.493  1.00  0.00     0.217 HD
ENDBRANCH  29  32
ENDBRANCH  25  26
ENDBRANCH  23  25
ENDBRANCH   1  23
TORSDOF 9
ENDMDL
MODEL 8
REMARK VINA RESULT:      -8.0      5.299      7.810
REMARK  9 active torsions:
REMARK  status: ('A' for Active; 'I' for Inactive)
REMARK    1  A    between atoms: C_2  and  N_3 
REMARK    2  A    between atoms: C_2  and  C_23 
REMARK       I    between atoms: N_3  and  C_4 
REMARK       I    between atoms: C_4  and  N_5 
REMARK    3  A    between atoms: N_5  and  C_6 
REMARK    4  A    between atoms: C_6  and  C_7 
REMARK    5  A    between atoms: C_7  and  N_8 
REMARK    6  A    between atoms: C_7  and  C_14 
REMARK    7  A    between atoms: C_15  and  O_16 
REMARK    8  A    between atoms: C_23  and  C_24 
REMARK    9  A    between atoms: C_27  and  O_28 
ROOT
HETATM    1  N   UNL     1       6.860  25.577  51.405  1.00  0.00    -0.339 N 
HETATM    2  C   UNL     1       5.591  26.070  51.275  1.00  0.00     0.316 C 
HETATM    3  N   UNL     1       5.314  26.435  49.979  1.00  0.00    -0.341 N 
HETATM    4  O   UNL     1       4.822  26.286  52.200  1.00  0.00    -0.248 OA
HETATM    5  H   UNL     1       7.210  25.051  50.618  1.00  0.00     0.164 HD
HETATM    6  H   UNL     1       5.851  25.928  49.290  1.00  0.00     0.164 HD
ENDROOT
BRANCH   3   7
HETATM    7  C   UNL     1       3.945  26.762  49.599  1.00  0.00     0.162 C 
BRANCH   7   8
HETATM    8  C   UNL     1       3.707  28.023  48.693  1.00  0.00     0.241 C 
BRANCH   8   9
HETATM    9  N   UNL     1       2.219  28.265  48.342  1.00  0.00    -0.061 N 
HETATM   10  H   UNL     1       1.853  28.750  49.170  1.00  0.00     0.280 HD
HETATM   11  C   UNL     1       1.336  27.069  48.086  1.00  0.00     0.236 C 
HETATM   12  C   UNL     1       0.891  27.211  46.646  1.00  0.00     0.029 C 
HETATM   13  C   UNL     1       0.768  28.709  46.474  1.00  0.00     0.029 C 
HETATM   14  C   UNL     1       1.980  29.251  47.210  1.00  0.00     0.236 C 
ENDBRANCH   8   9
BRANCH   8  15
HETATM   15  C   UNL     1       4.393  29.249  49.317  1.00  0.00     0.007 A 
HETATM   16  C   UNL     1       3.821  29.836  50.471  1.00  0.00     0.076 A 
HETATM   17  C   UNL     1       4.416  30.952  51.068  1.00  0.00     0.037 A 
HETATM   18  C   UNL     1       5.573  31.506  50.527  1.00  0.00     0.003 A 
HETATM   19  C   UNL     1       6.141  30.951  49.387  1.00  0.00     0.001 A 
HETATM   20  C   UNL     1       5.556  29.835  48.783  1.00  0.00     0.012 A 
BRANCH  16  21
HETATM   21  O   UNL     1       2.688  29.230  50.949  1.00  0.00    -0.355 OA
HETATM   22  C   UNL     1       2.683  28.847  52.323  1.00  0.00     0.210 C 
ENDBRANCH  16  21
ENDBRANCH   8  15
ENDBRANCH   7   8
ENDBRANCH   3   7
BRANCH   1  23
HETATM   23  C   UNL     1       7.442  25.195  52.696  1.00  0.00     0.086 C 
HETATM   24  C   UNL     1       7.829  26.431  53.510  1.00  0.00     0.032 C 
BRANCH  23  25
HETATM   25  C   UNL     1       6.565  24.239  53.533  1.00  0.00     0.063 C 
BRANCH  25  26
HETATM   26  C   UNL     1       7.248  22.934  53.875  1.00  0.00    -0.056 A 
HETATM   27  C   UNL     1       7.379  22.519  55.207  1.00  0.00     0.010 A 
HETATM   28  C   UNL     1       8.023  21.317  55.513  1.00  0.00     0.037 A 
HETATM   29  C   UNL     1       8.535  20.534  54.485  1.00  0.00     0.065 A 
HETATM   30  C   UNL     1       8.413  20.930  53.159  1.00  0.00     0.037 A 
HETATM   31  C   UNL     1       7.768  22.127  52.854  1.00  0.00     0.010 A 
BRANCH  29  32
HETATM   32  O   UNL     1       9.171  19.355  54.737  1.00  0.00    -0.361 OA
HETATM   33  H   UNL     1       9.632  19.424  55.590  1.00  0.00     0.217 HD
ENDBRANCH  29  32
ENDBRANCH  25  26
ENDBRANCH  23  25
ENDBRANCH   1  23
TORSDOF 9
ENDMDL
MODEL 9
REMARK VINA RESULT:      -7.7      2.534      3.622
REMARK  9 active torsions:
REMARK  status: ('A' for Active; 'I' for Inactive)
REMARK    1  A    between atoms: C_2  and  N_3 
REMARK    2  A    between atoms: C_2  and  C_23 
REMARK       I    between atoms: N_3  and  C_4 
REMARK       I    between atoms: C_4  and  N_5 
REMARK    3  A    between atoms: N_5  and  C_6 
REMARK    4  A    between atoms: C_6  and  C_7 
REMARK    5  A    between atoms: C_7  and  N_8 
REMARK    6  A    between atoms: C_7  and  C_14 
REMARK    7  A    between atoms: C_15  and  O_16 
REMARK    8  A    between atoms: C_23  and  C_24 
REMARK    9  A    between atoms: C_27  and  O_28 
ROOT
HETATM    1  N   UNL     1       6.523  29.445  55.475  1.00  0.00    -0.339 N 
HETATM    2  C   UNL     1       5.928  29.564  56.699  1.00  0.00     0.316 C 
HETATM    3  N   UNL     1       6.328  30.703  57.356  1.00  0.00    -0.341 N 
HETATM    4  O   UNL     1       5.220  28.716  57.223  1.00  0.00    -0.248 OA
HETATM    5  H   UNL     1       6.693  30.310  54.983  1.00  0.00     0.164 HD
HETATM    6  H   UNL     1       6.618  31.448  56.738  1.00  0.00     0.164 HD
ENDROOT
BRANCH   3   7
HETATM    7  C   UNL     1       5.631  31.120  58.566  1.00  0.00     0.162 C 
BRANCH   7   8
HETATM    8  C   UNL     1       5.983  32.524  59.178  1.00  0.00     0.241 C 
BRANCH   8   9
HETATM    9  N   UNL     1       4.751  33.441  59.379  1.00  0.00    -0.061 N 
HETATM   10  H   UNL     1       4.603  33.852  58.450  1.00  0.00     0.280 HD
HETATM   11  C   UNL     1       4.853  34.575  60.369  1.00  0.00     0.236 C 
HETATM   12  C   UNL     1       3.818  34.264  61.429  1.00  0.00     0.029 C 
HETATM   13  C   UNL     1       2.708  33.606  60.639  1.00  0.00     0.029 C 
HETATM   14  C   UNL     1       3.449  32.710  59.664  1.00  0.00     0.236 C 
ENDBRANCH   8   9
BRANCH   8  15
HETATM   15  C   UNL     1       6.821  32.341  60.453  1.00  0.00     0.007 A 
HETATM   16  C   UNL     1       8.232  32.307  60.342  1.00  0.00     0.076 A 
HETATM   17  C   UNL     1       9.029  32.142  61.479  1.00  0.00     0.037 A 
HETATM   18  C   UNL     1       8.443  31.999  62.734  1.00  0.00     0.003 A 
HETATM   19  C   UNL     1       7.059  32.015  62.860  1.00  0.00     0.001 A 
HETATM   20  C   UNL     1       6.254  32.180  61.731  1.00  0.00     0.012 A 
BRANCH  16  21
HETATM   21  O   UNL     1       8.734  32.463  59.076  1.00  0.00    -0.355 OA
HETATM   22  C   UNL     1       9.830  31.631  58.701  1.00  0.00     0.210 C 
ENDBRANCH  16  21
ENDBRANCH   8  15
ENDBRANCH   7   8
ENDBRANCH   3   7
BRANCH   1  23
HETATM   23  C   UNL     1       6.339  28.280  54.603  1.00  0.00     0.086 C 
HETATM   24  C   UNL     1       5.310  28.572  53.509  1.00  0.00     0.032 C 
BRANCH  23  25
HETATM   25  C   UNL     1       7.645  27.726  53.994  1.00  0.00     0.063 C 
BRANCH  25  26
HETATM   26  C   UNL     1       7.620  26.232  53.767  1.00  0.00    -0.056 A 
HETATM   27  C   UNL     1       7.363  25.348  54.824  1.00  0.00     0.010 A 
HETATM   28  C   UNL     1       7.354  23.968  54.605  1.00  0.00     0.037 A 
HETATM   29  C   UNL     1       7.603  23.475  53.328  1.00  0.00     0.065 A 
HETATM   30  C   UNL     1       7.857  24.337  52.269  1.00  0.00     0.037 A 
HETATM   31  C   UNL     1       7.864  25.713  52.487  1.00  0.00     0.010 A 
BRANCH  29  32
HETATM   32  O   UNL     1       7.604  22.137  53.069  1.00  0.00    -0.361 OA
HETATM   33  H   UNL     1       7.001  21.697  53.692  1.00  0.00     0.217 HD
ENDBRANCH  29  32
ENDBRANCH  25  26
ENDBRANCH  23  25
ENDBRANCH   1  23
TORSDOF 9
ENDMDL
MODEL 10
REMARK VINA RESULT:      -7.7      6.536      8.557
REMARK  9 active torsions:
REMARK  status: ('A' for Active; 'I' for Inactive)
REMARK    1  A    between atoms: C_2  and  N_3 
REMARK    2  A    between atoms: C_2  and  C_23 
REMARK       I    between atoms: N_3  and  C_4 
REMARK       I    between atoms: C_4  and  N_5 
REMARK    3  A    between atoms: N_5  and  C_6 
REMARK    4  A    between atoms: C_6  and  C_7 
REMARK    5  A    between atoms: C_7  and  N_8 
REMARK    6  A    between atoms: C_7  and  C_14 
REMARK    7  A    between atoms: C_15  and  O_16 
REMARK    8  A    between atoms: C_23  and  C_24 
REMARK    9  A    between atoms: C_27  and  O_28 
ROOT
HETATM    1  N   UNL     1       6.105  26.189  51.013  1.00  0.00    -0.339 N 
HETATM    2  C   UNL     1       5.747  27.507  51.067  1.00  0.00     0.316 C 
HETATM    3  N   UNL     1       5.628  28.057  49.813  1.00  0.00    -0.341 N 
HETATM    4  O   UNL     1       5.658  28.171  52.089  1.00  0.00    -0.248 OA
HETATM    5  H   UNL     1       5.734  25.663  50.236  1.00  0.00     0.164 HD
HETATM    6  H   UNL     1       5.397  27.385  49.094  1.00  0.00     0.164 HD
ENDROOT
BRANCH   3   7
HETATM    7  C   UNL     1       5.031  29.377  49.658  1.00  0.00     0.162 C 
BRANCH   7   8
HETATM    8  C   UNL     1       4.612  29.838  48.215  1.00  0.00     0.241 C 
BRANCH   8   9
HETATM    9  N   UNL     1       3.110  29.621  47.905  1.00  0.00    -0.061 N 
HETATM   10  H   UNL     1       2.914  30.314  47.173  1.00  0.00     0.280 HD
HETATM   11  C   UNL     1       2.108  29.832  49.013  1.00  0.00     0.236 C 
HETATM   12  C   UNL     1       1.461  28.480  49.218  1.00  0.00     0.029 C 
HETATM   13  C   UNL     1       1.430  27.902  47.821  1.00  0.00     0.029 C 
HETATM   14  C   UNL     1       2.778  28.293  47.245  1.00  0.00     0.236 C 
ENDBRANCH   8   9
BRANCH   8  15
HETATM   15  C   UNL     1       5.082  31.281  47.973  1.00  0.00     0.007 A 
HETATM   16  C   UNL     1       4.949  31.832  46.675  1.00  0.00     0.076 A 
HETATM   17  C   UNL     1       5.365  33.142  46.415  1.00  0.00     0.037 A 
HETATM   18  C   UNL     1       5.925  33.916  47.428  1.00  0.00     0.003 A 
HETATM   19  C   UNL     1       6.076  33.387  48.704  1.00  0.00     0.001 A 
HETATM   20  C   UNL     1       5.663  32.080  48.975  1.00  0.00     0.012 A 
BRANCH  16  21
HETATM   21  O   UNL     1       4.382  31.012  45.735  1.00  0.00    -0.355 OA
HETATM   22  C   UNL     1       3.638  31.635  44.689  1.00  0.00     0.210 C 
ENDBRANCH  16  21
ENDBRANCH   8  15
ENDBRANCH   7   8
ENDBRANCH   3   7
BRANCH   1  23
HETATM   23  C   UNL     1       6.384  25.385  52.208  1.00  0.00     0.086 C 
HETATM   24  C   UNL     1       5.142  24.610  52.650  1.00  0.00     0.032 C 
BRANCH  23  25
HETATM   25  C   UNL     1       7.600  24.443  52.073  1.00  0.00     0.063 C 
BRANCH  25  26
HETATM   26  C   UNL     1       7.812  23.553  53.277  1.00  0.00    -0.056 A 
HETATM   27  C   UNL     1       8.047  24.103  54.545  1.00  0.00     0.010 A 
HETATM   28  C   UNL     1       8.254  23.272  55.649  1.00  0.00     0.037 A 
HETATM   29  C   UNL     1       8.226  21.892  55.482  1.00  0.00     0.065 A 
HETATM   30  C   UNL     1       7.993  21.330  54.233  1.00  0.00     0.037 A 
HETATM   31  C   UNL     1       7.784  22.159  53.132  1.00  0.00     0.010 A 
BRANCH  29  32
HETATM   32  O   UNL     1       8.423  21.044  56.530  1.00  0.00    -0.361 OA
HETATM   33  H   UNL     1       9.346  20.739  56.517  1.00  0.00     0.217 HD
ENDBRANCH  29  32
ENDBRANCH  25  26
ENDBRANCH  23  25
ENDBRANCH   1  23
TORSDOF 9
ENDMDL
