MODEL 1
REMARK VINA RESULT:      -9.6      0.000      0.000
REMARK  3 active torsions:
REMARK  status: ('A' for Active; 'I' for Inactive)
REMARK    1  A    between atoms: C_2  and  C_3 
REMARK    2  A    between atoms: C_8  and  C_9 
REMARK    3  A    between atoms: C_9  and  N_10 
ROOT
HETATM    1  C   UNL     1       5.112  27.158  55.005  1.00  0.00     0.096 A 
HETATM    2  N   UNL     1       4.709  28.325  55.525  1.00  0.00    -0.174 NA
HETATM    3  N   UNL     1       4.836  28.191  56.848  1.00  0.00    -0.288 N 
HETATM    4  H   UNL     1       4.543  28.963  57.442  1.00  0.00     0.188 HD
HETATM    5  C   UNL     1       5.382  26.997  57.209  1.00  0.00     0.120 A 
HETATM    6  C   UNL     1       5.583  26.285  56.041  1.00  0.00     0.016 A 
ENDROOT
BRANCH   6   7
HETATM    7  C   UNL     1       6.171  24.926  55.941  1.00  0.00     0.277 C 
BRANCH   7   8
HETATM    8  N   UNL     1       7.652  24.895  55.607  1.00  0.00    -0.067 N 
HETATM    9  H   UNL     1       7.920  25.887  55.534  1.00  0.00     0.280 HD
HETATM   10  C   UNL     1       7.942  24.284  54.254  1.00  0.00     0.242 C 
HETATM   11  C   UNL     1       7.777  22.770  54.313  1.00  0.00     0.041 C 
HETATM   12  C   UNL     1       8.679  22.173  55.397  1.00  0.00     0.128 C 
HETATM   13  C   UNL     1       8.084  22.094  52.972  1.00  0.00     0.011 C 
HETATM   14  O   UNL     1       8.433  20.772  55.499  1.00  0.00    -0.385 OA
HETATM   15  C   UNL     1       8.399  22.809  56.755  1.00  0.00     0.060 C 
HETATM   16  C   UNL     1       8.782  20.069  54.302  1.00  0.00     0.168 C 
HETATM   17  C   UNL     1       7.969  20.576  53.115  1.00  0.00     0.027 C 
HETATM   18  C   UNL     1       8.532  24.319  56.692  1.00  0.00     0.237 C 
ENDBRANCH   7   8
ENDBRANCH   6   7
BRANCH   1  19
HETATM   19  C   UNL     1       5.092  26.963  53.552  1.00  0.00    -0.002 A 
HETATM   20  C   UNL     1       4.957  25.666  53.029  1.00  0.00     0.017 A 
HETATM   21  C   UNL     1       4.907  25.449  51.649  1.00  0.00     0.040 A 
HETATM   22  C   UNL     1       4.982  26.529  50.776  1.00  0.00     0.102 A 
HETATM   23  C   UNL     1       5.152  27.819  51.283  1.00  0.00     0.103 A 
HETATM   24  O   UNL     1       4.903  26.247  49.440  1.00  0.00    -0.346 OA
HETATM   25  C   UNL     1       5.212  28.037  52.661  1.00  0.00     0.053 A 
HETATM   26  O   UNL     1       5.255  28.928  50.485  1.00  0.00    -0.346 OA
HETATM   27  C   UNL     1       5.592  28.563  49.137  1.00  0.00     0.202 C 
HETATM   28  C   UNL     1       4.706  27.427  48.652  1.00  0.00     0.202 C 
ENDBRANCH   1  19
TORSDOF 3
ENDMDL
MODEL 2
REMARK VINA RESULT:      -9.6      3.267      5.044
REMARK  3 active torsions:
REMARK  status: ('A' for Active; 'I' for Inactive)
REMARK    1  A    between atoms: C_2  and  C_3 
REMARK    2  A    between atoms: C_8  and  C_9 
REMARK    3  A    between atoms: C_9  and  N_10 
ROOT
HETATM    1  C   UNL     1       5.780  27.122  55.089  1.00  0.00     0.096 A 
HETATM    2  N   UNL     1       4.993  27.540  54.089  1.00  0.00    -0.174 NA
HETATM    3  N   UNL     1       4.551  26.431  53.492  1.00  0.00    -0.288 N 
HETATM    4  H   UNL     1       3.958  26.527  52.671  1.00  0.00     0.188 HD
HETATM    5  C   UNL     1       4.963  25.293  54.117  1.00  0.00     0.120 A 
HETATM    6  C   UNL     1       5.768  25.690  55.169  1.00  0.00     0.016 A 
ENDROOT
BRANCH   6   7
HETATM    7  C   UNL     1       6.436  24.789  56.141  1.00  0.00     0.277 C 
BRANCH   7   8
HETATM    8  N   UNL     1       7.933  24.634  55.943  1.00  0.00    -0.067 N 
HETATM    9  H   UNL     1       8.301  25.594  56.003  1.00  0.00     0.280 HD
HETATM   10  C   UNL     1       8.300  24.134  54.563  1.00  0.00     0.242 C 
HETATM   11  C   UNL     1       7.986  22.648  54.441  1.00  0.00     0.041 C 
HETATM   12  C   UNL     1       8.710  21.853  55.531  1.00  0.00     0.128 C 
HETATM   13  C   UNL     1       8.362  22.080  53.068  1.00  0.00     0.011 C 
HETATM   14  O   UNL     1       8.321  20.483  55.456  1.00  0.00    -0.385 OA
HETATM   15  C   UNL     1       8.355  22.377  56.919  1.00  0.00     0.060 C 
HETATM   16  C   UNL     1       8.722  19.869  54.227  1.00  0.00     0.168 C 
HETATM   17  C   UNL     1       8.088  20.576  53.032  1.00  0.00     0.027 C 
HETATM   18  C   UNL     1       8.638  23.863  57.034  1.00  0.00     0.237 C 
ENDBRANCH   7   8
ENDBRANCH   6   7
BRANCH   1  19
HETATM   19  C   UNL     1       6.442  28.104  55.954  1.00  0.00    -0.002 A 
HETATM   20  C   UNL     1       5.665  28.971  56.740  1.00  0.00     0.017 A 
HETATM   21  C   UNL     1       6.265  29.899  57.594  1.00  0.00     0.040 A 
HETATM   22  C   UNL     1       7.651  29.963  57.681  1.00  0.00     0.102 A 
HETATM   23  C   UNL     1       8.435  29.130  56.880  1.00  0.00     0.103 A 
HETATM   24  O   UNL     1       8.171  30.877  58.555  1.00  0.00    -0.346 OA
HETATM   25  C   UNL     1       7.837  28.209  56.018  1.00  0.00     0.053 A 
HETATM   26  O   UNL     1       9.806  29.151  56.896  1.00  0.00    -0.346 OA
HETATM   27  C   UNL     1      10.295  30.370  57.476  1.00  0.00     0.202 C 
HETATM   28  C   UNL     1       9.572  30.672  58.779  1.00  0.00     0.202 C 
ENDBRANCH   1  19
TORSDOF 3
ENDMDL
MODEL 3
REMARK VINA RESULT:      -9.6      3.140      7.175
REMARK  3 active torsions:
REMARK  status: ('A' for Active; 'I' for Inactive)
REMARK    1  A    between atoms: C_2  and  C_3 
REMARK    2  A    between atoms: C_8  and  C_9 
REMARK    3  A    between atoms: C_9  and  N_10 
ROOT
HETATM    1  C   UNL     1       5.783  25.300  53.719  1.00  0.00     0.096 A 
HETATM    2  N   UNL     1       4.698  25.219  52.937  1.00  0.00    -0.174 NA
HETATM    3  N   UNL     1       4.175  26.448  52.921  1.00  0.00    -0.288 N 
HETATM    4  H   UNL     1       3.310  26.598  52.407  1.00  0.00     0.188 HD
HETATM    5  C   UNL     1       4.926  27.352  53.609  1.00  0.00     0.120 A 
HETATM    6  C   UNL     1       5.990  26.653  54.148  1.00  0.00     0.016 A 
ENDROOT
BRANCH   6   7
HETATM    7  C   UNL     1       7.083  27.230  54.971  1.00  0.00     0.277 C 
BRANCH   7   8
HETATM    8  N   UNL     1       6.950  26.992  56.464  1.00  0.00    -0.067 N 
HETATM    9  H   UNL     1       6.659  26.007  56.543  1.00  0.00     0.280 HD
HETATM   10  C   UNL     1       5.842  27.804  57.098  1.00  0.00     0.242 C 
HETATM   11  C   UNL     1       6.264  29.264  57.223  1.00  0.00     0.041 C 
HETATM   12  C   UNL     1       7.566  29.381  58.021  1.00  0.00     0.128 C 
HETATM   13  C   UNL     1       5.187  30.131  57.884  1.00  0.00     0.011 C 
HETATM   14  O   UNL     1       7.990  30.742  58.038  1.00  0.00    -0.385 OA
HETATM   15  C   UNL     1       8.673  28.541  57.392  1.00  0.00     0.060 C 
HETATM   16  C   UNL     1       7.063  31.593  58.720  1.00  0.00     0.168 C 
HETATM   17  C   UNL     1       5.696  31.564  58.043  1.00  0.00     0.027 C 
HETATM   18  C   UNL     1       8.244  27.093  57.238  1.00  0.00     0.237 C 
ENDBRANCH   7   8
ENDBRANCH   6   7
BRANCH   1  19
HETATM   19  C   UNL     1       6.600  24.106  53.958  1.00  0.00    -0.002 A 
HETATM   20  C   UNL     1       7.105  23.382  52.865  1.00  0.00     0.017 A 
HETATM   21  C   UNL     1       7.909  22.255  53.059  1.00  0.00     0.040 A 
HETATM   22  C   UNL     1       8.225  21.845  54.349  1.00  0.00     0.102 A 
HETATM   23  C   UNL     1       7.700  22.536  55.443  1.00  0.00     0.103 A 
HETATM   24  O   UNL     1       9.035  20.749  54.465  1.00  0.00    -0.346 OA
HETATM   25  C   UNL     1       6.889  23.656  55.252  1.00  0.00     0.053 A 
HETATM   26  O   UNL     1       7.950  22.178  56.743  1.00  0.00    -0.346 OA
HETATM   27  C   UNL     1       8.425  20.824  56.822  1.00  0.00     0.202 C 
HETATM   28  C   UNL     1       9.525  20.582  55.801  1.00  0.00     0.202 C 
ENDBRANCH   1  19
TORSDOF 3
ENDMDL
MODEL 4
REMARK VINA RESULT:      -9.4      2.944      5.145
REMARK  3 active torsions:
REMARK  status: ('A' for Active; 'I' for Inactive)
REMARK    1  A    between atoms: C_2  and  C_3 
REMARK    2  A    between atoms: C_8  and  C_9 
REMARK    3  A    between atoms: C_9  and  N_10 
ROOT
HETATM    1  C   UNL     1       5.379  27.368  52.495  1.00  0.00     0.096 A 
HETATM    2  N   UNL     1       4.380  27.952  51.819  1.00  0.00    -0.174 NA
HETATM    3  N   UNL     1       4.297  27.292  50.661  1.00  0.00    -0.288 N 
HETATM    4  H   UNL     1       3.615  27.605  49.974  1.00  0.00     0.188 HD
HETATM    5  C   UNL     1       5.161  26.242  50.586  1.00  0.00     0.120 A 
HETATM    6  C   UNL     1       5.890  26.247  51.761  1.00  0.00     0.016 A 
ENDROOT
BRANCH   6   7
HETATM    7  C   UNL     1       6.949  25.274  52.132  1.00  0.00     0.277 C 
BRANCH   7   8
HETATM    8  N   UNL     1       6.461  24.070  52.917  1.00  0.00    -0.067 N 
HETATM    9  H   UNL     1       5.650  23.725  52.383  1.00  0.00     0.280 HD
HETATM   10  C   UNL     1       5.933  24.429  54.288  1.00  0.00     0.242 C 
HETATM   11  C   UNL     1       7.088  24.754  55.229  1.00  0.00     0.041 C 
HETATM   12  C   UNL     1       8.069  23.581  55.301  1.00  0.00     0.128 C 
HETATM   13  C   UNL     1       6.611  25.103  56.643  1.00  0.00     0.011 C 
HETATM   14  O   UNL     1       9.187  23.948  56.106  1.00  0.00    -0.385 OA
HETATM   15  C   UNL     1       8.580  23.207  53.913  1.00  0.00     0.060 C 
HETATM   16  C   UNL     1       8.819  24.204  57.466  1.00  0.00     0.168 C 
HETATM   17  C   UNL     1       7.815  25.350  57.553  1.00  0.00     0.027 C 
HETATM   18  C   UNL     1       7.431  22.912  52.966  1.00  0.00     0.237 C 
ENDBRANCH   7   8
ENDBRANCH   6   7
BRANCH   1  19
HETATM   19  C   UNL     1       5.744  27.863  53.826  1.00  0.00    -0.002 A 
HETATM   20  C   UNL     1       4.745  28.040  54.798  1.00  0.00     0.017 A 
HETATM   21  C   UNL     1       5.063  28.484  56.084  1.00  0.00     0.040 A 
HETATM   22  C   UNL     1       6.388  28.746  56.417  1.00  0.00     0.102 A 
HETATM   23  C   UNL     1       7.385  28.606  55.449  1.00  0.00     0.103 A 
HETATM   24  O   UNL     1       6.631  29.154  57.699  1.00  0.00    -0.346 OA
HETATM   25  C   UNL     1       7.068  28.173  54.161  1.00  0.00     0.053 A 
HETATM   26  O   UNL     1       8.709  28.866  55.698  1.00  0.00    -0.346 OA
HETATM   27  C   UNL     1       8.862  29.675  56.875  1.00  0.00     0.202 C 
HETATM   28  C   UNL     1       8.027  29.122  58.018  1.00  0.00     0.202 C 
ENDBRANCH   1  19
TORSDOF 3
ENDMDL
MODEL 5
REMARK VINA RESULT:      -8.8      1.572      6.848
REMARK  3 active torsions:
REMARK  status: ('A' for Active; 'I' for Inactive)
REMARK    1  A    between atoms: C_2  and  C_3 
REMARK    2  A    between atoms: C_8  and  C_9 
REMARK    3  A    between atoms: C_9  and  N_10 
ROOT
HETATM    1  C   UNL     1       7.612  26.282  56.325  1.00  0.00     0.096 A 
HETATM    2  N   UNL     1       7.913  26.496  57.613  1.00  0.00    -0.174 NA
HETATM    3  N   UNL     1       7.660  27.789  57.830  1.00  0.00    -0.288 N 
HETATM    4  H   UNL     1       7.860  28.173  58.750  1.00  0.00     0.188 HD
HETATM    5  C   UNL     1       7.130  28.415  56.742  1.00  0.00     0.120 A 
HETATM    6  C   UNL     1       7.076  27.472  55.732  1.00  0.00     0.016 A 
ENDROOT
BRANCH   6   7
HETATM    7  C   UNL     1       6.556  27.697  54.359  1.00  0.00     0.277 C 
BRANCH   7   8
HETATM    8  N   UNL     1       5.115  27.271  54.146  1.00  0.00    -0.067 N 
HETATM    9  H   UNL     1       4.889  26.703  54.975  1.00  0.00     0.280 HD
HETATM   10  C   UNL     1       4.938  26.355  52.954  1.00  0.00     0.242 C 
HETATM   11  C   UNL     1       5.045  27.151  51.658  1.00  0.00     0.041 C 
HETATM   12  C   UNL     1       4.023  28.291  51.641  1.00  0.00     0.128 C 
HETATM   13  C   UNL     1       4.848  26.276  50.416  1.00  0.00     0.011 C 
HETATM   14  O   UNL     1       4.211  29.077  50.466  1.00  0.00    -0.385 OA
HETATM   15  C   UNL     1       4.190  29.197  52.856  1.00  0.00     0.060 C 
HETATM   16  C   UNL     1       3.956  28.337  49.268  1.00  0.00     0.168 C 
HETATM   17  C   UNL     1       4.898  27.141  49.156  1.00  0.00     0.027 C 
HETATM   18  C   UNL     1       4.114  28.403  54.148  1.00  0.00     0.237 C 
ENDBRANCH   7   8
ENDBRANCH   6   7
BRANCH   1  19
HETATM   19  C   UNL     1       7.785  24.944  55.750  1.00  0.00    -0.002 A 
HETATM   20  C   UNL     1       7.801  24.786  54.354  1.00  0.00     0.017 A 
HETATM   21  C   UNL     1       7.991  23.530  53.774  1.00  0.00     0.040 A 
HETATM   22  C   UNL     1       8.178  22.415  54.585  1.00  0.00     0.102 A 
HETATM   23  C   UNL     1       8.130  22.554  55.974  1.00  0.00     0.103 A 
HETATM   24  O   UNL     1       8.383  21.221  53.951  1.00  0.00    -0.346 OA
HETATM   25  C   UNL     1       7.930  23.807  56.555  1.00  0.00     0.053 A 
HETATM   26  O   UNL     1       8.285  21.499  56.835  1.00  0.00    -0.346 OA
HETATM   27  C   UNL     1       8.070  20.248  56.162  1.00  0.00     0.202 C 
HETATM   28  C   UNL     1       8.841  20.205  54.852  1.00  0.00     0.202 C 
ENDBRANCH   1  19
TORSDOF 3
ENDMDL
MODEL 6
REMARK VINA RESULT:      -8.7      2.849      4.576
REMARK  3 active torsions:
REMARK  status: ('A' for Active; 'I' for Inactive)
REMARK    1  A    between atoms: C_2  and  C_3 
REMARK    2  A    between atoms: C_8  and  C_9 
REMARK    3  A    between atoms: C_9  and  N_10 
ROOT
HETATM    1  C   UNL     1       4.912  27.457  52.621  1.00  0.00     0.096 A 
HETATM    2  N   UNL     1       4.507  27.810  51.394  1.00  0.00    -0.174 NA
HETATM    3  N   UNL     1       4.611  26.705  50.651  1.00  0.00    -0.288 N 
HETATM    4  H   UNL     1       4.383  26.766  49.661  1.00  0.00     0.188 HD
HETATM    5  C   UNL     1       5.000  25.617  51.371  1.00  0.00     0.120 A 
HETATM    6  C   UNL     1       5.209  26.055  52.666  1.00  0.00     0.016 A 
ENDROOT
BRANCH   6   7
HETATM    7  C   UNL     1       5.635  25.211  53.811  1.00  0.00     0.277 C 
BRANCH   7   8
HETATM    8  N   UNL     1       7.131  25.190  54.067  1.00  0.00    -0.067 N 
HETATM    9  H   UNL     1       7.457  26.117  53.759  1.00  0.00     0.280 HD
HETATM   10  C   UNL     1       7.865  24.184  53.208  1.00  0.00     0.242 C 
HETATM   11  C   UNL     1       7.613  22.771  53.719  1.00  0.00     0.041 C 
HETATM   12  C   UNL     1       8.023  22.650  55.190  1.00  0.00     0.128 C 
HETATM   13  C   UNL     1       8.355  21.710  52.899  1.00  0.00     0.011 C 
HETATM   14  O   UNL     1       7.685  21.351  55.670  1.00  0.00    -0.385 OA
HETATM   15  C   UNL     1       7.298  23.682  56.048  1.00  0.00     0.060 C 
HETATM   16  C   UNL     1       8.413  20.316  55.000  1.00  0.00     0.168 C 
HETATM   17  C   UNL     1       8.119  20.325  53.503  1.00  0.00     0.027 C 
HETATM   18  C   UNL     1       7.522  25.088  55.523  1.00  0.00     0.237 C 
ENDBRANCH   7   8
ENDBRANCH   6   7
BRANCH   1  19
HETATM   19  C   UNL     1       4.930  28.453  53.698  1.00  0.00    -0.002 A 
HETATM   20  C   UNL     1       3.986  29.493  53.693  1.00  0.00     0.017 A 
HETATM   21  C   UNL     1       3.958  30.443  54.718  1.00  0.00     0.040 A 
HETATM   22  C   UNL     1       4.868  30.357  55.765  1.00  0.00     0.102 A 
HETATM   23  C   UNL     1       5.834  29.348  55.763  1.00  0.00     0.103 A 
HETATM   24  O   UNL     1       4.769  31.304  56.746  1.00  0.00    -0.346 OA
HETATM   25  C   UNL     1       5.869  28.404  54.734  1.00  0.00     0.053 A 
HETATM   26  O   UNL     1       6.776  29.212  56.749  1.00  0.00    -0.346 OA
HETATM   27  C   UNL     1       6.912  30.428  57.501  1.00  0.00     0.202 C 
HETATM   28  C   UNL     1       5.549  30.968  57.900  1.00  0.00     0.202 C 
ENDBRANCH   1  19
TORSDOF 3
ENDMDL
MODEL 7
REMARK VINA RESULT:      -8.6      4.041      7.048
REMARK  3 active torsions:
REMARK  status: ('A' for Active; 'I' for Inactive)
REMARK    1  A    between atoms: C_2  and  C_3 
REMARK    2  A    between atoms: C_8  and  C_9 
REMARK    3  A    between atoms: C_9  and  N_10 
ROOT
HETATM    1  C   UNL     1       5.635  27.810  55.245  1.00  0.00     0.096 A 
HETATM    2  N   UNL     1       4.327  28.081  55.350  1.00  0.00    -0.174 NA
HETATM    3  N   UNL     1       4.255  29.334  55.805  1.00  0.00    -0.288 N 
HETATM    4  H   UNL     1       3.336  29.728  55.993  1.00  0.00     0.188 HD
HETATM    5  C   UNL     1       5.477  29.923  55.931  1.00  0.00     0.120 A 
HETATM    6  C   UNL     1       6.413  28.968  55.575  1.00  0.00     0.016 A 
ENDROOT
BRANCH   6   7
HETATM    7  C   UNL     1       7.885  29.162  55.548  1.00  0.00     0.277 C 
BRANCH   7   8
HETATM    8  N   UNL     1       8.630  28.548  56.719  1.00  0.00    -0.067 N 
HETATM    9  H   UNL     1       8.483  27.534  56.615  1.00  0.00     0.280 HD
HETATM   10  C   UNL     1       8.036  28.919  58.061  1.00  0.00     0.242 C 
HETATM   11  C   UNL     1       8.384  30.361  58.410  1.00  0.00     0.041 C 
HETATM   12  C   UNL     1       9.901  30.567  58.398  1.00  0.00     0.128 C 
HETATM   13  C   UNL     1       7.827  30.784  59.774  1.00  0.00     0.011 C 
HETATM   14  O   UNL     1      10.194  31.943  58.629  1.00  0.00    -0.385 OA
HETATM   15  C   UNL     1      10.498  30.169  57.052  1.00  0.00     0.060 C 
HETATM   16  C   UNL     1       9.775  32.379  59.927  1.00  0.00     0.168 C 
HETATM   17  C   UNL     1       8.267  32.213  60.096  1.00  0.00     0.027 C 
HETATM   18  C   UNL     1      10.128  28.743  56.687  1.00  0.00     0.237 C 
ENDBRANCH   7   8
ENDBRANCH   6   7
BRANCH   1  19
HETATM   19  C   UNL     1       6.070  26.492  54.773  1.00  0.00    -0.002 A 
HETATM   20  C   UNL     1       5.943  26.167  53.412  1.00  0.00     0.017 A 
HETATM   21  C   UNL     1       6.373  24.930  52.925  1.00  0.00     0.040 A 
HETATM   22  C   UNL     1       6.946  24.006  53.793  1.00  0.00     0.102 A 
HETATM   23  C   UNL     1       7.046  24.305  55.154  1.00  0.00     0.103 A 
HETATM   24  O   UNL     1       7.366  22.826  53.246  1.00  0.00    -0.346 OA
HETATM   25  C   UNL     1       6.608  25.536  55.644  1.00  0.00     0.053 A 
HETATM   26  O   UNL     1       7.580  23.437  56.072  1.00  0.00    -0.346 OA
HETATM   27  C   UNL     1       7.608  22.096  55.556  1.00  0.00     0.202 C 
HETATM   28  C   UNL     1       8.185  22.075  54.150  1.00  0.00     0.202 C 
ENDBRANCH   1  19
TORSDOF 3
ENDMDL
MODEL 8
REMARK VINA RESULT:      -8.4      1.949      7.352
REMARK  3 active torsions:
REMARK  status: ('A' for Active; 'I' for Inactive)
REMARK    1  A    between atoms: C_2  and  C_3 
REMARK    2  A    between atoms: C_8  and  C_9 
REMARK    3  A    between atoms: C_9  and  N_10 
ROOT
HETATM    1  C   UNL     1       6.343  26.146  54.831  1.00  0.00     0.096 A 
HETATM    2  N   UNL     1       6.661  26.663  56.025  1.00  0.00    -0.174 NA
HETATM    3  N   UNL     1       6.027  27.836  56.090  1.00  0.00    -0.288 N 
HETATM    4  H   UNL     1       6.167  28.416  56.914  1.00  0.00     0.188 HD
HETATM    5  C   UNL     1       5.239  28.072  55.005  1.00  0.00     0.120 A 
HETATM    6  C   UNL     1       5.409  26.997  54.152  1.00  0.00     0.016 A 
ENDROOT
BRANCH   6   7
HETATM    7  C   UNL     1       4.736  26.811  52.841  1.00  0.00     0.277 C 
BRANCH   7   8
HETATM    8  N   UNL     1       5.411  27.509  51.674  1.00  0.00    -0.067 N 
HETATM    9  H   UNL     1       6.356  27.732  52.019  1.00  0.00     0.280 HD
HETATM   10  C   UNL     1       4.773  28.836  51.327  1.00  0.00     0.242 C 
HETATM   11  C   UNL     1       3.446  28.611  50.610  1.00  0.00     0.041 C 
HETATM   12  C   UNL     1       3.649  27.747  49.362  1.00  0.00     0.128 C 
HETATM   13  C   UNL     1       2.765  29.924  50.211  1.00  0.00     0.011 C 
HETATM   14  O   UNL     1       2.383  27.469  48.768  1.00  0.00    -0.385 OA
HETATM   15  C   UNL     1       4.315  26.421  49.714  1.00  0.00     0.060 C 
HETATM   16  C   UNL     1       1.731  28.653  48.295  1.00  0.00     0.168 C 
HETATM   17  C   UNL     1       1.479  29.631  49.438  1.00  0.00     0.027 C 
HETATM   18  C   UNL     1       5.621  26.642  50.455  1.00  0.00     0.237 C 
ENDBRANCH   7   8
ENDBRANCH   6   7
BRANCH   1  19
HETATM   19  C   UNL     1       6.888  24.845  54.431  1.00  0.00    -0.002 A 
HETATM   20  C   UNL     1       7.312  24.649  53.106  1.00  0.00     0.017 A 
HETATM   21  C   UNL     1       7.861  23.430  52.700  1.00  0.00     0.040 A 
HETATM   22  C   UNL     1       8.001  22.395  53.618  1.00  0.00     0.102 A 
HETATM   23  C   UNL     1       7.551  22.566  54.929  1.00  0.00     0.103 A 
HETATM   24  O   UNL     1       8.568  21.238  53.159  1.00  0.00    -0.346 OA
HETATM   25  C   UNL     1       6.994  23.780  55.334  1.00  0.00     0.053 A 
HETATM   26  O   UNL     1       7.638  21.585  55.883  1.00  0.00    -0.346 OA
HETATM   27  C   UNL     1       7.828  20.296  55.279  1.00  0.00     0.202 C 
HETATM   28  C   UNL     1       8.924  20.352  54.227  1.00  0.00     0.202 C 
ENDBRANCH   1  19
TORSDOF 3
ENDMDL
MODEL 9
REMARK VINA RESULT:      -8.2      2.969      7.385
REMARK  3 active torsions:
REMARK  status: ('A' for Active; 'I' for Inactive)
REMARK    1  A    between atoms: C_2  and  C_3 
REMARK    2  A    between atoms: C_8  and  C_9 
REMARK    3  A    between atoms: C_9  and  N_10 
ROOT
HETATM    1  C   UNL     1       5.854  25.584  52.727  1.00  0.00     0.096 A 
HETATM    2  N   UNL     1       5.360  25.311  51.512  1.00  0.00    -0.174 NA
HETATM    3  N   UNL     1       4.668  26.396  51.154  1.00  0.00    -0.288 N 
HETATM    4  H   UNL     1       4.173  26.381  50.265  1.00  0.00     0.188 HD
HETATM    5  C   UNL     1       4.754  27.404  52.065  1.00  0.00     0.120 A 
HETATM    6  C   UNL     1       5.521  26.924  53.112  1.00  0.00     0.016 A 
ENDROOT
BRANCH   6   7
HETATM    7  C   UNL     1       5.894  27.681  54.334  1.00  0.00     0.277 C 
BRANCH   7   8
HETATM    8  N   UNL     1       4.830  27.709  55.416  1.00  0.00    -0.067 N 
HETATM    9  H   UNL     1       4.152  26.987  55.130  1.00  0.00     0.280 HD
HETATM   10  C   UNL     1       4.058  29.010  55.457  1.00  0.00     0.242 C 
HETATM   11  C   UNL     1       4.915  30.111  56.071  1.00  0.00     0.041 C 
HETATM   12  C   UNL     1       5.394  29.704  57.468  1.00  0.00     0.128 C 
HETATM   13  C   UNL     1       4.174  31.449  56.160  1.00  0.00     0.011 C 
HETATM   14  O   UNL     1       6.272  30.705  57.977  1.00  0.00    -0.385 OA
HETATM   15  C   UNL     1       6.149  28.380  57.425  1.00  0.00     0.060 C 
HETATM   16  C   UNL     1       5.614  31.963  58.166  1.00  0.00     0.168 C 
HETATM   17  C   UNL     1       5.059  32.491  56.846  1.00  0.00     0.027 C 
HETATM   18  C   UNL     1       5.310  27.289  56.786  1.00  0.00     0.237 C 
ENDBRANCH   7   8
ENDBRANCH   6   7
BRANCH   1  19
HETATM   19  C   UNL     1       6.671  24.584  53.423  1.00  0.00    -0.002 A 
HETATM   20  C   UNL     1       7.255  24.906  54.659  1.00  0.00     0.017 A 
HETATM   21  C   UNL     1       8.017  23.967  55.360  1.00  0.00     0.040 A 
HETATM   22  C   UNL     1       8.193  22.691  54.837  1.00  0.00     0.102 A 
HETATM   23  C   UNL     1       7.646  22.371  53.593  1.00  0.00     0.103 A 
HETATM   24  O   UNL     1       8.929  21.815  55.587  1.00  0.00    -0.346 OA
HETATM   25  C   UNL     1       6.894  23.310  52.886  1.00  0.00     0.053 A 
HETATM   26  O   UNL     1       7.796  21.141  53.005  1.00  0.00    -0.346 OA
HETATM   27  C   UNL     1       8.892  20.421  53.591  1.00  0.00     0.202 C 
HETATM   28  C   UNL     1       8.815  20.470  55.109  1.00  0.00     0.202 C 
ENDBRANCH   1  19
TORSDOF 3
ENDMDL
MODEL 10
REMARK VINA RESULT:      -8.0      2.199      6.938
REMARK  3 active torsions:
REMARK  status: ('A' for Active; 'I' for Inactive)
REMARK    1  A    between atoms: C_2  and  C_3 
REMARK    2  A    between atoms: C_8  and  C_9 
REMARK    3  A    between atoms: C_9  and  N_10 
ROOT
HETATM    1  C   UNL     1       5.286  27.870  54.457  1.00  0.00     0.096 A 
HETATM    2  N   UNL     1       5.668  28.493  55.580  1.00  0.00    -0.174 NA
HETATM    3  N   UNL     1       5.044  29.674  55.566  1.00  0.00    -0.288 N 
HETATM    4  H   UNL     1       5.229  30.327  56.323  1.00  0.00     0.188 HD
HETATM    5  C   UNL     1       4.204  29.815  54.503  1.00  0.00     0.120 A 
HETATM    6  C   UNL     1       4.324  28.662  53.749  1.00  0.00     0.016 A 
ENDROOT
BRANCH   6   7
HETATM    7  C   UNL     1       3.585  28.362  52.497  1.00  0.00     0.277 C 
BRANCH   7   8
HETATM    8  N   UNL     1       4.134  29.039  51.254  1.00  0.00    -0.067 N 
HETATM    9  H   UNL     1       4.534  29.923  51.598  1.00  0.00     0.280 HD
HETATM   10  C   UNL     1       3.057  29.427  50.265  1.00  0.00     0.242 C 
HETATM   11  C   UNL     1       2.540  28.192  49.537  1.00  0.00     0.041 C 
HETATM   12  C   UNL     1       3.690  27.454  48.846  1.00  0.00     0.128 C 
HETATM   13  C   UNL     1       1.462  28.530  48.502  1.00  0.00     0.011 C 
HETATM   14  O   UNL     1       3.196  26.252  48.259  1.00  0.00    -0.385 OA
HETATM   15  C   UNL     1       4.784  27.086  49.843  1.00  0.00     0.060 C 
HETATM   16  C   UNL     1       2.244  26.504  47.220  1.00  0.00     0.168 C 
HETATM   17  C   UNL     1       1.035  27.262  47.760  1.00  0.00     0.027 C 
HETATM   18  C   UNL     1       5.280  28.310  50.591  1.00  0.00     0.237 C 
ENDBRANCH   7   8
ENDBRANCH   6   7
BRANCH   1  19
HETATM   19  C   UNL     1       5.803  26.531  54.155  1.00  0.00    -0.002 A 
HETATM   20  C   UNL     1       5.163  25.745  53.183  1.00  0.00     0.017 A 
HETATM   21  C   UNL     1       5.645  24.476  52.853  1.00  0.00     0.040 A 
HETATM   22  C   UNL     1       6.782  23.983  53.485  1.00  0.00     0.102 A 
HETATM   23  C   UNL     1       7.406  24.741  54.477  1.00  0.00     0.103 A 
HETATM   24  O   UNL     1       7.214  22.744  53.096  1.00  0.00    -0.346 OA
HETATM   25  C   UNL     1       6.919  26.004  54.816  1.00  0.00     0.053 A 
HETATM   26  O   UNL     1       8.517  24.312  55.157  1.00  0.00    -0.346 OA
HETATM   27  C   UNL     1       8.676  22.889  55.038  1.00  0.00     0.202 C 
HETATM   28  C   UNL     1       8.527  22.453  53.589  1.00  0.00     0.202 C 
ENDBRANCH   1  19
TORSDOF 3
ENDMDL
