MODEL 1
REMARK VINA RESULT:     -10.9      0.000      0.000
REMARK  8 active torsions:
REMARK  status: ('A' for Active; 'I' for Inactive)
REMARK    1  A    between atoms: C_6  and  N_7 
REMARK       I    between atoms: N_7  and  C_8 
REMARK    2  A    between atoms: C_8  and  C_9 
REMARK    3  A    between atoms: C_9  and  S_10 
REMARK    4  A    between atoms: S_10  and  C_11 
REMARK    5  A    between atoms: N_12  and  C_13 
REMARK    6  A    between atoms: C_13  and  C_14 
REMARK    7  A    between atoms: C_14  and  C_15 
REMARK       I    between atoms: C_15  and  N_16 
REMARK    8  A    between atoms: N_16  and  C_17 
ROOT
HETATM    1  C   UNL     1       6.782  24.425  54.690  1.00  0.00     0.172 A 
HETATM    2  N   UNL     1       7.053  24.117  56.011  1.00  0.00    -0.292 N 
HETATM    3  C   UNL     1       7.769  22.958  56.322  1.00  0.00     0.262 A 
HETATM    4  O   UNL     1       8.146  22.667  57.455  1.00  0.00    -0.267 OA
HETATM    5  C   UNL     1       8.095  22.057  55.208  1.00  0.00     0.061 A 
HETATM    6  C   UNL     1       7.742  22.465  53.926  1.00  0.00     0.075 A 
HETATM    7  C   UNL     1       8.716  20.824  55.434  1.00  0.00     0.019 A 
HETATM    8  C   UNL     1       8.974  19.976  54.358  1.00  0.00     0.001 A 
HETATM    9  C   UNL     1       8.603  20.361  53.071  1.00  0.00     0.002 A 
HETATM   10  C   UNL     1       7.987  21.599  52.859  1.00  0.00     0.032 A 
HETATM   11  N   UNL     1       7.131  23.701  53.677  1.00  0.00    -0.224 NA
ENDROOT
BRANCH   1  12
HETATM   12  S   UNL     1       5.910  25.887  54.304  1.00  0.00    -0.082 SA
BRANCH  12  13
HETATM   13  C   UNL     1       6.503  26.150  52.623  1.00  0.00     0.185 C 
BRANCH  13  14
HETATM   14  C   UNL     1       5.468  25.825  51.561  1.00  0.00     0.231 C 
HETATM   15  N   UNL     1       5.443  26.722  50.509  1.00  0.00    -0.326 N 
HETATM   16  H   UNL     1       6.296  27.257  50.345  1.00  0.00     0.169 HD
HETATM   17  O   UNL     1       4.677  24.900  51.734  1.00  0.00    -0.272 OA
BRANCH  15  18
HETATM   18  C   UNL     1       4.381  26.943  49.605  1.00  0.00     0.036 A 
HETATM   19  C   UNL     1       4.054  26.079  48.560  1.00  0.00     0.053 A 
HETATM   20  C   UNL     1       2.927  26.323  47.762  1.00  0.00     0.042 A 
HETATM   21  C   UNL     1       2.111  27.440  47.989  1.00  0.00    -0.040 A 
HETATM   22 CL   UNL     1       2.564  25.186  46.510  1.00  0.00    -0.084 Cl
HETATM   23  C   UNL     1       0.872  27.701  47.181  1.00  0.00     0.050 C 
HETATM   24  C   UNL     1       2.451  28.308  49.034  1.00  0.00     0.011 A 
HETATM   25  C   UNL     1       3.573  28.061  49.830  1.00  0.00     0.030 A 
ENDBRANCH  15  18
ENDBRANCH  13  14
ENDBRANCH  12  13
ENDBRANCH   1  12
BRANCH   2  26
HETATM   26  C   UNL     1       6.689  24.955  57.168  1.00  0.00     0.144 C 
BRANCH  26  27
HETATM   27  C   UNL     1       7.861  25.817  57.645  1.00  0.00     0.123 C 
BRANCH  27  28
HETATM   28  C   UNL     1       7.626  27.263  57.274  1.00  0.00     0.219 C 
HETATM   29  N   UNL     1       8.765  27.921  56.862  1.00  0.00    -0.356 N 
HETATM   30  H   UNL     1       9.622  27.397  56.743  1.00  0.00     0.162 HD
HETATM   31  O   UNL     1       6.516  27.785  57.314  1.00  0.00    -0.274 OA
BRANCH  29  32
HETATM   32  C   UNL     1       8.752  29.331  56.487  1.00  0.00     0.084 C 
HETATM   33  C   UNL     1       8.263  30.203  57.652  1.00  0.00     0.025 C 
HETATM   34  C   UNL     1       9.302  30.357  58.763  1.00  0.00     0.002 C 
HETATM   35  C   UNL     1      10.640  30.841  58.217  1.00  0.00     0.000 C 
HETATM   36  C   UNL     1      11.152  29.933  57.103  1.00  0.00     0.002 C 
HETATM   37  C   UNL     1      10.126  29.790  55.981  1.00  0.00     0.025 C 
ENDBRANCH  29  32
ENDBRANCH  27  28
ENDBRANCH  26  27
ENDBRANCH   2  26
TORSDOF 8
ENDMDL
MODEL 2
REMARK VINA RESULT:     -10.8      4.887     10.399
REMARK  8 active torsions:
REMARK  status: ('A' for Active; 'I' for Inactive)
REMARK    1  A    between atoms: C_6  and  N_7 
REMARK       I    between atoms: N_7  and  C_8 
REMARK    2  A    between atoms: C_8  and  C_9 
REMARK    3  A    between atoms: C_9  and  S_10 
REMARK    4  A    between atoms: S_10  and  C_11 
REMARK    5  A    between atoms: N_12  and  C_13 
REMARK    6  A    between atoms: C_13  and  C_14 
REMARK    7  A    between atoms: C_14  and  C_15 
REMARK       I    between atoms: C_15  and  N_16 
REMARK    8  A    between atoms: N_16  and  C_17 
ROOT
HETATM    1  C   UNL     1       7.328  28.999  56.515  1.00  0.00     0.172 A 
HETATM    2  N   UNL     1       6.582  28.147  55.721  1.00  0.00    -0.292 N 
HETATM    3  C   UNL     1       5.326  28.550  55.258  1.00  0.00     0.262 A 
HETATM    4  O   UNL     1       4.648  27.903  54.463  1.00  0.00    -0.267 OA
HETATM    5  C   UNL     1       4.816  29.837  55.750  1.00  0.00     0.061 A 
HETATM    6  C   UNL     1       5.650  30.590  56.568  1.00  0.00     0.075 A 
HETATM    7  C   UNL     1       3.526  30.274  55.425  1.00  0.00     0.019 A 
HETATM    8  C   UNL     1       3.059  31.480  55.943  1.00  0.00     0.001 A 
HETATM    9  C   UNL     1       3.875  32.234  56.784  1.00  0.00     0.002 A 
HETATM   10  C   UNL     1       5.163  31.787  57.097  1.00  0.00     0.032 A 
HETATM   11  N   UNL     1       6.948  30.176  56.894  1.00  0.00    -0.224 NA
ENDROOT
BRANCH   1  12
HETATM   12  S   UNL     1       8.907  28.504  57.070  1.00  0.00    -0.082 SA
BRANCH  12  13
HETATM   13  C   UNL     1       9.794  30.060  56.870  1.00  0.00     0.185 C 
BRANCH  13  14
HETATM   14  C   UNL     1       9.897  30.864  58.153  1.00  0.00     0.231 C 
HETATM   15  N   UNL     1       9.047  30.432  59.156  1.00  0.00    -0.326 N 
HETATM   16  H   UNL     1       8.730  29.463  59.099  1.00  0.00     0.169 HD
HETATM   17  O   UNL     1      10.606  31.866  58.197  1.00  0.00    -0.272 OA
BRANCH  15  18
HETATM   18  C   UNL     1       8.608  31.171  60.276  1.00  0.00     0.036 A 
HETATM   19  C   UNL     1       7.516  32.039  60.259  1.00  0.00     0.053 A 
HETATM   20  C   UNL     1       7.089  32.667  61.437  1.00  0.00     0.042 A 
HETATM   21  C   UNL     1       7.751  32.445  62.653  1.00  0.00    -0.040 A 
HETATM   22 CL   UNL     1       5.704  33.699  61.345  1.00  0.00    -0.084 Cl
HETATM   23  C   UNL     1       7.287  33.066  63.940  1.00  0.00     0.050 C 
HETATM   24  C   UNL     1       8.852  31.580  62.661  1.00  0.00     0.011 A 
HETATM   25  C   UNL     1       9.274  30.953  61.485  1.00  0.00     0.030 A 
ENDBRANCH  15  18
ENDBRANCH  13  14
ENDBRANCH  12  13
ENDBRANCH   1  12
BRANCH   2  26
HETATM   26  C   UNL     1       7.023  26.820  55.257  1.00  0.00     0.144 C 
BRANCH  26  27
HETATM   27  C   UNL     1       6.689  25.717  56.266  1.00  0.00     0.123 C 
BRANCH  27  28
HETATM   28  C   UNL     1       7.864  24.778  56.415  1.00  0.00     0.219 C 
HETATM   29  N   UNL     1       7.959  23.846  55.404  1.00  0.00    -0.356 N 
HETATM   30  H   UNL     1       7.331  23.909  54.613  1.00  0.00     0.162 HD
HETATM   31  O   UNL     1       8.666  24.863  57.339  1.00  0.00    -0.274 OA
BRANCH  29  32
HETATM   32  C   UNL     1       9.009  22.832  55.382  1.00  0.00     0.084 C 
HETATM   33  C   UNL     1       8.635  21.638  56.270  1.00  0.00     0.025 C 
HETATM   34  C   UNL     1       7.558  20.745  55.652  1.00  0.00     0.002 C 
HETATM   35  C   UNL     1       7.933  20.306  54.242  1.00  0.00     0.000 C 
HETATM   36  C   UNL     1       8.241  21.503  53.346  1.00  0.00     0.002 C 
HETATM   37  C   UNL     1       9.330  22.388  53.949  1.00  0.00     0.025 C 
ENDBRANCH  29  32
ENDBRANCH  27  28
ENDBRANCH  26  27
ENDBRANCH   2  26
TORSDOF 8
ENDMDL
MODEL 3
REMARK VINA RESULT:     -10.8      3.482      8.701
REMARK  8 active torsions:
REMARK  status: ('A' for Active; 'I' for Inactive)
REMARK    1  A    between atoms: C_6  and  N_7 
REMARK       I    between atoms: N_7  and  C_8 
REMARK    2  A    between atoms: C_8  and  C_9 
REMARK    3  A    between atoms: C_9  and  S_10 
REMARK    4  A    between atoms: S_10  and  C_11 
REMARK    5  A    between atoms: N_12  and  C_13 
REMARK    6  A    between atoms: C_13  and  C_14 
REMARK    7  A    between atoms: C_14  and  C_15 
REMARK       I    between atoms: C_15  and  N_16 
REMARK    8  A    between atoms: N_16  and  C_17 
ROOT
HETATM    1  C   UNL     1       7.704  29.803  57.904  1.00  0.00     0.172 A 
HETATM    2  N   UNL     1       6.708  30.751  57.752  1.00  0.00    -0.292 N 
HETATM    3  C   UNL     1       6.562  31.764  58.704  1.00  0.00     0.262 A 
HETATM    4  O   UNL     1       5.780  32.704  58.590  1.00  0.00    -0.267 OA
HETATM    5  C   UNL     1       7.421  31.690  59.893  1.00  0.00     0.061 A 
HETATM    6  C   UNL     1       8.366  30.670  59.943  1.00  0.00     0.075 A 
HETATM    7  C   UNL     1       7.275  32.598  60.948  1.00  0.00     0.019 A 
HETATM    8  C   UNL     1       8.079  32.473  62.079  1.00  0.00     0.001 A 
HETATM    9  C   UNL     1       9.012  31.441  62.154  1.00  0.00     0.002 A 
HETATM   10  C   UNL     1       9.151  30.543  61.091  1.00  0.00     0.032 A 
HETATM   11  N   UNL     1       8.536  29.759  58.894  1.00  0.00    -0.224 NA
ENDROOT
BRANCH   1  12
HETATM   12  S   UNL     1       7.900  28.554  56.700  1.00  0.00    -0.082 SA
BRANCH  12  13
HETATM   13  C   UNL     1       7.442  27.117  57.687  1.00  0.00     0.185 C 
BRANCH  13  14
HETATM   14  C   UNL     1       8.069  25.825  57.196  1.00  0.00     0.231 C 
HETATM   15  N   UNL     1       7.822  25.553  55.862  1.00  0.00    -0.326 N 
HETATM   16  H   UNL     1       7.594  26.352  55.269  1.00  0.00     0.169 HD
HETATM   17  O   UNL     1       8.634  25.074  57.988  1.00  0.00    -0.272 OA
BRANCH  15  18
HETATM   18  C   UNL     1       7.901  24.298  55.221  1.00  0.00     0.036 A 
HETATM   19  C   UNL     1       7.795  23.075  55.885  1.00  0.00     0.053 A 
HETATM   20  C   UNL     1       7.793  21.873  55.164  1.00  0.00     0.042 A 
HETATM   21  C   UNL     1       7.905  21.870  53.766  1.00  0.00    -0.040 A 
HETATM   22 CL   UNL     1       7.619  20.400  56.053  1.00  0.00    -0.084 Cl
HETATM   23  C   UNL     1       7.858  20.601  52.964  1.00  0.00     0.050 C 
HETATM   24  C   UNL     1       8.021  23.100  53.108  1.00  0.00     0.011 A 
HETATM   25  C   UNL     1       8.020  24.298  53.829  1.00  0.00     0.030 A 
ENDBRANCH  15  18
ENDBRANCH  13  14
ENDBRANCH  12  13
ENDBRANCH   1  12
BRANCH   2  26
HETATM   26  C   UNL     1       5.780  30.828  56.610  1.00  0.00     0.144 C 
BRANCH  26  27
HETATM   27  C   UNL     1       4.436  30.159  56.915  1.00  0.00     0.123 C 
BRANCH  27  28
HETATM   28  C   UNL     1       4.251  28.943  56.038  1.00  0.00     0.219 C 
HETATM   29  N   UNL     1       4.118  29.241  54.699  1.00  0.00    -0.356 N 
HETATM   30  H   UNL     1       4.247  30.196  54.390  1.00  0.00     0.162 HD
HETATM   31  O   UNL     1       4.248  27.800  56.484  1.00  0.00    -0.274 OA
BRANCH  29  32
HETATM   32  C   UNL     1       3.902  28.207  53.693  1.00  0.00     0.084 C 
HETATM   33  C   UNL     1       3.189  28.781  52.461  1.00  0.00     0.025 C 
HETATM   34  C   UNL     1       4.102  29.644  51.589  1.00  0.00     0.002 C 
HETATM   35  C   UNL     1       5.381  28.905  51.210  1.00  0.00     0.000 C 
HETATM   36  C   UNL     1       6.117  28.392  52.444  1.00  0.00     0.002 C 
HETATM   37  C   UNL     1       5.216  27.513  53.310  1.00  0.00     0.025 C 
ENDBRANCH  29  32
ENDBRANCH  27  28
ENDBRANCH  26  27
ENDBRANCH   2  26
TORSDOF 8
ENDMDL
MODEL 4
REMARK VINA RESULT:     -10.6      3.804      9.521
REMARK  8 active torsions:
REMARK  status: ('A' for Active; 'I' for Inactive)
REMARK    1  A    between atoms: C_6  and  N_7 
REMARK       I    between atoms: N_7  and  C_8 
REMARK    2  A    between atoms: C_8  and  C_9 
REMARK    3  A    between atoms: C_9  and  S_10 
REMARK    4  A    between atoms: S_10  and  C_11 
REMARK    5  A    between atoms: N_12  and  C_13 
REMARK    6  A    between atoms: C_13  and  C_14 
REMARK    7  A    between atoms: C_14  and  C_15 
REMARK       I    between atoms: C_15  and  N_16 
REMARK    8  A    between atoms: N_16  and  C_17 
ROOT
HETATM    1  C   UNL     1       5.490  26.720  54.682  1.00  0.00     0.172 A 
HETATM    2  N   UNL     1       5.378  26.722  53.303  1.00  0.00    -0.292 N 
HETATM    3  C   UNL     1       5.938  25.680  52.560  1.00  0.00     0.262 A 
HETATM    4  O   UNL     1       5.792  25.547  51.347  1.00  0.00    -0.267 OA
HETATM    5  C   UNL     1       6.728  24.684  53.297  1.00  0.00     0.061 A 
HETATM    6  C   UNL     1       6.790  24.807  54.681  1.00  0.00     0.075 A 
HETATM    7  C   UNL     1       7.413  23.664  52.626  1.00  0.00     0.019 A 
HETATM    8  C   UNL     1       8.187  22.762  53.353  1.00  0.00     0.001 A 
HETATM    9  C   UNL     1       8.278  22.888  54.738  1.00  0.00     0.002 A 
HETATM   10  C   UNL     1       7.584  23.909  55.396  1.00  0.00     0.032 A 
HETATM   11  N   UNL     1       6.102  25.812  55.372  1.00  0.00    -0.224 NA
ENDROOT
BRANCH   1  12
HETATM   12  S   UNL     1       4.767  28.009  55.611  1.00  0.00    -0.082 SA
BRANCH  12  13
HETATM   13  C   UNL     1       6.256  28.914  56.071  1.00  0.00     0.185 C 
BRANCH  13  14
HETATM   14  C   UNL     1       6.061  29.825  57.269  1.00  0.00     0.231 C 
HETATM   15  N   UNL     1       7.225  30.430  57.709  1.00  0.00    -0.326 N 
HETATM   16  H   UNL     1       7.979  30.518  57.027  1.00  0.00     0.169 HD
HETATM   17  O   UNL     1       4.967  29.888  57.824  1.00  0.00    -0.272 OA
BRANCH  15  18
HETATM   18  C   UNL     1       7.466  30.982  58.985  1.00  0.00     0.036 A 
HETATM   19  C   UNL     1       6.712  32.015  59.543  1.00  0.00     0.053 A 
HETATM   20  C   UNL     1       6.958  32.447  60.854  1.00  0.00     0.042 A 
HETATM   21  C   UNL     1       7.968  31.860  61.629  1.00  0.00    -0.040 A 
HETATM   22 CL   UNL     1       5.956  33.705  61.490  1.00  0.00    -0.084 Cl
HETATM   23  C   UNL     1       8.223  32.269  63.052  1.00  0.00     0.050 C 
HETATM   24  C   UNL     1       8.728  30.831  61.059  1.00  0.00     0.011 A 
HETATM   25  C   UNL     1       8.479  30.400  59.753  1.00  0.00     0.030 A 
ENDBRANCH  15  18
ENDBRANCH  13  14
ENDBRANCH  12  13
ENDBRANCH   1  12
BRANCH   2  26
HETATM   26  C   UNL     1       4.653  27.733  52.514  1.00  0.00     0.144 C 
BRANCH  26  27
HETATM   27  C   UNL     1       5.567  28.877  52.067  1.00  0.00     0.123 C 
BRANCH  27  28
HETATM   28  C   UNL     1       5.514  29.026  50.564  1.00  0.00     0.219 C 
HETATM   29  N   UNL     1       4.804  28.028  49.934  1.00  0.00    -0.356 N 
HETATM   30  H   UNL     1       4.302  27.350  50.493  1.00  0.00     0.162 HD
HETATM   31  O   UNL     1       6.037  29.966  49.974  1.00  0.00    -0.274 OA
BRANCH  29  32
HETATM   32  C   UNL     1       4.660  27.977  48.482  1.00  0.00     0.084 C 
HETATM   33  C   UNL     1       4.700  26.528  47.978  1.00  0.00     0.025 C 
HETATM   34  C   UNL     1       3.416  25.754  48.278  1.00  0.00     0.002 C 
HETATM   35  C   UNL     1       2.182  26.495  47.775  1.00  0.00     0.000 C 
HETATM   36  C   UNL     1       2.116  27.914  48.331  1.00  0.00     0.002 C 
HETATM   37  C   UNL     1       3.388  28.699  48.018  1.00  0.00     0.025 C 
ENDBRANCH  29  32
ENDBRANCH  27  28
ENDBRANCH  26  27
ENDBRANCH   2  26
TORSDOF 8
ENDMDL
MODEL 5
REMARK VINA RESULT:     -10.5      3.959      9.371
REMARK  8 active torsions:
REMARK  status: ('A' for Active; 'I' for Inactive)
REMARK    1  A    between atoms: C_6  and  N_7 
REMARK       I    between atoms: N_7  and  C_8 
REMARK    2  A    between atoms: C_8  and  C_9 
REMARK    3  A    between atoms: C_9  and  S_10 
REMARK    4  A    between atoms: S_10  and  C_11 
REMARK    5  A    between atoms: N_12  and  C_13 
REMARK    6  A    between atoms: C_13  and  C_14 
REMARK    7  A    between atoms: C_14  and  C_15 
REMARK       I    between atoms: C_15  and  N_16 
REMARK    8  A    between atoms: N_16  and  C_17 
ROOT
HETATM    1  C   UNL     1       5.244  27.325  55.285  1.00  0.00     0.172 A 
HETATM    2  N   UNL     1       5.648  26.004  55.211  1.00  0.00    -0.292 N 
HETATM    3  C   UNL     1       5.803  25.393  53.964  1.00  0.00     0.262 A 
HETATM    4  O   UNL     1       6.261  24.264  53.806  1.00  0.00    -0.267 OA
HETATM    5  C   UNL     1       5.405  26.175  52.785  1.00  0.00     0.061 A 
HETATM    6  C   UNL     1       4.986  27.484  52.992  1.00  0.00     0.075 A 
HETATM    7  C   UNL     1       5.425  25.611  51.504  1.00  0.00     0.019 A 
HETATM    8  C   UNL     1       5.001  26.367  50.414  1.00  0.00     0.001 A 
HETATM    9  C   UNL     1       4.555  27.673  50.609  1.00  0.00     0.002 A 
HETATM   10  C   UNL     1       4.545  28.225  51.894  1.00  0.00     0.032 A 
HETATM   11  N   UNL     1       4.971  28.071  54.264  1.00  0.00    -0.224 NA
ENDROOT
BRANCH   1  12
HETATM   12  S   UNL     1       5.077  28.094  56.843  1.00  0.00    -0.082 SA
BRANCH  12  13
HETATM   13  C   UNL     1       6.426  29.283  56.734  1.00  0.00     0.185 C 
BRANCH  13  14
HETATM   14  C   UNL     1       6.332  30.397  57.760  1.00  0.00     0.231 C 
HETATM   15  N   UNL     1       7.496  30.595  58.481  1.00  0.00    -0.326 N 
HETATM   16  H   UNL     1       8.362  30.277  58.046  1.00  0.00     0.169 HD
HETATM   17  O   UNL     1       5.258  30.958  57.964  1.00  0.00    -0.272 OA
BRANCH  15  18
HETATM   18  C   UNL     1       7.622  31.235  59.733  1.00  0.00     0.036 A 
HETATM   19  C   UNL     1       6.824  32.303  60.147  1.00  0.00     0.053 A 
HETATM   20  C   UNL     1       6.952  32.825  61.442  1.00  0.00     0.042 A 
HETATM   21  C   UNL     1       7.884  32.294  62.344  1.00  0.00    -0.040 A 
HETATM   22 CL   UNL     1       5.901  34.122  61.896  1.00  0.00    -0.084 Cl
HETATM   23  C   UNL     1       8.010  32.802  63.753  1.00  0.00     0.050 C 
HETATM   24  C   UNL     1       8.688  31.230  61.919  1.00  0.00     0.011 A 
HETATM   25  C   UNL     1       8.557  30.709  60.628  1.00  0.00     0.030 A 
ENDBRANCH  15  18
ENDBRANCH  13  14
ENDBRANCH  12  13
ENDBRANCH   1  12
BRANCH   2  26
HETATM   26  C   UNL     1       5.995  25.160  56.369  1.00  0.00     0.144 C 
BRANCH  26  27
HETATM   27  C   UNL     1       7.281  25.626  57.056  1.00  0.00     0.123 C 
BRANCH  27  28
HETATM   28  C   UNL     1       8.291  24.501  57.084  1.00  0.00     0.219 C 
HETATM   29  N   UNL     1       8.252  23.694  55.968  1.00  0.00    -0.356 N 
HETATM   30  H   UNL     1       7.652  23.950  55.194  1.00  0.00     0.162 HD
HETATM   31  O   UNL     1       9.083  24.347  58.008  1.00  0.00    -0.274 OA
BRANCH  29  32
HETATM   32  C   UNL     1       9.128  22.537  55.818  1.00  0.00     0.084 C 
HETATM   33  C   UNL     1       8.475  21.276  56.400  1.00  0.00     0.025 C 
HETATM   34  C   UNL     1       7.352  20.723  55.522  1.00  0.00     0.002 C 
HETATM   35  C   UNL     1       7.816  20.508  54.086  1.00  0.00     0.000 C 
HETATM   36  C   UNL     1       8.406  21.783  53.492  1.00  0.00     0.002 C 
HETATM   37  C   UNL     1       9.541  22.331  54.354  1.00  0.00     0.025 C 
ENDBRANCH  29  32
ENDBRANCH  27  28
ENDBRANCH  26  27
ENDBRANCH   2  26
TORSDOF 8
ENDMDL
MODEL 6
REMARK VINA RESULT:     -10.5      1.990      2.623
REMARK  8 active torsions:
REMARK  status: ('A' for Active; 'I' for Inactive)
REMARK    1  A    between atoms: C_6  and  N_7 
REMARK       I    between atoms: N_7  and  C_8 
REMARK    2  A    between atoms: C_8  and  C_9 
REMARK    3  A    between atoms: C_9  and  S_10 
REMARK    4  A    between atoms: S_10  and  C_11 
REMARK    5  A    between atoms: N_12  and  C_13 
REMARK    6  A    between atoms: C_13  and  C_14 
REMARK    7  A    between atoms: C_14  and  C_15 
REMARK       I    between atoms: C_15  and  N_16 
REMARK    8  A    between atoms: N_16  and  C_17 
ROOT
HETATM    1  C   UNL     1       6.922  26.788  55.067  1.00  0.00     0.172 A 
HETATM    2  N   UNL     1       7.257  26.554  56.389  1.00  0.00    -0.292 N 
HETATM    3  C   UNL     1       7.937  25.383  56.736  1.00  0.00     0.262 A 
HETATM    4  O   UNL     1       8.367  25.149  57.863  1.00  0.00    -0.267 OA
HETATM    5  C   UNL     1       8.156  24.398  55.668  1.00  0.00     0.061 A 
HETATM    6  C   UNL     1       7.746  24.738  54.384  1.00  0.00     0.075 A 
HETATM    7  C   UNL     1       8.733  23.153  55.942  1.00  0.00     0.019 A 
HETATM    8  C   UNL     1       8.888  22.226  54.913  1.00  0.00     0.001 A 
HETATM    9  C   UNL     1       8.459  22.543  53.626  1.00  0.00     0.002 A 
HETATM   10  C   UNL     1       7.887  23.793  53.366  1.00  0.00     0.032 A 
HETATM   11  N   UNL     1       7.177  25.983  54.087  1.00  0.00    -0.224 NA
ENDROOT
BRANCH   1  12
HETATM   12  S   UNL     1       6.095  28.263  54.632  1.00  0.00    -0.082 SA
BRANCH  12  13
HETATM   13  C   UNL     1       6.317  28.211  52.845  1.00  0.00     0.185 C 
BRANCH  13  14
HETATM   14  C   UNL     1       5.146  27.582  52.111  1.00  0.00     0.231 C 
HETATM   15  N   UNL     1       5.235  27.672  50.733  1.00  0.00    -0.326 N 
HETATM   16  H   UNL     1       6.171  27.791  50.343  1.00  0.00     0.169 HD
HETATM   17  O   UNL     1       4.183  27.152  52.741  1.00  0.00    -0.272 OA
BRANCH  15  18
HETATM   18  C   UNL     1       4.178  27.566  49.805  1.00  0.00     0.036 A 
HETATM   19  C   UNL     1       4.038  26.515  48.897  1.00  0.00     0.053 A 
HETATM   20  C   UNL     1       2.909  26.436  48.070  1.00  0.00     0.042 A 
HETATM   21  C   UNL     1       1.903  27.410  48.127  1.00  0.00    -0.040 A 
HETATM   22 CL   UNL     1       2.788  25.083  46.999  1.00  0.00    -0.084 Cl
HETATM   23  C   UNL     1       0.660  27.326  47.287  1.00  0.00     0.050 C 
HETATM   24  C   UNL     1       2.054  28.467  49.033  1.00  0.00     0.011 A 
HETATM   25  C   UNL     1       3.179  28.542  49.859  1.00  0.00     0.030 A 
ENDBRANCH  15  18
ENDBRANCH  13  14
ENDBRANCH  12  13
ENDBRANCH   1  12
BRANCH   2  26
HETATM   26  C   UNL     1       6.999  27.482  57.504  1.00  0.00     0.144 C 
BRANCH  26  27
HETATM   27  C   UNL     1       8.207  28.376  57.798  1.00  0.00     0.123 C 
BRANCH  27  28
HETATM   28  C   UNL     1       7.754  29.797  58.040  1.00  0.00     0.219 C 
HETATM   29  N   UNL     1       8.359  30.395  59.124  1.00  0.00    -0.356 N 
HETATM   30  H   UNL     1       9.105  29.907  59.604  1.00  0.00     0.162 HD
HETATM   31  O   UNL     1       6.941  30.364  57.316  1.00  0.00    -0.274 OA
BRANCH  29  32
HETATM   32  C   UNL     1       8.036  31.756  59.539  1.00  0.00     0.084 C 
HETATM   33  C   UNL     1       6.894  31.759  60.564  1.00  0.00     0.025 C 
HETATM   34  C   UNL     1       7.333  31.285  61.950  1.00  0.00     0.002 C 
HETATM   35  C   UNL     1       8.546  32.059  62.452  1.00  0.00     0.000 C 
HETATM   36  C   UNL     1       9.700  31.998  61.456  1.00  0.00     0.002 C 
HETATM   37  C   UNL     1       9.274  32.489  60.073  1.00  0.00     0.025 C 
ENDBRANCH  29  32
ENDBRANCH  27  28
ENDBRANCH  26  27
ENDBRANCH   2  26
TORSDOF 8
ENDMDL
MODEL 7
REMARK VINA RESULT:     -10.3      5.022     10.566
REMARK  8 active torsions:
REMARK  status: ('A' for Active; 'I' for Inactive)
REMARK    1  A    between atoms: C_6  and  N_7 
REMARK       I    between atoms: N_7  and  C_8 
REMARK    2  A    between atoms: C_8  and  C_9 
REMARK    3  A    between atoms: C_9  and  S_10 
REMARK    4  A    between atoms: S_10  and  C_11 
REMARK    5  A    between atoms: N_12  and  C_13 
REMARK    6  A    between atoms: C_13  and  C_14 
REMARK    7  A    between atoms: C_14  and  C_15 
REMARK       I    between atoms: C_15  and  N_16 
REMARK    8  A    between atoms: N_16  and  C_17 
ROOT
HETATM    1  C   UNL     1       6.909  28.964  56.624  1.00  0.00     0.172 A 
HETATM    2  N   UNL     1       7.397  27.883  55.911  1.00  0.00    -0.292 N 
HETATM    3  C   UNL     1       6.871  27.587  54.651  1.00  0.00     0.262 A 
HETATM    4  O   UNL     1       7.319  26.718  53.908  1.00  0.00    -0.267 OA
HETATM    5  C   UNL     1       5.726  28.391  54.201  1.00  0.00     0.061 A 
HETATM    6  C   UNL     1       5.308  29.433  55.022  1.00  0.00     0.075 A 
HETATM    7  C   UNL     1       5.066  28.101  53.001  1.00  0.00     0.019 A 
HETATM    8  C   UNL     1       3.958  28.857  52.626  1.00  0.00     0.001 A 
HETATM    9  C   UNL     1       3.513  29.888  53.450  1.00  0.00     0.002 A 
HETATM   10  C   UNL     1       4.185  30.170  54.645  1.00  0.00     0.032 A 
HETATM   11  N   UNL     1       5.962  29.747  56.220  1.00  0.00    -0.224 NA
ENDROOT
BRANCH   1  12
HETATM   12  S   UNL     1       7.586  29.347  58.187  1.00  0.00    -0.082 SA
BRANCH  12  13
HETATM   13  C   UNL     1       7.288  31.124  58.212  1.00  0.00     0.185 C 
BRANCH  13  14
HETATM   14  C   UNL     1       7.747  31.794  59.494  1.00  0.00     0.231 C 
HETATM   15  N   UNL     1       7.045  31.395  60.618  1.00  0.00    -0.326 N 
HETATM   16  H   UNL     1       6.584  30.486  60.568  1.00  0.00     0.169 HD
HETATM   17  O   UNL     1       8.593  32.685  59.456  1.00  0.00    -0.272 OA
BRANCH  15  18
HETATM   18  C   UNL     1       6.938  32.087  61.843  1.00  0.00     0.036 A 
HETATM   19  C   UNL     1       5.755  32.651  62.320  1.00  0.00     0.053 A 
HETATM   20  C   UNL     1       5.711  33.243  63.590  1.00  0.00     0.042 A 
HETATM   21  C   UNL     1       6.852  33.290  64.403  1.00  0.00    -0.040 A 
HETATM   22 CL   UNL     1       4.198  33.886  64.129  1.00  0.00    -0.084 Cl
HETATM   23  C   UNL     1       6.823  33.876  65.787  1.00  0.00     0.050 C 
HETATM   24  C   UNL     1       8.039  32.731  63.914  1.00  0.00     0.011 A 
HETATM   25  C   UNL     1       8.079  32.138  62.649  1.00  0.00     0.030 A 
ENDBRANCH  15  18
ENDBRANCH  13  14
ENDBRANCH  12  13
ENDBRANCH   1  12
BRANCH   2  26
HETATM   26  C   UNL     1       8.499  27.008  56.350  1.00  0.00     0.144 C 
BRANCH  26  27
HETATM   27  C   UNL     1       8.063  26.047  57.459  1.00  0.00     0.123 C 
BRANCH  27  28
HETATM   28  C   UNL     1       7.163  24.973  56.892  1.00  0.00     0.219 C 
HETATM   29  N   UNL     1       7.792  24.147  55.986  1.00  0.00    -0.356 N 
HETATM   30  H   UNL     1       8.789  24.240  55.841  1.00  0.00     0.162 HD
HETATM   31  O   UNL     1       5.992  24.843  57.233  1.00  0.00    -0.274 OA
BRANCH  29  32
HETATM   32  C   UNL     1       7.087  23.065  55.306  1.00  0.00     0.084 C 
HETATM   33  C   UNL     1       7.079  23.287  53.787  1.00  0.00     0.025 C 
HETATM   34  C   UNL     1       8.434  23.011  53.134  1.00  0.00     0.002 C 
HETATM   35  C   UNL     1       8.964  21.630  53.501  1.00  0.00     0.000 C 
HETATM   36  C   UNL     1       9.029  21.440  55.013  1.00  0.00     0.002 C 
HETATM   37  C   UNL     1       7.674  21.695  55.670  1.00  0.00     0.025 C 
ENDBRANCH  29  32
ENDBRANCH  27  28
ENDBRANCH  26  27
ENDBRANCH   2  26
TORSDOF 8
ENDMDL
MODEL 8
REMARK VINA RESULT:      -9.7      4.303      8.935
REMARK  8 active torsions:
REMARK  status: ('A' for Active; 'I' for Inactive)
REMARK    1  A    between atoms: C_6  and  N_7 
REMARK       I    between atoms: N_7  and  C_8 
REMARK    2  A    between atoms: C_8  and  C_9 
REMARK    3  A    between atoms: C_9  and  S_10 
REMARK    4  A    between atoms: S_10  and  C_11 
REMARK    5  A    between atoms: N_12  and  C_13 
REMARK    6  A    between atoms: C_13  and  C_14 
REMARK    7  A    between atoms: C_14  and  C_15 
REMARK       I    between atoms: C_15  and  N_16 
REMARK    8  A    between atoms: N_16  and  C_17 
ROOT
HETATM    1  C   UNL     1       5.285  26.782  54.602  1.00  0.00     0.172 A 
HETATM    2  N   UNL     1       5.263  26.784  53.219  1.00  0.00    -0.292 N 
HETATM    3  C   UNL     1       5.864  25.738  52.514  1.00  0.00     0.262 A 
HETATM    4  O   UNL     1       5.796  25.605  51.294  1.00  0.00    -0.267 OA
HETATM    5  C   UNL     1       6.599  24.738  53.300  1.00  0.00     0.061 A 
HETATM    6  C   UNL     1       6.572  24.862  54.685  1.00  0.00     0.075 A 
HETATM    7  C   UNL     1       7.320  23.715  52.675  1.00  0.00     0.019 A 
HETATM    8  C   UNL     1       8.040  22.808  53.451  1.00  0.00     0.001 A 
HETATM    9  C   UNL     1       8.043  22.935  54.839  1.00  0.00     0.002 A 
HETATM   10  C   UNL     1       7.314  23.960  55.450  1.00  0.00     0.032 A 
HETATM   11  N   UNL     1       5.846  25.871  55.330  1.00  0.00    -0.224 NA
ENDROOT
BRANCH   1  12
HETATM   12  S   UNL     1       4.511  28.076  55.482  1.00  0.00    -0.082 SA
BRANCH  12  13
HETATM   13  C   UNL     1       5.526  28.070  56.972  1.00  0.00     0.185 C 
BRANCH  13  14
HETATM   14  C   UNL     1       5.712  29.449  57.579  1.00  0.00     0.231 C 
HETATM   15  N   UNL     1       4.545  30.011  58.063  1.00  0.00    -0.326 N 
HETATM   16  H   UNL     1       3.794  29.364  58.307  1.00  0.00     0.169 HD
HETATM   17  O   UNL     1       6.804  30.009  57.512  1.00  0.00    -0.272 OA
BRANCH  15  18
HETATM   18  C   UNL     1       4.296  31.379  58.303  1.00  0.00     0.036 A 
HETATM   19  C   UNL     1       4.652  32.042  59.479  1.00  0.00     0.053 A 
HETATM   20  C   UNL     1       4.452  33.424  59.603  1.00  0.00     0.042 A 
HETATM   21  C   UNL     1       3.885  34.168  58.559  1.00  0.00    -0.040 A 
HETATM   22 CL   UNL     1       4.953  34.182  61.075  1.00  0.00    -0.084 Cl
HETATM   23  C   UNL     1       3.703  35.657  58.646  1.00  0.00     0.050 C 
HETATM   24  C   UNL     1       3.523  33.495  57.386  1.00  0.00     0.011 A 
HETATM   25  C   UNL     1       3.725  32.117  57.263  1.00  0.00     0.030 A 
ENDBRANCH  15  18
ENDBRANCH  13  14
ENDBRANCH  12  13
ENDBRANCH   1  12
BRANCH   2  26
HETATM   26  C   UNL     1       4.596  27.799  52.385  1.00  0.00     0.144 C 
BRANCH  26  27
HETATM   27  C   UNL     1       5.564  28.892  51.925  1.00  0.00     0.123 C 
BRANCH  27  28
HETATM   28  C   UNL     1       5.512  29.033  50.421  1.00  0.00     0.219 C 
HETATM   29  N   UNL     1       4.749  28.067  49.802  1.00  0.00    -0.356 N 
HETATM   30  H   UNL     1       4.217  27.419  50.368  1.00  0.00     0.162 HD
HETATM   31  O   UNL     1       6.078  29.941  49.822  1.00  0.00    -0.274 OA
BRANCH  29  32
HETATM   32  C   UNL     1       4.596  28.014  48.351  1.00  0.00     0.084 C 
HETATM   33  C   UNL     1       4.712  26.571  47.841  1.00  0.00     0.025 C 
HETATM   34  C   UNL     1       3.476  25.725  48.149  1.00  0.00     0.002 C 
HETATM   35  C   UNL     1       2.199  26.397  47.659  1.00  0.00     0.000 C 
HETATM   36  C   UNL     1       2.058  27.808  48.221  1.00  0.00     0.002 C 
HETATM   37  C   UNL     1       3.281  28.665  47.901  1.00  0.00     0.025 C 
ENDBRANCH  29  32
ENDBRANCH  27  28
ENDBRANCH  26  27
ENDBRANCH   2  26
TORSDOF 8
ENDMDL
MODEL 9
REMARK VINA RESULT:      -9.6      4.625      9.033
REMARK  8 active torsions:
REMARK  status: ('A' for Active; 'I' for Inactive)
REMARK    1  A    between atoms: C_6  and  N_7 
REMARK       I    between atoms: N_7  and  C_8 
REMARK    2  A    between atoms: C_8  and  C_9 
REMARK    3  A    between atoms: C_9  and  S_10 
REMARK    4  A    between atoms: S_10  and  C_11 
REMARK    5  A    between atoms: N_12  and  C_13 
REMARK    6  A    between atoms: C_13  and  C_14 
REMARK    7  A    between atoms: C_14  and  C_15 
REMARK       I    between atoms: C_15  and  N_16 
REMARK    8  A    between atoms: N_16  and  C_17 
ROOT
HETATM    1  C   UNL     1       7.655  29.992  57.924  1.00  0.00     0.172 A 
HETATM    2  N   UNL     1       6.704  30.992  57.821  1.00  0.00    -0.292 N 
HETATM    3  C   UNL     1       6.567  31.929  58.847  1.00  0.00     0.262 A 
HETATM    4  O   UNL     1       5.827  32.909  58.788  1.00  0.00    -0.267 OA
HETATM    5  C   UNL     1       7.381  31.722  60.053  1.00  0.00     0.061 A 
HETATM    6  C   UNL     1       8.281  30.662  60.048  1.00  0.00     0.075 A 
HETATM    7  C   UNL     1       7.236  32.547  61.174  1.00  0.00     0.019 A 
HETATM    8  C   UNL     1       7.994  32.296  62.315  1.00  0.00     0.001 A 
HETATM    9  C   UNL     1       8.882  31.222  62.333  1.00  0.00     0.002 A 
HETATM   10  C   UNL     1       9.020  30.408  61.204  1.00  0.00     0.032 A 
HETATM   11  N   UNL     1       8.450  29.832  58.932  1.00  0.00    -0.224 NA
ENDROOT
BRANCH   1  12
HETATM   12  S   UNL     1       7.841  28.838  56.628  1.00  0.00    -0.082 SA
BRANCH  12  13
HETATM   13  C   UNL     1       7.210  27.364  57.451  1.00  0.00     0.185 C 
BRANCH  13  14
HETATM   14  C   UNL     1       7.898  26.085  57.008  1.00  0.00     0.231 C 
HETATM   15  N   UNL     1       7.626  25.727  55.700  1.00  0.00    -0.326 N 
HETATM   16  H   UNL     1       7.332  26.477  55.073  1.00  0.00     0.169 HD
HETATM   17  O   UNL     1       8.532  25.414  57.818  1.00  0.00    -0.272 OA
BRANCH  15  18
HETATM   18  C   UNL     1       7.760  24.445  55.124  1.00  0.00     0.036 A 
HETATM   19  C   UNL     1       7.678  23.254  55.846  1.00  0.00     0.053 A 
HETATM   20  C   UNL     1       7.731  22.018  55.185  1.00  0.00     0.042 A 
HETATM   21  C   UNL     1       7.876  21.950  53.793  1.00  0.00    -0.040 A 
HETATM   22 CL   UNL     1       7.584  20.585  56.143  1.00  0.00    -0.084 Cl
HETATM   23  C   UNL     1       7.889  20.642  53.054  1.00  0.00     0.050 C 
HETATM   24  C   UNL     1       7.968  23.150  53.076  1.00  0.00     0.011 A 
HETATM   25  C   UNL     1       7.912  24.381  53.736  1.00  0.00     0.030 A 
ENDBRANCH  15  18
ENDBRANCH  13  14
ENDBRANCH  12  13
ENDBRANCH   1  12
BRANCH   2  26
HETATM   26  C   UNL     1       5.819  31.201  56.661  1.00  0.00     0.144 C 
BRANCH  26  27
HETATM   27  C   UNL     1       4.519  30.400  56.777  1.00  0.00     0.123 C 
BRANCH  27  28
HETATM   28  C   UNL     1       3.666  30.614  55.548  1.00  0.00     0.219 C 
HETATM   29  N   UNL     1       3.059  31.851  55.505  1.00  0.00    -0.356 N 
HETATM   30  H   UNL     1       3.291  32.540  56.209  1.00  0.00     0.162 HD
HETATM   31  O   UNL     1       3.553  29.769  54.666  1.00  0.00    -0.274 OA
BRANCH  29  32
HETATM   32  C   UNL     1       2.173  32.240  54.413  1.00  0.00     0.084 C 
HETATM   33  C   UNL     1       0.987  33.062  54.938  1.00  0.00     0.025 C 
HETATM   34  C   UNL     1       1.373  34.489  55.328  1.00  0.00     0.002 C 
HETATM   35  C   UNL     1       2.100  35.204  54.195  1.00  0.00     0.000 C 
HETATM   36  C   UNL     1       3.315  34.412  53.722  1.00  0.00     0.002 C 
HETATM   37  C   UNL     1       2.934  32.991  53.312  1.00  0.00     0.025 C 
ENDBRANCH  29  32
ENDBRANCH  27  28
ENDBRANCH  26  27
ENDBRANCH   2  26
TORSDOF 8
ENDMDL
MODEL 10
REMARK VINA RESULT:      -9.4      4.960      9.855
REMARK  8 active torsions:
REMARK  status: ('A' for Active; 'I' for Inactive)
REMARK    1  A    between atoms: C_6  and  N_7 
REMARK       I    between atoms: N_7  and  C_8 
REMARK    2  A    between atoms: C_8  and  C_9 
REMARK    3  A    between atoms: C_9  and  S_10 
REMARK    4  A    between atoms: S_10  and  C_11 
REMARK    5  A    between atoms: N_12  and  C_13 
REMARK    6  A    between atoms: C_13  and  C_14 
REMARK    7  A    between atoms: C_14  and  C_15 
REMARK       I    between atoms: C_15  and  N_16 
REMARK    8  A    between atoms: N_16  and  C_17 
ROOT
HETATM    1  C   UNL     1       5.809  29.118  55.733  1.00  0.00     0.172 A 
HETATM    2  N   UNL     1       6.811  28.268  55.301  1.00  0.00    -0.292 N 
HETATM    3  C   UNL     1       6.813  27.811  53.981  1.00  0.00     0.262 A 
HETATM    4  O   UNL     1       7.720  27.145  53.487  1.00  0.00    -0.267 OA
HETATM    5  C   UNL     1       5.660  28.177  53.147  1.00  0.00     0.061 A 
HETATM    6  C   UNL     1       4.701  29.014  53.706  1.00  0.00     0.075 A 
HETATM    7  C   UNL     1       5.522  27.679  51.846  1.00  0.00     0.019 A 
HETATM    8  C   UNL     1       4.395  28.013  51.098  1.00  0.00     0.001 A 
HETATM    9  C   UNL     1       3.413  28.831  51.654  1.00  0.00     0.002 A 
HETATM   10  C   UNL     1       3.566  29.325  52.954  1.00  0.00     0.032 A 
HETATM   11  N   UNL     1       4.826  29.532  55.001  1.00  0.00    -0.224 NA
ENDROOT
BRANCH   1  12
HETATM   12  S   UNL     1       5.824  29.709  57.376  1.00  0.00    -0.082 SA
BRANCH  12  13
HETATM   13  C   UNL     1       4.574  31.000  57.238  1.00  0.00     0.185 C 
BRANCH  13  14
HETATM   14  C   UNL     1       4.270  31.687  58.557  1.00  0.00     0.231 C 
HETATM   15  N   UNL     1       5.241  32.587  58.958  1.00  0.00    -0.326 N 
HETATM   16  H   UNL     1       5.836  32.973  58.224  1.00  0.00     0.169 HD
HETATM   17  O   UNL     1       3.290  31.347  59.217  1.00  0.00    -0.272 OA
BRANCH  15  18
HETATM   18  C   UNL     1       5.467  33.067  60.266  1.00  0.00     0.036 A 
HETATM   19  C   UNL     1       6.464  32.583  61.114  1.00  0.00     0.053 A 
HETATM   20  C   UNL     1       6.682  33.175  62.365  1.00  0.00     0.042 A 
HETATM   21  C   UNL     1       5.902  34.258  62.796  1.00  0.00    -0.040 A 
HETATM   22 CL   UNL     1       7.962  32.546  63.344  1.00  0.00    -0.084 Cl
HETATM   23  C   UNL     1       6.144  34.942  64.112  1.00  0.00     0.050 C 
HETATM   24  C   UNL     1       4.897  34.732  61.945  1.00  0.00     0.011 A 
HETATM   25  C   UNL     1       4.683  34.141  60.696  1.00  0.00     0.030 A 
ENDBRANCH  15  18
ENDBRANCH  13  14
ENDBRANCH  12  13
ENDBRANCH   1  12
BRANCH   2  26
HETATM   26  C   UNL     1       7.952  27.820  56.120  1.00  0.00     0.144 C 
BRANCH  26  27
HETATM   27  C   UNL     1       7.509  26.941  57.292  1.00  0.00     0.123 C 
BRANCH  27  28
HETATM   28  C   UNL     1       6.702  25.768  56.785  1.00  0.00     0.219 C 
HETATM   29  N   UNL     1       7.400  24.945  55.928  1.00  0.00    -0.356 N 
HETATM   30  H   UNL     1       8.387  25.110  55.779  1.00  0.00     0.162 HD
HETATM   31  O   UNL     1       5.543  25.564  57.131  1.00  0.00    -0.274 OA
BRANCH  29  32
HETATM   32  C   UNL     1       6.788  23.774  55.309  1.00  0.00     0.084 C 
HETATM   33  C   UNL     1       6.680  23.952  53.789  1.00  0.00     0.025 C 
HETATM   34  C   UNL     1       8.023  23.811  53.072  1.00  0.00     0.002 C 
HETATM   35  C   UNL     1       8.722  22.507  53.440  1.00  0.00     0.000 C 
HETATM   36  C   UNL     1       8.883  22.367  54.951  1.00  0.00     0.002 C 
HETATM   37  C   UNL     1       7.543  22.488  55.672  1.00  0.00     0.025 C 
ENDBRANCH  29  32
ENDBRANCH  27  28
ENDBRANCH  26  27
ENDBRANCH   2  26
TORSDOF 8
ENDMDL
