MODEL 1
REMARK VINA RESULT:      -8.1      0.000      0.000
REMARK  7 active torsions:
REMARK  status: ('A' for Active; 'I' for Inactive)
REMARK    1  A    between atoms: O_2  and  C_3 
REMARK    2  A    between atoms: C_4  and  O_5 
REMARK    3  A    between atoms: C_9  and  C_10 
REMARK    4  A    between atoms: C_10  and  N_11 
REMARK    5  A    between atoms: C_14  and  C_15 
REMARK    6  A    between atoms: C_15  and  N_16 
REMARK    7  A    between atoms: N_16  and  C_17 
ROOT
HETATM    1  N   UNL     1       6.246  26.442  53.198  1.00  0.00    -0.067 N 
HETATM    2  H   UNL     1       6.070  26.086  54.150  1.00  0.00     0.280 HD
HETATM    3  C   UNL     1       4.894  26.488  52.511  1.00  0.00     0.241 C 
HETATM    4  C   UNL     1       4.766  27.902  51.949  1.00  0.00     0.031 C 
HETATM    5  C   UNL     1       5.549  28.728  52.966  1.00  0.00     0.035 C 
HETATM    6  C   UNL     1       6.744  27.866  53.341  1.00  0.00     0.235 C 
ENDROOT
BRANCH   1   7
HETATM    7  C   UNL     1       7.285  25.510  52.613  1.00  0.00     0.273 C 
BRANCH   7   8
HETATM    8  C   UNL     1       7.632  24.343  53.497  1.00  0.00    -0.028 A 
HETATM    9  C   UNL     1       7.847  23.071  52.947  1.00  0.00     0.031 A 
HETATM   10  C   UNL     1       8.225  22.003  53.767  1.00  0.00     0.047 A 
HETATM   11  C   UNL     1       8.384  22.202  55.138  1.00  0.00     0.116 A 
HETATM   12 BR   UNL     1       8.523  20.315  52.963  1.00  0.00    -0.048 Br
HETATM   13  C   UNL     1       8.148  23.457  55.710  1.00  0.00     0.103 A 
HETATM   14  C   UNL     1       7.773  24.524  54.888  1.00  0.00     0.048 A 
BRANCH  11  15
HETATM   15  O   UNL     1       8.774  21.167  55.943  1.00  0.00    -0.357 OA
HETATM   16  H   UNL     1       9.737  21.257  56.082  1.00  0.00     0.218 HD
ENDBRANCH  11  15
BRANCH  13  17
HETATM   17  O   UNL     1       8.345  23.522  57.064  1.00  0.00    -0.353 OA
HETATM   18  C   UNL     1       8.728  24.776  57.618  1.00  0.00     0.210 C 
ENDBRANCH  13  17
ENDBRANCH   7   8
ENDBRANCH   1   7
BRANCH   4  19
HETATM   19  C   UNL     1       5.303  27.979  50.508  1.00  0.00     0.127 C 
BRANCH  19  20
HETATM   20  N   UNL     1       5.021  26.748  49.766  1.00  0.00    -0.376 N 
HETATM   21  H   UNL     1       5.845  26.239  49.453  1.00  0.00     0.161 HD
BRANCH  20  22
HETATM   22  C   UNL     1       3.912  26.694  48.929  1.00  0.00     0.100 A 
HETATM   23  N   UNL     1       2.870  27.506  49.186  1.00  0.00    -0.353 N 
HETATM   24  H   UNL     1       2.933  28.133  49.983  1.00  0.00     0.166 HD
HETATM   25  C   UNL     1       1.752  27.545  48.444  1.00  0.00     0.089 A 
HETATM   26  C   UNL     1       1.626  26.731  47.331  1.00  0.00     0.017 A 
HETATM   27  C   UNL     1       2.680  25.893  46.996  1.00  0.00     0.005 A 
HETATM   28  C   UNL     1       3.827  25.880  47.789  1.00  0.00     0.048 A 
ENDBRANCH  20  22
ENDBRANCH  19  20
ENDBRANCH   4  19
TORSDOF 7
ENDMDL
MODEL 2
REMARK VINA RESULT:      -7.9      2.903      5.781
REMARK  7 active torsions:
REMARK  status: ('A' for Active; 'I' for Inactive)
REMARK    1  A    between atoms: O_2  and  C_3 
REMARK    2  A    between atoms: C_4  and  O_5 
REMARK    3  A    between atoms: C_9  and  C_10 
REMARK    4  A    between atoms: C_10  and  N_11 
REMARK    5  A    between atoms: C_14  and  C_15 
REMARK    6  A    between atoms: C_15  and  N_16 
REMARK    7  A    between atoms: N_16  and  C_17 
ROOT
HETATM    1  N   UNL     1       6.274  26.026  52.045  1.00  0.00    -0.067 N 
HETATM    2  H   UNL     1       6.022  25.790  51.073  1.00  0.00     0.280 HD
HETATM    3  C   UNL     1       6.046  27.520  52.186  1.00  0.00     0.241 C 
HETATM    4  C   UNL     1       5.163  27.685  53.421  1.00  0.00     0.031 C 
HETATM    5  C   UNL     1       4.327  26.408  53.396  1.00  0.00     0.035 C 
HETATM    6  C   UNL     1       5.285  25.317  52.947  1.00  0.00     0.235 C 
ENDROOT
BRANCH   1   7
HETATM    7  C   UNL     1       7.693  25.527  52.218  1.00  0.00     0.273 C 
BRANCH   7   8
HETATM    8  C   UNL     1       7.838  24.430  53.238  1.00  0.00    -0.028 A 
HETATM    9  C   UNL     1       7.983  23.095  52.835  1.00  0.00     0.031 A 
HETATM   10  C   UNL     1       8.176  22.088  53.785  1.00  0.00     0.047 A 
HETATM   11  C   UNL     1       8.219  22.411  55.140  1.00  0.00     0.116 A 
HETATM   12 BR   UNL     1       8.388  20.308  53.177  1.00  0.00    -0.048 Br
HETATM   13  C   UNL     1       8.049  23.733  55.566  1.00  0.00     0.103 A 
HETATM   14  C   UNL     1       7.859  24.739  54.613  1.00  0.00     0.048 A 
BRANCH  11  15
HETATM   15  O   UNL     1       8.427  21.434  56.075  1.00  0.00    -0.357 OA
HETATM   16  H   UNL     1       9.375  21.458  56.311  1.00  0.00     0.218 HD
ENDBRANCH  11  15
BRANCH  13  17
HETATM   17  O   UNL     1       8.118  23.919  56.921  1.00  0.00    -0.353 OA
HETATM   18  C   UNL     1       8.366  25.237  57.397  1.00  0.00     0.210 C 
ENDBRANCH  13  17
ENDBRANCH   7   8
ENDBRANCH   1   7
BRANCH   4  19
HETATM   19  C   UNL     1       6.012  27.874  54.691  1.00  0.00     0.127 C 
BRANCH  19  20
HETATM   20  N   UNL     1       7.248  28.605  54.405  1.00  0.00    -0.376 N 
HETATM   21  H   UNL     1       7.688  28.370  53.518  1.00  0.00     0.161 HD
BRANCH  20  22
HETATM   22  C   UNL     1       8.107  28.929  55.449  1.00  0.00     0.100 A 
HETATM   23  N   UNL     1       9.346  29.364  55.153  1.00  0.00    -0.353 N 
HETATM   24  H   UNL     1       9.608  29.444  54.174  1.00  0.00     0.166 HD
HETATM   25  C   UNL     1      10.256  29.712  56.077  1.00  0.00     0.089 A 
HETATM   26  C   UNL     1       9.941  29.649  57.424  1.00  0.00     0.017 A 
HETATM   27  C   UNL     1       8.669  29.236  57.792  1.00  0.00     0.005 A 
HETATM   28  C   UNL     1       7.748  28.885  56.805  1.00  0.00     0.048 A 
ENDBRANCH  20  22
ENDBRANCH  19  20
ENDBRANCH   4  19
TORSDOF 7
ENDMDL
MODEL 3
REMARK VINA RESULT:      -7.9      3.133      6.003
REMARK  7 active torsions:
REMARK  status: ('A' for Active; 'I' for Inactive)
REMARK    1  A    between atoms: O_2  and  C_3 
REMARK    2  A    between atoms: C_4  and  O_5 
REMARK    3  A    between atoms: C_9  and  C_10 
REMARK    4  A    between atoms: C_10  and  N_11 
REMARK    5  A    between atoms: C_14  and  C_15 
REMARK    6  A    between atoms: C_15  and  N_16 
REMARK    7  A    between atoms: N_16  and  C_17 
ROOT
HETATM    1  N   UNL     1       6.301  25.583  51.863  1.00  0.00    -0.067 N 
HETATM    2  H   UNL     1       6.105  25.281  50.897  1.00  0.00     0.280 HD
HETATM    3  C   UNL     1       5.945  27.057  51.921  1.00  0.00     0.241 C 
HETATM    4  C   UNL     1       5.006  27.207  53.116  1.00  0.00     0.031 C 
HETATM    5  C   UNL     1       4.280  25.864  53.127  1.00  0.00     0.035 C 
HETATM    6  C   UNL     1       5.340  24.837  52.766  1.00  0.00     0.235 C 
ENDROOT
BRANCH   1   7
HETATM    7  C   UNL     1       7.748  25.213  52.108  1.00  0.00     0.273 C 
BRANCH   7   8
HETATM    8  C   UNL     1       7.958  24.302  53.287  1.00  0.00    -0.028 A 
HETATM    9  C   UNL     1       8.139  24.829  54.574  1.00  0.00     0.031 A 
HETATM   10  C   UNL     1       8.276  23.976  55.673  1.00  0.00     0.047 A 
HETATM   11  C   UNL     1       8.238  22.595  55.489  1.00  0.00     0.116 A 
HETATM   12 BR   UNL     1       8.495  24.749  57.387  1.00  0.00    -0.048 Br
HETATM   13  C   UNL     1       8.085  22.047  54.211  1.00  0.00     0.103 A 
HETATM   14  C   UNL     1       7.946  22.903  53.113  1.00  0.00     0.048 A 
BRANCH  11  15
HETATM   15  O   UNL     1       8.351  21.754  56.563  1.00  0.00    -0.357 OA
HETATM   16  H   UNL     1       8.689  20.901  56.226  1.00  0.00     0.218 HD
ENDBRANCH  11  15
BRANCH  13  17
HETATM   17  O   UNL     1       8.058  20.678  54.166  1.00  0.00    -0.353 OA
HETATM   18  C   UNL     1       8.606  20.043  53.017  1.00  0.00     0.210 C 
ENDBRANCH  13  17
ENDBRANCH   7   8
ENDBRANCH   1   7
BRANCH   4  19
HETATM   19  C   UNL     1       5.788  27.526  54.403  1.00  0.00     0.127 C 
BRANCH  19  20
HETATM   20  N   UNL     1       6.968  28.347  54.122  1.00  0.00    -0.376 N 
HETATM   21  H   UNL     1       7.355  28.234  53.188  1.00  0.00     0.161 HD
BRANCH  20  22
HETATM   22  C   UNL     1       7.882  28.599  55.139  1.00  0.00     0.100 A 
HETATM   23  N   UNL     1       9.040  29.211  54.828  1.00  0.00    -0.353 N 
HETATM   24  H   UNL     1       9.203  29.471  53.859  1.00  0.00     0.166 HD
HETATM   25  C   UNL     1       9.991  29.510  55.727  1.00  0.00     0.089 A 
HETATM   26  C   UNL     1       9.808  29.203  57.065  1.00  0.00     0.017 A 
HETATM   27  C   UNL     1       8.621  28.598  57.453  1.00  0.00     0.005 A 
HETATM   28  C   UNL     1       7.654  28.304  56.492  1.00  0.00     0.048 A 
ENDBRANCH  20  22
ENDBRANCH  19  20
ENDBRANCH   4  19
TORSDOF 7
ENDMDL
MODEL 4
REMARK VINA RESULT:      -7.9      4.448      7.479
REMARK  7 active torsions:
REMARK  status: ('A' for Active; 'I' for Inactive)
REMARK    1  A    between atoms: O_2  and  C_3 
REMARK    2  A    between atoms: C_4  and  O_5 
REMARK    3  A    between atoms: C_9  and  C_10 
REMARK    4  A    between atoms: C_10  and  N_11 
REMARK    5  A    between atoms: C_14  and  C_15 
REMARK    6  A    between atoms: C_15  and  N_16 
REMARK    7  A    between atoms: N_16  and  C_17 
ROOT
HETATM    1  N   UNL     1       5.942  26.938  53.721  1.00  0.00    -0.067 N 
HETATM    2  H   UNL     1       5.172  27.451  54.177  1.00  0.00     0.280 HD
HETATM    3  C   UNL     1       5.941  25.550  54.334  1.00  0.00     0.241 C 
HETATM    4  C   UNL     1       5.916  24.580  53.155  1.00  0.00     0.031 C 
HETATM    5  C   UNL     1       5.120  25.359  52.111  1.00  0.00     0.035 C 
HETATM    6  C   UNL     1       5.578  26.800  52.256  1.00  0.00     0.235 C 
ENDROOT
BRANCH   1   7
HETATM    7  C   UNL     1       7.172  27.791  53.945  1.00  0.00     0.273 C 
BRANCH   7   8
HETATM    8  C   UNL     1       7.152  28.573  55.230  1.00  0.00    -0.028 A 
HETATM    9  C   UNL     1       5.944  29.063  55.749  1.00  0.00     0.031 A 
HETATM   10  C   UNL     1       5.925  29.739  56.973  1.00  0.00     0.047 A 
HETATM   11  C   UNL     1       7.112  29.932  57.678  1.00  0.00     0.116 A 
HETATM   12 BR   UNL     1       4.261  30.357  57.631  1.00  0.00    -0.048 Br
HETATM   13  C   UNL     1       8.331  29.476  57.166  1.00  0.00     0.103 A 
HETATM   14  C   UNL     1       8.348  28.797  55.943  1.00  0.00     0.048 A 
BRANCH  11  15
HETATM   15  O   UNL     1       7.098  30.576  58.886  1.00  0.00    -0.357 OA
HETATM   16  H   UNL     1       8.006  30.894  59.053  1.00  0.00     0.218 HD
ENDBRANCH  11  15
BRANCH  13  17
HETATM   17  O   UNL     1       9.422  29.723  57.957  1.00  0.00    -0.353 OA
HETATM   18  C   UNL     1      10.602  30.204  57.326  1.00  0.00     0.210 C 
ENDBRANCH  13  17
ENDBRANCH   7   8
ENDBRANCH   1   7
BRANCH   4  19
HETATM   19  C   UNL     1       7.343  24.196  52.720  1.00  0.00     0.127 C 
BRANCH  19  20
HETATM   20  N   UNL     1       8.212  23.972  53.877  1.00  0.00    -0.376 N 
HETATM   21  H   UNL     1       9.077  24.508  53.872  1.00  0.00     0.161 HD
BRANCH  20  22
HETATM   22  C   UNL     1       8.279  22.705  54.446  1.00  0.00     0.100 A 
HETATM   23  N   UNL     1       8.287  22.600  55.788  1.00  0.00    -0.353 N 
HETATM   24  H   UNL     1       8.240  23.454  56.338  1.00  0.00     0.166 HD
HETATM   25  C   UNL     1       8.341  21.431  56.446  1.00  0.00     0.089 A 
HETATM   26  C   UNL     1       8.378  20.238  55.744  1.00  0.00     0.017 A 
HETATM   27  C   UNL     1       8.342  20.279  54.358  1.00  0.00     0.005 A 
HETATM   28  C   UNL     1       8.283  21.511  53.708  1.00  0.00     0.048 A 
ENDBRANCH  20  22
ENDBRANCH  19  20
ENDBRANCH   4  19
TORSDOF 7
ENDMDL
MODEL 5
REMARK VINA RESULT:      -7.8      5.028      8.694
REMARK  7 active torsions:
REMARK  status: ('A' for Active; 'I' for Inactive)
REMARK    1  A    between atoms: O_2  and  C_3 
REMARK    2  A    between atoms: C_4  and  O_5 
REMARK    3  A    between atoms: C_9  and  C_10 
REMARK    4  A    between atoms: C_10  and  N_11 
REMARK    5  A    between atoms: C_14  and  C_15 
REMARK    6  A    between atoms: C_15  and  N_16 
REMARK    7  A    between atoms: N_16  and  C_17 
ROOT
HETATM    1  N   UNL     1       6.994  27.354  56.207  1.00  0.00    -0.067 N 
HETATM    2  H   UNL     1       6.834  27.015  55.247  1.00  0.00     0.280 HD
HETATM    3  C   UNL     1       7.994  28.489  56.089  1.00  0.00     0.241 C 
HETATM    4  C   UNL     1       7.370  29.667  56.835  1.00  0.00     0.031 C 
HETATM    5  C   UNL     1       5.878  29.442  56.605  1.00  0.00     0.035 C 
HETATM    6  C   UNL     1       5.684  27.938  56.697  1.00  0.00     0.235 C 
ENDROOT
BRANCH   1   7
HETATM    7  C   UNL     1       7.426  26.134  56.991  1.00  0.00     0.273 C 
BRANCH   7   8
HETATM    8  C   UNL     1       7.628  24.903  56.150  1.00  0.00    -0.028 A 
HETATM    9  C   UNL     1       7.936  23.672  56.749  1.00  0.00     0.031 A 
HETATM   10  C   UNL     1       8.066  22.520  55.967  1.00  0.00     0.047 A 
HETATM   11  C   UNL     1       7.894  22.596  54.586  1.00  0.00     0.116 A 
HETATM   12 BR   UNL     1       8.461  20.885  56.836  1.00  0.00    -0.048 Br
HETATM   13  C   UNL     1       7.613  23.817  53.966  1.00  0.00     0.103 A 
HETATM   14  C   UNL     1       7.481  24.968  54.750  1.00  0.00     0.048 A 
BRANCH  11  15
HETATM   15  O   UNL     1       7.999  21.468  53.817  1.00  0.00    -0.357 OA
HETATM   16  H   UNL     1       8.817  21.555  53.290  1.00  0.00     0.218 HD
ENDBRANCH  11  15
BRANCH  13  17
HETATM   17  O   UNL     1       7.461  23.756  52.606  1.00  0.00    -0.353 OA
HETATM   18  C   UNL     1       7.559  24.971  51.873  1.00  0.00     0.210 C 
ENDBRANCH  13  17
ENDBRANCH   7   8
ENDBRANCH   1   7
BRANCH   4  19
HETATM   19  C   UNL     1       7.798  29.679  58.314  1.00  0.00     0.127 C 
BRANCH  19  20
HETATM   20  N   UNL     1       7.066  30.694  59.074  1.00  0.00    -0.376 N 
HETATM   21  H   UNL     1       6.551  31.364  58.508  1.00  0.00     0.161 HD
BRANCH  20  22
HETATM   22  C   UNL     1       7.605  31.179  60.260  1.00  0.00     0.100 A 
HETATM   23  N   UNL     1       6.779  31.413  61.296  1.00  0.00    -0.353 N 
HETATM   24  H   UNL     1       5.788  31.221  61.175  1.00  0.00     0.166 HD
HETATM   25  C   UNL     1       7.188  31.874  62.490  1.00  0.00     0.089 A 
HETATM   26  C   UNL     1       8.530  32.124  62.717  1.00  0.00     0.017 A 
HETATM   27  C   UNL     1       9.436  31.874  61.696  1.00  0.00     0.005 A 
HETATM   28  C   UNL     1       8.976  31.393  60.471  1.00  0.00     0.048 A 
ENDBRANCH  20  22
ENDBRANCH  19  20
ENDBRANCH   4  19
TORSDOF 7
ENDMDL
MODEL 6
REMARK VINA RESULT:      -7.8      5.385      8.924
REMARK  7 active torsions:
REMARK  status: ('A' for Active; 'I' for Inactive)
REMARK    1  A    between atoms: O_2  and  C_3 
REMARK    2  A    between atoms: C_4  and  O_5 
REMARK    3  A    between atoms: C_9  and  C_10 
REMARK    4  A    between atoms: C_10  and  N_11 
REMARK    5  A    between atoms: C_14  and  C_15 
REMARK    6  A    between atoms: C_15  and  N_16 
REMARK    7  A    between atoms: N_16  and  C_17 
ROOT
HETATM    1  N   UNL     1       7.161  27.744  56.661  1.00  0.00    -0.067 N 
HETATM    2  H   UNL     1       6.931  27.534  55.678  1.00  0.00     0.280 HD
HETATM    3  C   UNL     1       8.172  28.875  56.622  1.00  0.00     0.241 C 
HETATM    4  C   UNL     1       7.621  29.952  57.554  1.00  0.00     0.031 C 
HETATM    5  C   UNL     1       6.113  29.774  57.399  1.00  0.00     0.035 C 
HETATM    6  C   UNL     1       5.898  28.272  57.310  1.00  0.00     0.235 C 
ENDROOT
BRANCH   1   7
HETATM    7  C   UNL     1       7.621  26.428  57.250  1.00  0.00     0.273 C 
BRANCH   7   8
HETATM    8  C   UNL     1       7.833  25.340  56.233  1.00  0.00    -0.028 A 
HETATM    9  C   UNL     1       7.583  25.575  54.873  1.00  0.00     0.031 A 
HETATM   10  C   UNL     1       7.837  24.578  53.926  1.00  0.00     0.047 A 
HETATM   11  C   UNL     1       8.336  23.343  54.335  1.00  0.00     0.116 A 
HETATM   12 BR   UNL     1       7.501  24.965  52.104  1.00  0.00    -0.048 Br
HETATM   13  C   UNL     1       8.567  23.078  55.690  1.00  0.00     0.103 A 
HETATM   14  C   UNL     1       8.315  24.077  56.634  1.00  0.00     0.048 A 
BRANCH  11  15
HETATM   15  O   UNL     1       8.607  22.370  53.412  1.00  0.00    -0.357 OA
HETATM   16  H   UNL     1       8.628  21.518  53.890  1.00  0.00     0.218 HD
ENDBRANCH  11  15
BRANCH  13  17
HETATM   17  O   UNL     1       9.064  21.830  55.959  1.00  0.00    -0.353 OA
HETATM   18  C   UNL     1       8.245  20.939  56.707  1.00  0.00     0.210 C 
ENDBRANCH  13  17
ENDBRANCH   7   8
ENDBRANCH   1   7
BRANCH   4  19
HETATM   19  C   UNL     1       8.145  29.768  58.990  1.00  0.00     0.127 C 
BRANCH  19  20
HETATM   20  N   UNL     1       8.658  31.026  59.537  1.00  0.00    -0.376 N 
HETATM   21  H   UNL     1       9.653  31.182  59.389  1.00  0.00     0.161 HD
BRANCH  20  22
HETATM   22  C   UNL     1       8.129  31.520  60.724  1.00  0.00     0.100 A 
HETATM   23  N   UNL     1       6.796  31.674  60.821  1.00  0.00    -0.353 N 
HETATM   24  H   UNL     1       6.222  31.419  60.022  1.00  0.00     0.166 HD
HETATM   25  C   UNL     1       6.174  32.134  61.919  1.00  0.00     0.089 A 
HETATM   26  C   UNL     1       6.907  32.470  63.045  1.00  0.00     0.017 A 
HETATM   27  C   UNL     1       8.284  32.304  63.017  1.00  0.00     0.005 A 
HETATM   28  C   UNL     1       8.895  31.821  61.861  1.00  0.00     0.048 A 
ENDBRANCH  20  22
ENDBRANCH  19  20
ENDBRANCH   4  19
TORSDOF 7
ENDMDL
MODEL 7
REMARK VINA RESULT:      -7.8      6.348      8.405
REMARK  7 active torsions:
REMARK  status: ('A' for Active; 'I' for Inactive)
REMARK    1  A    between atoms: O_2  and  C_3 
REMARK    2  A    between atoms: C_4  and  O_5 
REMARK    3  A    between atoms: C_9  and  C_10 
REMARK    4  A    between atoms: C_10  and  N_11 
REMARK    5  A    between atoms: C_14  and  C_15 
REMARK    6  A    between atoms: C_15  and  N_16 
REMARK    7  A    between atoms: N_16  and  C_17 
ROOT
HETATM    1  N   UNL     1       6.166  27.312  57.008  1.00  0.00    -0.067 N 
HETATM    2  H   UNL     1       5.553  27.747  57.714  1.00  0.00     0.280 HD
HETATM    3  C   UNL     1       7.160  26.465  57.780  1.00  0.00     0.241 C 
HETATM    4  C   UNL     1       7.100  25.078  57.144  1.00  0.00     0.031 C 
HETATM    5  C   UNL     1       5.644  24.989  56.696  1.00  0.00     0.035 C 
HETATM    6  C   UNL     1       5.301  26.379  56.184  1.00  0.00     0.235 C 
ENDROOT
BRANCH   1   7
HETATM    7  C   UNL     1       6.722  28.465  56.201  1.00  0.00     0.273 C 
BRANCH   7   8
HETATM    8  C   UNL     1       7.400  29.523  57.029  1.00  0.00    -0.028 A 
HETATM    9  C   UNL     1       6.656  30.333  57.900  1.00  0.00     0.031 A 
HETATM   10  C   UNL     1       7.300  31.275  58.709  1.00  0.00     0.047 A 
HETATM   11  C   UNL     1       8.685  31.415  58.645  1.00  0.00     0.116 A 
HETATM   12 BR   UNL     1       6.244  32.322  59.881  1.00  0.00    -0.048 Br
HETATM   13  C   UNL     1       9.443  30.636  57.763  1.00  0.00     0.103 A 
HETATM   14  C   UNL     1       8.797  29.693  56.957  1.00  0.00     0.048 A 
BRANCH  11  15
HETATM   15  O   UNL     1       9.324  32.321  59.448  1.00  0.00    -0.357 OA
HETATM   16  H   UNL     1       8.980  33.205  59.213  1.00  0.00     0.218 HD
ENDBRANCH  11  15
BRANCH  13  17
HETATM   17  O   UNL     1      10.793  30.865  57.801  1.00  0.00    -0.353 OA
HETATM   18  C   UNL     1      11.650  29.859  57.275  1.00  0.00     0.210 C 
ENDBRANCH  13  17
ENDBRANCH   7   8
ENDBRANCH   1   7
BRANCH   4  19
HETATM   19  C   UNL     1       8.131  24.940  56.009  1.00  0.00     0.127 C 
BRANCH  19  20
HETATM   20  N   UNL     1       8.855  23.669  56.095  1.00  0.00    -0.376 N 
HETATM   21  H   UNL     1       9.811  23.744  56.435  1.00  0.00     0.161 HD
BRANCH  20  22
HETATM   22  C   UNL     1       8.617  22.682  55.146  1.00  0.00     0.100 A 
HETATM   23  N   UNL     1       8.932  21.409  55.446  1.00  0.00    -0.353 N 
HETATM   24  H   UNL     1       9.330  21.214  56.361  1.00  0.00     0.166 HD
HETATM   25  C   UNL     1       8.740  20.375  54.612  1.00  0.00     0.089 A 
HETATM   26  C   UNL     1       8.175  20.581  53.364  1.00  0.00     0.017 A 
HETATM   27  C   UNL     1       7.801  21.868  53.008  1.00  0.00     0.005 A 
HETATM   28  C   UNL     1       8.013  22.918  53.901  1.00  0.00     0.048 A 
ENDBRANCH  20  22
ENDBRANCH  19  20
ENDBRANCH   4  19
TORSDOF 7
ENDMDL
MODEL 8
REMARK VINA RESULT:      -7.7      4.907      7.478
REMARK  7 active torsions:
REMARK  status: ('A' for Active; 'I' for Inactive)
REMARK    1  A    between atoms: O_2  and  C_3 
REMARK    2  A    between atoms: C_4  and  O_5 
REMARK    3  A    between atoms: C_9  and  C_10 
REMARK    4  A    between atoms: C_10  and  N_11 
REMARK    5  A    between atoms: C_14  and  C_15 
REMARK    6  A    between atoms: C_15  and  N_16 
REMARK    7  A    between atoms: N_16  and  C_17 
ROOT
HETATM    1  N   UNL     1       6.140  27.033  54.811  1.00  0.00    -0.067 N 
HETATM    2  H   UNL     1       5.468  27.747  55.129  1.00  0.00     0.280 HD
HETATM    3  C   UNL     1       5.308  25.858  54.331  1.00  0.00     0.241 C 
HETATM    4  C   UNL     1       5.816  25.540  52.926  1.00  0.00     0.031 C 
HETATM    5  C   UNL     1       6.236  26.916  52.415  1.00  0.00     0.035 C 
HETATM    6  C   UNL     1       6.866  27.609  53.611  1.00  0.00     0.235 C 
ENDROOT
BRANCH   1   7
HETATM    7  C   UNL     1       7.054  26.794  55.993  1.00  0.00     0.273 C 
BRANCH   7   8
HETATM    8  C   UNL     1       7.479  28.049  56.705  1.00  0.00    -0.028 A 
HETATM    9  C   UNL     1       8.833  28.413  56.765  1.00  0.00     0.031 A 
HETATM   10  C   UNL     1       9.215  29.609  57.378  1.00  0.00     0.047 A 
HETATM   11  C   UNL     1       8.249  30.443  57.937  1.00  0.00     0.116 A 
HETATM   12 BR   UNL     1      11.055  30.055  57.406  1.00  0.00    -0.048 Br
HETATM   13  C   UNL     1       6.896  30.087  57.913  1.00  0.00     0.103 A 
HETATM   14  C   UNL     1       6.515  28.891  57.297  1.00  0.00     0.048 A 
BRANCH  11  15
HETATM   15  O   UNL     1       8.614  31.626  58.521  1.00  0.00    -0.357 OA
HETATM   16  H   UNL     1       8.819  32.252  57.799  1.00  0.00     0.218 HD
ENDBRANCH  11  15
BRANCH  13  17
HETATM   17  O   UNL     1       6.047  30.994  58.490  1.00  0.00    -0.353 OA
HETATM   18  C   UNL     1       5.231  31.778  57.628  1.00  0.00     0.210 C 
ENDBRANCH  13  17
ENDBRANCH   7   8
ENDBRANCH   1   7
BRANCH   4  19
HETATM   19  C   UNL     1       6.947  24.496  52.966  1.00  0.00     0.127 C 
BRANCH  19  20
HETATM   20  N   UNL     1       6.842  23.639  54.149  1.00  0.00    -0.376 N 
HETATM   21  H   UNL     1       6.790  24.136  55.035  1.00  0.00     0.161 HD
BRANCH  20  22
HETATM   22  C   UNL     1       7.508  22.418  54.169  1.00  0.00     0.100 A 
HETATM   23  N   UNL     1       7.699  21.807  55.352  1.00  0.00    -0.353 N 
HETATM   24  H   UNL     1       7.345  22.259  56.191  1.00  0.00     0.166 HD
HETATM   25  C   UNL     1       8.321  20.625  55.491  1.00  0.00     0.089 A 
HETATM   26  C   UNL     1       8.798  19.953  54.378  1.00  0.00     0.017 A 
HETATM   27  C   UNL     1       8.604  20.518  53.126  1.00  0.00     0.005 A 
HETATM   28  C   UNL     1       7.951  21.746  53.019  1.00  0.00     0.048 A 
ENDBRANCH  20  22
ENDBRANCH  19  20
ENDBRANCH   4  19
TORSDOF 7
ENDMDL
MODEL 9
REMARK VINA RESULT:      -7.6      3.865      5.232
REMARK  7 active torsions:
REMARK  status: ('A' for Active; 'I' for Inactive)
REMARK    1  A    between atoms: O_2  and  C_3 
REMARK    2  A    between atoms: C_4  and  O_5 
REMARK    3  A    between atoms: C_9  and  C_10 
REMARK    4  A    between atoms: C_10  and  N_11 
REMARK    5  A    between atoms: C_14  and  C_15 
REMARK    6  A    between atoms: C_15  and  N_16 
REMARK    7  A    between atoms: N_16  and  C_17 
ROOT
HETATM    1  N   UNL     1       7.535  25.575  54.488  1.00  0.00    -0.067 N 
HETATM    2  H   UNL     1       8.436  25.888  54.880  1.00  0.00     0.280 HD
HETATM    3  C   UNL     1       7.255  26.484  53.306  1.00  0.00     0.241 C 
HETATM    4  C   UNL     1       6.961  25.553  52.132  1.00  0.00     0.031 C 
HETATM    5  C   UNL     1       7.837  24.344  52.449  1.00  0.00     0.035 C 
HETATM    6  C   UNL     1       7.744  24.172  53.956  1.00  0.00     0.235 C 
ENDROOT
BRANCH   1   7
HETATM    7  C   UNL     1       6.561  25.628  55.645  1.00  0.00     0.273 C 
BRANCH   7   8
HETATM    8  C   UNL     1       6.474  26.973  56.315  1.00  0.00    -0.028 A 
HETATM    9  C   UNL     1       5.322  27.762  56.185  1.00  0.00     0.031 A 
HETATM   10  C   UNL     1       5.225  28.984  56.856  1.00  0.00     0.047 A 
HETATM   11  C   UNL     1       6.280  29.424  57.655  1.00  0.00     0.116 A 
HETATM   12 BR   UNL     1       3.635  29.993  56.659  1.00  0.00    -0.048 Br
HETATM   13  C   UNL     1       7.449  28.665  57.776  1.00  0.00     0.103 A 
HETATM   14  C   UNL     1       7.543  27.442  57.106  1.00  0.00     0.048 A 
BRANCH  11  15
HETATM   15  O   UNL     1       6.183  30.610  58.331  1.00  0.00    -0.357 OA
HETATM   16  H   UNL     1       7.093  30.937  58.469  1.00  0.00     0.218 HD
ENDBRANCH  11  15
BRANCH  13  17
HETATM   17  O   UNL     1       8.407  29.204  58.594  1.00  0.00    -0.353 OA
HETATM   18  C   UNL     1       9.505  29.867  57.979  1.00  0.00     0.210 C 
ENDBRANCH  13  17
ENDBRANCH   7   8
ENDBRANCH   1   7
BRANCH   4  19
HETATM   19  C   UNL     1       5.456  25.247  52.027  1.00  0.00     0.127 C 
BRANCH  19  20
HETATM   20  N   UNL     1       4.698  26.426  51.605  1.00  0.00    -0.376 N 
HETATM   21  H   UNL     1       3.815  26.565  52.092  1.00  0.00     0.161 HD
BRANCH  20  22
HETATM   22  C   UNL     1       4.730  26.816  50.270  1.00  0.00     0.100 A 
HETATM   23  N   UNL     1       4.106  26.048  49.359  1.00  0.00    -0.353 N 
HETATM   24  H   UNL     1       3.629  25.210  49.680  1.00  0.00     0.166 HD
HETATM   25  C   UNL     1       4.065  26.329  48.046  1.00  0.00     0.089 A 
HETATM   26  C   UNL     1       4.674  27.473  47.560  1.00  0.00     0.017 A 
HETATM   27  C   UNL     1       5.308  28.322  48.455  1.00  0.00     0.005 A 
HETATM   28  C   UNL     1       5.329  27.999  49.811  1.00  0.00     0.048 A 
ENDBRANCH  20  22
ENDBRANCH  19  20
ENDBRANCH   4  19
TORSDOF 7
ENDMDL
MODEL 10
REMARK VINA RESULT:      -7.5      4.159      6.987
REMARK  7 active torsions:
REMARK  status: ('A' for Active; 'I' for Inactive)
REMARK    1  A    between atoms: O_2  and  C_3 
REMARK    2  A    between atoms: C_4  and  O_5 
REMARK    3  A    between atoms: C_9  and  C_10 
REMARK    4  A    between atoms: C_10  and  N_11 
REMARK    5  A    between atoms: C_14  and  C_15 
REMARK    6  A    between atoms: C_15  and  N_16 
REMARK    7  A    between atoms: N_16  and  C_17 
ROOT
HETATM    1  N   UNL     1       5.324  27.532  53.347  1.00  0.00    -0.067 N 
HETATM    2  H   UNL     1       5.107  28.299  52.692  1.00  0.00     0.280 HD
HETATM    3  C   UNL     1       4.894  26.254  52.652  1.00  0.00     0.241 C 
HETATM    4  C   UNL     1       6.105  25.325  52.715  1.00  0.00     0.031 C 
HETATM    5  C   UNL     1       7.271  26.308  52.658  1.00  0.00     0.035 C 
HETATM    6  C   UNL     1       6.831  27.494  53.501  1.00  0.00     0.235 C 
ENDROOT
BRANCH   1   7
HETATM    7  C   UNL     1       4.609  27.894  54.631  1.00  0.00     0.273 C 
BRANCH   7   8
HETATM    8  C   UNL     1       5.529  28.219  55.776  1.00  0.00    -0.028 A 
HETATM    9  C   UNL     1       5.577  29.516  56.308  1.00  0.00     0.031 A 
HETATM   10  C   UNL     1       6.391  29.798  57.409  1.00  0.00     0.047 A 
HETATM   11  C   UNL     1       7.163  28.787  57.978  1.00  0.00     0.116 A 
HETATM   12 BR   UNL     1       6.394  31.562  58.095  1.00  0.00    -0.048 Br
HETATM   13  C   UNL     1       7.152  27.492  57.447  1.00  0.00     0.103 A 
HETATM   14  C   UNL     1       6.335  27.212  56.347  1.00  0.00     0.048 A 
BRANCH  11  15
HETATM   15  O   UNL     1       7.947  29.051  59.069  1.00  0.00    -0.357 OA
HETATM   16  H   UNL     1       8.788  28.570  58.941  1.00  0.00     0.218 HD
ENDBRANCH  11  15
BRANCH  13  17
HETATM   17  O   UNL     1       7.949  26.590  58.100  1.00  0.00    -0.353 OA
HETATM   18  C   UNL     1       8.420  25.468  57.364  1.00  0.00     0.210 C 
ENDBRANCH  13  17
ENDBRANCH   7   8
ENDBRANCH   1   7
BRANCH   4  19
HETATM   19  C   UNL     1       6.067  24.444  53.977  1.00  0.00     0.127 C 
BRANCH  19  20
HETATM   20  N   UNL     1       7.414  24.052  54.396  1.00  0.00    -0.376 N 
HETATM   21  H   UNL     1       8.136  24.748  54.223  1.00  0.00     0.161 HD
BRANCH  20  22
HETATM   22  C   UNL     1       7.805  22.722  54.283  1.00  0.00     0.100 A 
HETATM   23  N   UNL     1       7.984  22.005  55.407  1.00  0.00    -0.353 N 
HETATM   24  H   UNL     1       7.823  22.461  56.301  1.00  0.00     0.166 HD
HETATM   25  C   UNL     1       8.352  20.713  55.419  1.00  0.00     0.089 A 
HETATM   26  C   UNL     1       8.557  20.036  54.228  1.00  0.00     0.017 A 
HETATM   27  C   UNL     1       8.359  20.714  53.034  1.00  0.00     0.005 A 
HETATM   28  C   UNL     1       7.974  22.055  53.060  1.00  0.00     0.048 A 
ENDBRANCH  20  22
ENDBRANCH  19  20
ENDBRANCH   4  19
TORSDOF 7
ENDMDL
