MODEL 1
REMARK VINA RESULT:      -9.7      0.000      0.000
REMARK  3 active torsions:
REMARK  status: ('A' for Active; 'I' for Inactive)
REMARK    1  A    between atoms: C_6  and  N_7 
REMARK       I    between atoms: N_7  and  C_8 
REMARK    2  A    between atoms: C_8  and  C_9 
REMARK    3  A    between atoms: C_9  and  C_10 
ROOT
HETATM    1  N   UNL     1       7.491  26.380  54.722  1.00  0.00    -0.325 N 
HETATM    2  C   UNL     1       6.345  27.099  55.007  1.00  0.00     0.228 C 
HETATM    3  O   UNL     1       5.251  26.626  55.299  1.00  0.00    -0.273 OA
HETATM    4  H   UNL     1       8.358  26.869  54.960  1.00  0.00     0.169 HD
ENDROOT
BRANCH   2   5
HETATM    5  C   UNL     1       6.527  28.600  54.896  1.00  0.00     0.165 C 
BRANCH   5   6
HETATM    6  C   UNL     1       6.860  29.297  56.204  1.00  0.00     0.074 A 
HETATM    7  N   UNL     1       5.844  29.579  56.968  1.00  0.00    -0.175 NA
HETATM    8  N   UNL     1       6.074  30.169  58.168  1.00  0.00    -0.243 N 
HETATM    9  C   UNL     1       7.304  30.463  58.700  1.00  0.00     0.272 A 
HETATM   10  H   UNL     1       5.261  30.382  58.740  1.00  0.00     0.192 HD
HETATM   11  O   UNL     1       7.433  30.963  59.812  1.00  0.00    -0.266 OA
HETATM   12  C   UNL     1       8.467  30.148  57.855  1.00  0.00     0.046 A 
HETATM   13  C   UNL     1       8.266  29.587  56.592  1.00  0.00     0.006 A 
HETATM   14  C   UNL     1       9.758  30.423  58.325  1.00  0.00     0.018 A 
HETATM   15  C   UNL     1       9.379  29.322  55.785  1.00  0.00     0.014 A 
HETATM   16  C   UNL     1      10.670  29.596  56.254  1.00  0.00     0.001 A 
HETATM   17  C   UNL     1      10.860  30.140  57.523  1.00  0.00     0.001 A 
ENDBRANCH   5   6
ENDBRANCH   2   5
BRANCH   1  18
HETATM   18  C   UNL     1       7.603  24.968  54.660  1.00  0.00     0.062 A 
HETATM   19  C   UNL     1       7.789  24.276  55.875  1.00  0.00     0.061 A 
HETATM   20  C   UNL     1       7.904  22.884  55.911  1.00  0.00     0.033 A 
HETATM   21 CL   UNL     1       7.843  25.119  57.390  1.00  0.00    -0.082 Cl
HETATM   22  C   UNL     1       7.867  22.148  54.727  1.00  0.00    -0.060 A 
HETATM   23  C   UNL     1       7.948  20.651  54.754  1.00  0.00     0.048 C 
HETATM   24  C   UNL     1       7.711  22.830  53.515  1.00  0.00     0.016 A 
HETATM   25  C   UNL     1       7.614  24.237  53.457  1.00  0.00    -0.033 A 
HETATM   26  C   UNL     1       7.583  24.859  52.088  1.00  0.00     0.050 C 
ENDBRANCH   1  18
TORSDOF 3
ENDMDL
MODEL 2
REMARK VINA RESULT:      -9.5      4.712      7.405
REMARK  3 active torsions:
REMARK  status: ('A' for Active; 'I' for Inactive)
REMARK    1  A    between atoms: C_6  and  N_7 
REMARK       I    between atoms: N_7  and  C_8 
REMARK    2  A    between atoms: C_8  and  C_9 
REMARK    3  A    between atoms: C_9  and  C_10 
ROOT
HETATM    1  N   UNL     1       5.966  26.650  51.033  1.00  0.00    -0.325 N 
HETATM    2  C   UNL     1       5.998  25.446  51.711  1.00  0.00     0.228 C 
HETATM    3  O   UNL     1       5.022  24.816  52.109  1.00  0.00    -0.273 OA
HETATM    4  H   UNL     1       6.755  26.789  50.396  1.00  0.00     0.169 HD
ENDROOT
BRANCH   2   5
HETATM    5  C   UNL     1       7.401  24.938  51.980  1.00  0.00     0.165 C 
BRANCH   5   6
HETATM    6  C   UNL     1       7.650  24.488  53.408  1.00  0.00     0.074 A 
HETATM    7  N   UNL     1       7.640  25.429  54.307  1.00  0.00    -0.175 NA
HETATM    8  N   UNL     1       7.819  25.092  55.609  1.00  0.00    -0.243 N 
HETATM    9  C   UNL     1       7.965  23.818  56.100  1.00  0.00     0.272 A 
HETATM   10  H   UNL     1       7.811  25.849  56.286  1.00  0.00     0.192 HD
HETATM   11  O   UNL     1       8.084  23.589  57.297  1.00  0.00    -0.266 OA
HETATM   12  C   UNL     1       7.974  22.738  55.101  1.00  0.00     0.046 A 
HETATM   13  C   UNL     1       7.843  23.052  53.746  1.00  0.00     0.006 A 
HETATM   14  C   UNL     1       8.123  21.409  55.521  1.00  0.00     0.018 A 
HETATM   15  C   UNL     1       7.886  22.018  52.804  1.00  0.00     0.014 A 
HETATM   16  C   UNL     1       8.034  20.689  53.224  1.00  0.00     0.001 A 
HETATM   17  C   UNL     1       8.147  20.385  54.579  1.00  0.00     0.001 A 
ENDBRANCH   5   6
ENDBRANCH   2   5
BRANCH   1  18
HETATM   18  C   UNL     1       4.809  27.407  50.719  1.00  0.00     0.062 A 
HETATM   19  C   UNL     1       4.262  28.213  51.740  1.00  0.00     0.061 A 
HETATM   20  C   UNL     1       3.127  28.998  51.520  1.00  0.00     0.033 A 
HETATM   21 CL   UNL     1       4.999  28.300  53.308  1.00  0.00    -0.082 Cl
HETATM   22  C   UNL     1       2.489  28.974  50.281  1.00  0.00    -0.060 A 
HETATM   23  C   UNL     1       1.294  29.841  50.018  1.00  0.00     0.048 C 
HETATM   24  C   UNL     1       3.008  28.155  49.271  1.00  0.00     0.016 A 
HETATM   25  C   UNL     1       4.142  27.340  49.482  1.00  0.00    -0.033 A 
HETATM   26  C   UNL     1       4.524  26.407  48.364  1.00  0.00     0.050 C 
ENDBRANCH   1  18
TORSDOF 3
ENDMDL
MODEL 3
REMARK VINA RESULT:      -9.3      3.350      8.223
REMARK  3 active torsions:
REMARK  status: ('A' for Active; 'I' for Inactive)
REMARK    1  A    between atoms: C_6  and  N_7 
REMARK       I    between atoms: N_7  and  C_8 
REMARK    2  A    between atoms: C_8  and  C_9 
REMARK    3  A    between atoms: C_9  and  C_10 
ROOT
HETATM    1  N   UNL     1       7.871  30.684  59.894  1.00  0.00    -0.325 N 
HETATM    2  C   UNL     1       8.727  30.962  58.845  1.00  0.00     0.228 C 
HETATM    3  O   UNL     1       9.431  31.961  58.733  1.00  0.00    -0.273 OA
HETATM    4  H   UNL     1       7.740  29.685  60.071  1.00  0.00     0.169 HD
ENDROOT
BRANCH   2   5
HETATM    5  C   UNL     1       8.716  29.905  57.758  1.00  0.00     0.165 C 
BRANCH   5   6
HETATM    6  C   UNL     1       7.333  29.440  57.339  1.00  0.00     0.074 A 
HETATM    7  N   UNL     1       6.496  30.381  57.008  1.00  0.00    -0.175 NA
HETATM    8  N   UNL     1       5.254  30.033  56.588  1.00  0.00    -0.243 N 
HETATM    9  C   UNL     1       4.787  28.753  56.422  1.00  0.00     0.272 A 
HETATM   10  H   UNL     1       4.622  30.789  56.341  1.00  0.00     0.192 HD
HETATM   11  O   UNL     1       3.661  28.517  56.000  1.00  0.00    -0.266 OA
HETATM   12  C   UNL     1       5.719  27.673  56.786  1.00  0.00     0.046 A 
HETATM   13  C   UNL     1       6.988  27.994  57.271  1.00  0.00     0.006 A 
HETATM   14  C   UNL     1       5.316  26.338  56.649  1.00  0.00     0.018 A 
HETATM   15  C   UNL     1       7.852  26.958  57.644  1.00  0.00     0.014 A 
HETATM   16  C   UNL     1       7.451  25.623  57.507  1.00  0.00     0.001 A 
HETATM   17  C   UNL     1       6.188  25.313  57.007  1.00  0.00     0.001 A 
ENDBRANCH   5   6
ENDBRANCH   2   5
BRANCH   1  18
HETATM   18  C   UNL     1       7.604  31.524  61.006  1.00  0.00     0.062 A 
HETATM   19  C   UNL     1       8.367  31.317  62.175  1.00  0.00     0.061 A 
HETATM   20  C   UNL     1       8.178  32.100  63.316  1.00  0.00     0.033 A 
HETATM   21 CL   UNL     1       9.607  30.105  62.236  1.00  0.00    -0.082 Cl
HETATM   22  C   UNL     1       7.198  33.092  63.330  1.00  0.00    -0.060 A 
HETATM   23  C   UNL     1       7.012  33.967  64.534  1.00  0.00     0.048 C 
HETATM   24  C   UNL     1       6.418  33.284  62.184  1.00  0.00     0.016 A 
HETATM   25  C   UNL     1       6.581  32.489  61.029  1.00  0.00    -0.033 A 
HETATM   26  C   UNL     1       5.595  32.704  59.913  1.00  0.00     0.050 C 
ENDBRANCH   1  18
TORSDOF 3
ENDMDL
MODEL 4
REMARK VINA RESULT:      -9.2      1.533      2.338
REMARK  3 active torsions:
REMARK  status: ('A' for Active; 'I' for Inactive)
REMARK    1  A    between atoms: C_6  and  N_7 
REMARK       I    between atoms: N_7  and  C_8 
REMARK    2  A    between atoms: C_8  and  C_9 
REMARK    3  A    between atoms: C_9  and  C_10 
ROOT
HETATM    1  N   UNL     1       7.546  26.146  54.524  1.00  0.00    -0.325 N 
HETATM    2  C   UNL     1       6.367  26.860  54.619  1.00  0.00     0.228 C 
HETATM    3  O   UNL     1       5.233  26.389  54.596  1.00  0.00    -0.273 OA
HETATM    4  H   UNL     1       8.335  26.580  55.009  1.00  0.00     0.169 HD
ENDROOT
BRANCH   2   5
HETATM    5  C   UNL     1       6.572  28.359  54.728  1.00  0.00     0.165 C 
BRANCH   5   6
HETATM    6  C   UNL     1       7.007  28.842  56.100  1.00  0.00     0.074 A 
HETATM    7  N   UNL     1       7.943  28.142  56.675  1.00  0.00    -0.175 NA
HETATM    8  N   UNL     1       8.404  28.540  57.887  1.00  0.00    -0.243 N 
HETATM    9  C   UNL     1       8.013  29.664  58.570  1.00  0.00     0.272 A 
HETATM   10  H   UNL     1       9.130  27.971  58.313  1.00  0.00     0.192 HD
HETATM   11  O   UNL     1       8.506  29.979  59.647  1.00  0.00    -0.266 OA
HETATM   12  C   UNL     1       6.960  30.472  57.936  1.00  0.00     0.046 A 
HETATM   13  C   UNL     1       6.425  30.066  56.712  1.00  0.00     0.006 A 
HETATM   14  C   UNL     1       6.503  31.634  58.572  1.00  0.00     0.018 A 
HETATM   15  C   UNL     1       5.401  30.827  56.135  1.00  0.00     0.014 A 
HETATM   16  C   UNL     1       4.944  31.989  56.770  1.00  0.00     0.001 A 
HETATM   17  C   UNL     1       5.497  32.394  57.983  1.00  0.00     0.001 A 
ENDBRANCH   5   6
ENDBRANCH   2   5
BRANCH   1  18
HETATM   18  C   UNL     1       7.667  24.747  54.326  1.00  0.00     0.062 A 
HETATM   19  C   UNL     1       7.864  23.943  55.469  1.00  0.00     0.061 A 
HETATM   20  C   UNL     1       7.988  22.555  55.371  1.00  0.00     0.033 A 
HETATM   21 CL   UNL     1       7.921  24.638  57.057  1.00  0.00    -0.082 Cl
HETATM   22  C   UNL     1       7.949  21.935  54.122  1.00  0.00    -0.060 A 
HETATM   23  C   UNL     1       8.040  20.443  54.005  1.00  0.00     0.048 C 
HETATM   24  C   UNL     1       7.782  22.728  52.981  1.00  0.00     0.016 A 
HETATM   25  C   UNL     1       7.676  24.135  53.059  1.00  0.00    -0.033 A 
HETATM   26  C   UNL     1       7.633  24.885  51.756  1.00  0.00     0.050 C 
ENDBRANCH   1  18
TORSDOF 3
ENDMDL
MODEL 5
REMARK VINA RESULT:      -9.1      4.525      7.387
REMARK  3 active torsions:
REMARK  status: ('A' for Active; 'I' for Inactive)
REMARK    1  A    between atoms: C_6  and  N_7 
REMARK       I    between atoms: N_7  and  C_8 
REMARK    2  A    between atoms: C_8  and  C_9 
REMARK    3  A    between atoms: C_9  and  C_10 
ROOT
HETATM    1  N   UNL     1       4.374  26.522  51.118  1.00  0.00    -0.325 N 
HETATM    2  C   UNL     1       5.411  25.729  51.570  1.00  0.00     0.228 C 
HETATM    3  O   UNL     1       6.571  25.760  51.169  1.00  0.00    -0.273 OA
HETATM    4  H   UNL     1       3.654  26.708  51.822  1.00  0.00     0.169 HD
ENDROOT
BRANCH   2   5
HETATM    5  C   UNL     1       4.994  24.733  52.635  1.00  0.00     0.165 C 
BRANCH   5   6
HETATM    6  C   UNL     1       5.845  24.755  53.892  1.00  0.00     0.074 A 
HETATM    7  N   UNL     1       5.479  25.606  54.807  1.00  0.00    -0.175 NA
HETATM    8  N   UNL     1       6.174  25.652  55.971  1.00  0.00    -0.243 N 
HETATM    9  C   UNL     1       7.223  24.838  56.318  1.00  0.00     0.272 A 
HETATM   10  H   UNL     1       5.869  26.330  56.664  1.00  0.00     0.192 HD
HETATM   11  O   UNL     1       7.778  24.914  57.408  1.00  0.00    -0.266 OA
HETATM   12  C   UNL     1       7.650  23.865  55.299  1.00  0.00     0.046 A 
HETATM   13  C   UNL     1       6.991  23.824  54.069  1.00  0.00     0.006 A 
HETATM   14  C   UNL     1       8.717  23.000  55.575  1.00  0.00     0.018 A 
HETATM   15  C   UNL     1       7.428  22.916  53.097  1.00  0.00     0.014 A 
HETATM   16  C   UNL     1       8.494  22.050  53.372  1.00  0.00     0.001 A 
HETATM   17  C   UNL     1       9.134  22.088  54.609  1.00  0.00     0.001 A 
ENDBRANCH   5   6
ENDBRANCH   2   5
BRANCH   1  18
HETATM   18  C   UNL     1       4.440  27.477  50.072  1.00  0.00     0.062 A 
HETATM   19  C   UNL     1       4.040  27.061  48.784  1.00  0.00     0.061 A 
HETATM   20  C   UNL     1       4.067  27.935  47.694  1.00  0.00     0.033 A 
HETATM   21 CL   UNL     1       3.456  25.453  48.501  1.00  0.00    -0.082 Cl
HETATM   22  C   UNL     1       4.524  29.243  47.857  1.00  0.00    -0.060 A 
HETATM   23  C   UNL     1       4.520  30.203  46.706  1.00  0.00     0.048 C 
HETATM   24  C   UNL     1       4.950  29.655  49.125  1.00  0.00     0.016 A 
HETATM   25  C   UNL     1       4.950  28.779  50.233  1.00  0.00    -0.033 A 
HETATM   26  C   UNL     1       5.553  29.300  51.509  1.00  0.00     0.050 C 
ENDBRANCH   1  18
TORSDOF 3
ENDMDL
MODEL 6
REMARK VINA RESULT:      -9.0      3.849      7.538
REMARK  3 active torsions:
REMARK  status: ('A' for Active; 'I' for Inactive)
REMARK    1  A    between atoms: C_6  and  N_7 
REMARK       I    between atoms: N_7  and  C_8 
REMARK    2  A    between atoms: C_8  and  C_9 
REMARK    3  A    between atoms: C_9  and  C_10 
ROOT
HETATM    1  N   UNL     1       5.142  26.531  54.199  1.00  0.00    -0.325 N 
HETATM    2  C   UNL     1       6.438  26.253  53.806  1.00  0.00     0.228 C 
HETATM    3  O   UNL     1       7.354  27.064  53.712  1.00  0.00    -0.273 OA
HETATM    4  H   UNL     1       4.671  25.749  54.661  1.00  0.00     0.169 HD
ENDROOT
BRANCH   2   5
HETATM    5  C   UNL     1       6.663  24.797  53.444  1.00  0.00     0.165 C 
BRANCH   5   6
HETATM    6  C   UNL     1       7.217  23.942  54.570  1.00  0.00     0.074 A 
HETATM    7  N   UNL     1       7.159  24.467  55.760  1.00  0.00    -0.175 NA
HETATM    8  N   UNL     1       7.604  23.742  56.816  1.00  0.00    -0.243 N 
HETATM    9  C   UNL     1       8.076  22.454  56.770  1.00  0.00     0.272 A 
HETATM   10  H   UNL     1       7.550  24.180  57.731  1.00  0.00     0.192 HD
HETATM   11  O   UNL     1       8.425  21.849  57.776  1.00  0.00    -0.266 OA
HETATM   12  C   UNL     1       8.146  21.840  55.434  1.00  0.00     0.046 A 
HETATM   13  C   UNL     1       7.745  22.575  54.317  1.00  0.00     0.006 A 
HETATM   14  C   UNL     1       8.621  20.528  55.302  1.00  0.00     0.018 A 
HETATM   15  C   UNL     1       7.847  21.989  53.050  1.00  0.00     0.014 A 
HETATM   16  C   UNL     1       8.321  20.678  52.916  1.00  0.00     0.001 A 
HETATM   17  C   UNL     1       8.703  19.947  54.039  1.00  0.00     0.001 A 
ENDBRANCH   5   6
ENDBRANCH   2   5
BRANCH   1  18
HETATM   18  C   UNL     1       4.616  27.810  54.512  1.00  0.00     0.062 A 
HETATM   19  C   UNL     1       4.143  28.598  53.442  1.00  0.00     0.061 A 
HETATM   20  C   UNL     1       3.601  29.868  53.656  1.00  0.00     0.033 A 
HETATM   21 CL   UNL     1       4.174  28.010  51.810  1.00  0.00    -0.082 Cl
HETATM   22  C   UNL     1       3.547  30.398  54.945  1.00  0.00    -0.060 A 
HETATM   23  C   UNL     1       2.932  31.742  55.194  1.00  0.00     0.048 C 
HETATM   24  C   UNL     1       4.040  29.634  56.009  1.00  0.00     0.016 A 
HETATM   25  C   UNL     1       4.609  28.357  55.809  1.00  0.00    -0.033 A 
HETATM   26  C   UNL     1       5.222  27.692  57.011  1.00  0.00     0.050 C 
ENDBRANCH   1  18
TORSDOF 3
ENDMDL
MODEL 7
REMARK VINA RESULT:      -8.7      4.298      8.931
REMARK  3 active torsions:
REMARK  status: ('A' for Active; 'I' for Inactive)
REMARK    1  A    between atoms: C_6  and  N_7 
REMARK       I    between atoms: N_7  and  C_8 
REMARK    2  A    between atoms: C_8  and  C_9 
REMARK    3  A    between atoms: C_9  and  C_10 
ROOT
HETATM    1  N   UNL     1       6.270  31.602  60.892  1.00  0.00    -0.325 N 
HETATM    2  C   UNL     1       5.828  32.271  59.766  1.00  0.00     0.228 C 
HETATM    3  O   UNL     1       5.596  33.474  59.685  1.00  0.00    -0.273 OA
HETATM    4  H   UNL     1       6.836  30.774  60.689  1.00  0.00     0.169 HD
ENDROOT
BRANCH   2   5
HETATM    5  C   UNL     1       5.602  31.364  58.572  1.00  0.00     0.165 C 
BRANCH   5   6
HETATM    6  C   UNL     1       6.839  30.628  58.090  1.00  0.00     0.074 A 
HETATM    7  N   UNL     1       7.968  31.258  58.246  1.00  0.00    -0.175 NA
HETATM    8  N   UNL     1       9.117  30.642  57.871  1.00  0.00    -0.243 N 
HETATM    9  C   UNL     1       9.224  29.367  57.376  1.00  0.00     0.272 A 
HETATM   10  H   UNL     1       9.981  31.161  58.000  1.00  0.00     0.192 HD
HETATM   11  O   UNL     1      10.306  28.864  57.094  1.00  0.00    -0.266 OA
HETATM   12  C   UNL     1       7.961  28.635  57.196  1.00  0.00     0.046 A 
HETATM   13  C   UNL     1       6.754  29.256  57.523  1.00  0.00     0.006 A 
HETATM   14  C   UNL     1       7.985  27.328  56.691  1.00  0.00     0.018 A 
HETATM   15  C   UNL     1       5.557  28.560  57.317  1.00  0.00     0.014 A 
HETATM   16  C   UNL     1       5.581  27.253  56.813  1.00  0.00     0.001 A 
HETATM   17  C   UNL     1       6.791  26.637  56.505  1.00  0.00     0.001 A 
ENDBRANCH   5   6
ENDBRANCH   2   5
BRANCH   1  18
HETATM   18  C   UNL     1       6.485  32.168  62.175  1.00  0.00     0.062 A 
HETATM   19  C   UNL     1       5.347  32.569  62.907  1.00  0.00     0.061 A 
HETATM   20  C   UNL     1       5.461  33.130  64.182  1.00  0.00     0.033 A 
HETATM   21 CL   UNL     1       3.747  32.347  62.275  1.00  0.00    -0.082 Cl
HETATM   22  C   UNL     1       6.720  33.333  64.746  1.00  0.00    -0.060 A 
HETATM   23  C   UNL     1       6.856  33.897  66.129  1.00  0.00     0.048 C 
HETATM   24  C   UNL     1       7.855  32.964  64.014  1.00  0.00     0.016 A 
HETATM   25  C   UNL     1       7.759  32.415  62.717  1.00  0.00    -0.033 A 
HETATM   26  C   UNL     1       9.051  32.182  61.982  1.00  0.00     0.050 C 
ENDBRANCH   1  18
TORSDOF 3
ENDMDL
MODEL 8
REMARK VINA RESULT:      -8.7      4.267      7.083
REMARK  3 active torsions:
REMARK  status: ('A' for Active; 'I' for Inactive)
REMARK    1  A    between atoms: C_6  and  N_7 
REMARK       I    between atoms: N_7  and  C_8 
REMARK    2  A    between atoms: C_8  and  C_9 
REMARK    3  A    between atoms: C_9  and  C_10 
ROOT
HETATM    1  N   UNL     1       5.942  26.685  51.019  1.00  0.00    -0.325 N 
HETATM    2  C   UNL     1       5.971  25.480  51.694  1.00  0.00     0.228 C 
HETATM    3  O   UNL     1       4.994  24.852  52.091  1.00  0.00    -0.273 OA
HETATM    4  H   UNL     1       6.732  26.823  50.382  1.00  0.00     0.169 HD
ENDROOT
BRANCH   2   5
HETATM    5  C   UNL     1       7.372  24.967  51.961  1.00  0.00     0.165 C 
BRANCH   5   6
HETATM    6  C   UNL     1       7.495  24.059  53.172  1.00  0.00     0.074 A 
HETATM    7  N   UNL     1       7.597  22.786  52.916  1.00  0.00    -0.175 NA
HETATM    8  N   UNL     1       7.747  21.921  53.950  1.00  0.00    -0.243 N 
HETATM    9  C   UNL     1       7.857  22.260  55.276  1.00  0.00     0.272 A 
HETATM   10  H   UNL     1       7.819  20.934  53.719  1.00  0.00     0.192 HD
HETATM   11  O   UNL     1       8.030  21.422  56.153  1.00  0.00    -0.266 OA
HETATM   12  C   UNL     1       7.749  23.694  55.587  1.00  0.00     0.046 A 
HETATM   13  C   UNL     1       7.543  24.609  54.553  1.00  0.00     0.006 A 
HETATM   14  C   UNL     1       7.847  24.121  56.918  1.00  0.00     0.018 A 
HETATM   15  C   UNL     1       7.411  25.967  54.867  1.00  0.00     0.014 A 
HETATM   16  C   UNL     1       7.509  26.395  56.197  1.00  0.00     0.001 A 
HETATM   17  C   UNL     1       7.731  25.475  57.220  1.00  0.00     0.001 A 
ENDBRANCH   5   6
ENDBRANCH   2   5
BRANCH   1  18
HETATM   18  C   UNL     1       4.788  27.447  50.707  1.00  0.00     0.062 A 
HETATM   19  C   UNL     1       4.248  28.257  51.728  1.00  0.00     0.061 A 
HETATM   20  C   UNL     1       3.116  29.047  51.510  1.00  0.00     0.033 A 
HETATM   21 CL   UNL     1       4.990  28.344  53.293  1.00  0.00    -0.082 Cl
HETATM   22  C   UNL     1       2.473  29.022  50.272  1.00  0.00    -0.060 A 
HETATM   23  C   UNL     1       1.282  29.894  50.011  1.00  0.00     0.048 C 
HETATM   24  C   UNL     1       2.986  28.199  49.263  1.00  0.00     0.016 A 
HETATM   25  C   UNL     1       4.117  27.379  49.472  1.00  0.00    -0.033 A 
HETATM   26  C   UNL     1       4.491  26.443  48.355  1.00  0.00     0.050 C 
ENDBRANCH   1  18
TORSDOF 3
ENDMDL
MODEL 9
REMARK VINA RESULT:      -8.6      4.978      8.027
REMARK  3 active torsions:
REMARK  status: ('A' for Active; 'I' for Inactive)
REMARK    1  A    between atoms: C_6  and  N_7 
REMARK       I    between atoms: N_7  and  C_8 
REMARK    2  A    between atoms: C_8  and  C_9 
REMARK    3  A    between atoms: C_9  and  C_10 
ROOT
HETATM    1  N   UNL     1       6.117  31.496  59.468  1.00  0.00    -0.325 N 
HETATM    2  C   UNL     1       5.360  32.580  59.064  1.00  0.00     0.228 C 
HETATM    3  O   UNL     1       5.602  33.314  58.111  1.00  0.00    -0.273 OA
HETATM    4  H   UNL     1       5.576  30.759  59.928  1.00  0.00     0.169 HD
ENDROOT
BRANCH   2   5
HETATM    5  C   UNL     1       4.154  32.841  59.946  1.00  0.00     0.165 C 
BRANCH   5   6
HETATM    6  C   UNL     1       4.474  33.025  61.419  1.00  0.00     0.074 A 
HETATM    7  N   UNL     1       4.477  31.939  62.137  1.00  0.00    -0.175 NA
HETATM    8  N   UNL     1       4.791  32.027  63.454  1.00  0.00    -0.243 N 
HETATM    9  C   UNL     1       5.167  33.167  64.119  1.00  0.00     0.272 A 
HETATM   10  H   UNL     1       4.780  31.163  63.989  1.00  0.00     0.192 HD
HETATM   11  O   UNL     1       5.474  33.160  65.306  1.00  0.00    -0.266 OA
HETATM   12  C   UNL     1       5.175  34.406  63.326  1.00  0.00     0.046 A 
HETATM   13  C   UNL     1       4.808  34.362  61.979  1.00  0.00     0.006 A 
HETATM   14  C   UNL     1       5.543  35.614  63.933  1.00  0.00     0.018 A 
HETATM   15  C   UNL     1       4.789  35.553  61.244  1.00  0.00     0.014 A 
HETATM   16  C   UNL     1       5.158  36.761  61.850  1.00  0.00     0.001 A 
HETATM   17  C   UNL     1       5.538  36.791  63.190  1.00  0.00     0.001 A 
ENDBRANCH   5   6
ENDBRANCH   2   5
BRANCH   1  18
HETATM   18  C   UNL     1       7.340  31.065  58.895  1.00  0.00     0.062 A 
HETATM   19  C   UNL     1       7.278  30.040  57.928  1.00  0.00     0.061 A 
HETATM   20  C   UNL     1       8.432  29.556  57.304  1.00  0.00     0.033 A 
HETATM   21 CL   UNL     1       5.761  29.358  57.435  1.00  0.00    -0.082 Cl
HETATM   22  C   UNL     1       9.682  30.063  57.655  1.00  0.00    -0.060 A 
HETATM   23  C   UNL     1      10.924  29.582  56.966  1.00  0.00     0.048 C 
HETATM   24  C   UNL     1       9.754  31.061  58.635  1.00  0.00     0.016 A 
HETATM   25  C   UNL     1       8.601  31.547  59.290  1.00  0.00    -0.033 A 
HETATM   26  C   UNL     1       8.821  32.522  60.414  1.00  0.00     0.050 C 
ENDBRANCH   1  18
TORSDOF 3
ENDMDL
MODEL 10
REMARK VINA RESULT:      -8.5      4.967      7.450
REMARK  3 active torsions:
REMARK  status: ('A' for Active; 'I' for Inactive)
REMARK    1  A    between atoms: C_6  and  N_7 
REMARK       I    between atoms: N_7  and  C_8 
REMARK    2  A    between atoms: C_8  and  C_9 
REMARK    3  A    between atoms: C_9  and  C_10 
ROOT
HETATM    1  N   UNL     1       4.827  27.791  50.231  1.00  0.00    -0.325 N 
HETATM    2  C   UNL     1       5.234  26.708  50.987  1.00  0.00     0.228 C 
HETATM    3  O   UNL     1       4.764  25.575  50.936  1.00  0.00    -0.273 OA
HETATM    4  H   UNL     1       5.568  28.472  50.048  1.00  0.00     0.169 HD
ENDROOT
BRANCH   2   5
HETATM    5  C   UNL     1       6.343  27.035  51.968  1.00  0.00     0.165 C 
BRANCH   5   6
HETATM    6  C   UNL     1       6.178  26.411  53.342  1.00  0.00     0.074 A 
HETATM    7  N   UNL     1       5.403  27.056  54.167  1.00  0.00    -0.175 NA
HETATM    8  N   UNL     1       5.183  26.535  55.399  1.00  0.00    -0.243 N 
HETATM    9  C   UNL     1       5.664  25.338  55.867  1.00  0.00     0.272 A 
HETATM   10  H   UNL     1       4.579  27.064  56.022  1.00  0.00     0.192 HD
HETATM   11  O   UNL     1       5.389  24.914  56.984  1.00  0.00    -0.266 OA
HETATM   12  C   UNL     1       6.538  24.589  54.950  1.00  0.00     0.046 A 
HETATM   13  C   UNL     1       6.828  25.120  53.691  1.00  0.00     0.006 A 
HETATM   14  C   UNL     1       7.072  23.359  55.354  1.00  0.00     0.018 A 
HETATM   15  C   UNL     1       7.686  24.413  52.840  1.00  0.00     0.014 A 
HETATM   16  C   UNL     1       8.221  23.182  53.244  1.00  0.00     0.001 A 
HETATM   17  C   UNL     1       7.911  22.654  54.495  1.00  0.00     0.001 A 
ENDBRANCH   5   6
ENDBRANCH   2   5
BRANCH   1  18
HETATM   18  C   UNL     1       3.759  27.811  49.298  1.00  0.00     0.062 A 
HETATM   19  C   UNL     1       2.526  28.343  49.733  1.00  0.00     0.061 A 
HETATM   20  C   UNL     1       1.420  28.410  48.881  1.00  0.00     0.033 A 
HETATM   21 CL   UNL     1       2.337  28.980  51.335  1.00  0.00    -0.082 Cl
HETATM   22  C   UNL     1       1.508  27.916  47.580  1.00  0.00    -0.060 A 
HETATM   23  C   UNL     1       0.342  28.017  46.643  1.00  0.00     0.048 C 
HETATM   24  C   UNL     1       2.719  27.359  47.151  1.00  0.00     0.016 A 
HETATM   25  C   UNL     1       3.841  27.266  48.004  1.00  0.00    -0.033 A 
HETATM   26  C   UNL     1       5.039  26.530  47.470  1.00  0.00     0.050 C 
ENDBRANCH   1  18
TORSDOF 3
ENDMDL
