MODEL 1
REMARK VINA RESULT:      -9.8      0.000      0.000
REMARK  6 active torsions:
REMARK  status: ('A' for Active; 'I' for Inactive)
REMARK    1  A    between atoms: C_7  and  S_8 
REMARK    2  A    between atoms: S_8  and  C_9 
REMARK    3  A    between atoms: C_9  and  C_10 
REMARK    4  A    between atoms: C_18  and  C_19 
REMARK    5  A    between atoms: C_29  and  C_30 
REMARK    6  A    between atoms: C_30  and  O_31 
ROOT
HETATM    1  C   UNL     1       6.664  30.685  58.057  1.00  0.00     0.070 C 
HETATM    2  C   UNL     1       6.397  29.905  56.795  1.00  0.00     0.037 C 
HETATM    3  N   UNL     1       5.134  30.082  56.235  1.00  0.00    -0.192 N 
HETATM    4  C   UNL     1       4.815  29.619  55.010  1.00  0.00     0.726 A 
HETATM    5  N   UNL     1       5.655  28.740  54.384  1.00  0.00    -0.082 N 
HETATM    6  N   UNL     1       5.257  28.498  53.118  1.00  0.00    -0.128 NA
HETATM    7  C   UNL     1       4.122  29.209  53.074  1.00  0.00     0.226 A 
HETATM    8  N   UNL     1       3.819  29.907  54.217  1.00  0.00    -0.035 NA
HETATM    9  C   UNL     1       6.892  28.223  54.985  1.00  0.00     0.204 C 
HETATM   10  C   UNL     1       7.281  29.059  56.205  1.00  0.00     0.070 C 
HETATM   11  H   UNL     1       4.548  30.810  56.634  1.00  0.00     0.184 HD
ENDROOT
BRANCH   9  12
HETATM   12  C   UNL     1       6.714  26.725  55.275  1.00  0.00    -0.017 A 
HETATM   13  C   UNL     1       7.131  25.714  54.352  1.00  0.00    -0.017 A 
HETATM   14  C   UNL     1       6.950  24.351  54.708  1.00  0.00    -0.025 A 
HETATM   15  C   UNL     1       7.712  25.969  53.083  1.00  0.00     0.013 A 
HETATM   16  C   UNL     1       7.360  23.325  53.840  1.00  0.00     0.012 A 
HETATM   17  C   UNL     1       6.352  24.012  55.928  1.00  0.00     0.012 A 
HETATM   18  C   UNL     1       7.940  23.616  52.607  1.00  0.00     0.001 A 
HETATM   19  C   UNL     1       8.112  24.937  52.227  1.00  0.00     0.001 A 
HETATM   20  C   UNL     1       5.913  24.995  56.805  1.00  0.00     0.002 A 
HETATM   21  C   UNL     1       6.087  26.335  56.481  1.00  0.00     0.010 A 
ENDBRANCH   9  12
BRANCH  10  22
HETATM   22  C   UNL     1       8.693  28.918  56.616  1.00  0.00     0.293 C 
HETATM   23  O   UNL     1       9.097  28.056  57.378  1.00  0.00    -0.259 OA
BRANCH  22  24
HETATM   24  O   UNL     1       9.466  29.802  55.937  1.00  0.00    -0.323 OA
HETATM   25  C   UNL     1      10.590  30.295  56.669  1.00  0.00     0.213 C 
ENDBRANCH  22  24
ENDBRANCH  10  22
BRANCH   7  26
HETATM   26  S   UNL     1       3.116  29.318  51.658  1.00  0.00    -0.083 SA
BRANCH  26  27
HETATM   27  C   UNL     1       4.335  29.095  50.335  1.00  0.00     0.123 C 
BRANCH  27  28
HETATM   28  C   UNL     1       3.830  28.120  49.295  1.00  0.00    -0.027 A 
HETATM   29  C   UNL     1       4.135  26.749  49.323  1.00  0.00     0.041 A 
HETATM   30 CL   UNL     1       5.086  26.045  50.583  1.00  0.00    -0.084 Cl
HETATM   31  C   UNL     1       3.674  25.897  48.313  1.00  0.00     0.024 A 
HETATM   32  C   UNL     1       2.912  26.402  47.260  1.00  0.00     0.002 A 
HETATM   33  C   UNL     1       2.608  27.758  47.214  1.00  0.00     0.001 A 
HETATM   34  C   UNL     1       3.063  28.610  48.221  1.00  0.00     0.009 A 
ENDBRANCH  27  28
ENDBRANCH  26  27
ENDBRANCH   7  26
TORSDOF 6
ENDMDL
MODEL 2
REMARK VINA RESULT:      -9.4      4.392      7.337
REMARK  6 active torsions:
REMARK  status: ('A' for Active; 'I' for Inactive)
REMARK    1  A    between atoms: C_7  and  S_8 
REMARK    2  A    between atoms: S_8  and  C_9 
REMARK    3  A    between atoms: C_9  and  C_10 
REMARK    4  A    between atoms: C_18  and  C_19 
REMARK    5  A    between atoms: C_29  and  C_30 
REMARK    6  A    between atoms: C_30  and  O_31 
ROOT
HETATM    1  C   UNL     1      11.175  30.428  57.392  1.00  0.00     0.070 C 
HETATM    2  C   UNL     1       9.762  29.913  57.507  1.00  0.00     0.037 C 
HETATM    3  N   UNL     1       9.427  28.880  56.635  1.00  0.00    -0.192 N 
HETATM    4  C   UNL     1       8.281  28.180  56.750  1.00  0.00     0.726 A 
HETATM    5  N   UNL     1       7.296  28.636  57.582  1.00  0.00    -0.082 N 
HETATM    6  N   UNL     1       6.289  27.744  57.685  1.00  0.00    -0.128 NA
HETATM    7  C   UNL     1       6.702  26.803  56.825  1.00  0.00     0.226 A 
HETATM    8  N   UNL     1       7.917  27.039  56.232  1.00  0.00    -0.035 NA
HETATM    9  C   UNL     1       7.388  29.886  58.348  1.00  0.00     0.204 C 
HETATM   10  C   UNL     1       8.830  30.392  58.370  1.00  0.00     0.070 C 
HETATM   11  H   UNL     1      10.181  28.468  56.092  1.00  0.00     0.184 HD
ENDROOT
BRANCH   9  12
HETATM   12  C   UNL     1       6.373  30.891  57.781  1.00  0.00    -0.017 A 
HETATM   13  C   UNL     1       5.729  31.870  58.602  1.00  0.00    -0.017 A 
HETATM   14  C   UNL     1       4.819  32.776  57.993  1.00  0.00    -0.025 A 
HETATM   15  C   UNL     1       5.921  32.005  60.000  1.00  0.00     0.013 A 
HETATM   16  C   UNL     1       4.177  33.765  58.758  1.00  0.00     0.012 A 
HETATM   17  C   UNL     1       4.545  32.690  56.623  1.00  0.00     0.012 A 
HETATM   18  C   UNL     1       4.403  33.875  60.127  1.00  0.00     0.001 A 
HETATM   19  C   UNL     1       5.271  32.992  60.749  1.00  0.00     0.001 A 
HETATM   20  C   UNL     1       5.143  31.714  55.836  1.00  0.00     0.002 A 
HETATM   21  C   UNL     1       6.041  30.822  56.408  1.00  0.00     0.010 A 
ENDBRANCH   9  12
BRANCH  10  22
HETATM   22  C   UNL     1       9.118  31.367  59.443  1.00  0.00     0.293 C 
HETATM   23  O   UNL     1       9.201  32.571  59.264  1.00  0.00    -0.259 OA
BRANCH  22  24
HETATM   24  O   UNL     1       9.157  30.739  60.645  1.00  0.00    -0.323 OA
HETATM   25  C   UNL     1       9.184  31.616  61.773  1.00  0.00     0.213 C 
ENDBRANCH  22  24
ENDBRANCH  10  22
BRANCH   7  26
HETATM   26  S   UNL     1       5.816  25.338  56.513  1.00  0.00    -0.083 SA
BRANCH  26  27
HETATM   27  C   UNL     1       7.110  24.086  56.720  1.00  0.00     0.123 C 
BRANCH  27  28
HETATM   28  C   UNL     1       7.355  23.343  55.426  1.00  0.00    -0.027 A 
HETATM   29  C   UNL     1       7.869  22.036  55.382  1.00  0.00     0.041 A 
HETATM   30 CL   UNL     1       8.231  21.141  56.815  1.00  0.00    -0.084 Cl
HETATM   31  C   UNL     1       8.114  21.409  54.154  1.00  0.00     0.024 A 
HETATM   32  C   UNL     1       7.857  22.079  52.958  1.00  0.00     0.002 A 
HETATM   33  C   UNL     1       7.354  23.375  52.985  1.00  0.00     0.001 A 
HETATM   34  C   UNL     1       7.106  24.003  54.207  1.00  0.00     0.009 A 
ENDBRANCH  27  28
ENDBRANCH  26  27
ENDBRANCH   7  26
TORSDOF 6
ENDMDL
MODEL 3
REMARK VINA RESULT:      -8.9      4.453      8.491
REMARK  6 active torsions:
REMARK  status: ('A' for Active; 'I' for Inactive)
REMARK    1  A    between atoms: C_7  and  S_8 
REMARK    2  A    between atoms: S_8  and  C_9 
REMARK    3  A    between atoms: C_9  and  C_10 
REMARK    4  A    between atoms: C_18  and  C_19 
REMARK    5  A    between atoms: C_29  and  C_30 
REMARK    6  A    between atoms: C_30  and  O_31 
ROOT
HETATM    1  C   UNL     1       3.085  25.436  47.886  1.00  0.00     0.070 C 
HETATM    2  C   UNL     1       3.958  26.041  48.957  1.00  0.00     0.037 C 
HETATM    3  N   UNL     1       4.107  25.279  50.113  1.00  0.00    -0.192 N 
HETATM    4  C   UNL     1       5.007  25.583  51.068  1.00  0.00     0.726 A 
HETATM    5  N   UNL     1       5.631  26.800  51.040  1.00  0.00    -0.082 N 
HETATM    6  N   UNL     1       6.599  26.876  51.977  1.00  0.00    -0.128 NA
HETATM    7  C   UNL     1       6.451  25.692  52.585  1.00  0.00     0.226 A 
HETATM    8  N   UNL     1       5.483  24.874  52.055  1.00  0.00    -0.035 NA
HETATM    9  C   UNL     1       5.352  27.838  50.040  1.00  0.00     0.204 C 
HETATM   10  C   UNL     1       4.571  27.249  48.865  1.00  0.00     0.070 C 
HETATM   11  H   UNL     1       3.734  24.333  50.096  1.00  0.00     0.184 HD
ENDROOT
BRANCH   9  12
HETATM   12  C   UNL     1       4.657  29.020  50.733  1.00  0.00    -0.017 A 
HETATM   13  C   UNL     1       5.021  30.380  50.470  1.00  0.00    -0.017 A 
HETATM   14  C   UNL     1       4.312  31.415  51.138  1.00  0.00    -0.025 A 
HETATM   15  C   UNL     1       6.056  30.784  49.590  1.00  0.00     0.013 A 
HETATM   16  C   UNL     1       4.624  32.763  50.898  1.00  0.00     0.012 A 
HETATM   17  C   UNL     1       3.297  31.102  52.051  1.00  0.00     0.012 A 
HETATM   18  C   UNL     1       5.639  33.120  50.014  1.00  0.00     0.001 A 
HETATM   19  C   UNL     1       6.358  32.131  49.364  1.00  0.00     0.001 A 
HETATM   20  C   UNL     1       2.972  29.781  52.332  1.00  0.00     0.002 A 
HETATM   21  C   UNL     1       3.647  28.752  51.685  1.00  0.00     0.010 A 
ENDBRANCH   9  12
BRANCH  10  22
HETATM   22  C   UNL     1       4.615  28.064  47.633  1.00  0.00     0.293 C 
HETATM   23  O   UNL     1       5.606  28.184  46.931  1.00  0.00    -0.259 OA
BRANCH  22  24
HETATM   24  O   UNL     1       3.380  28.549  47.351  1.00  0.00    -0.323 OA
HETATM   25  C   UNL     1       3.320  29.968  47.194  1.00  0.00     0.213 C 
ENDBRANCH  22  24
ENDBRANCH  10  22
BRANCH   7  26
HETATM   26  S   UNL     1       7.447  25.165  53.911  1.00  0.00    -0.083 SA
BRANCH  26  27
HETATM   27  C   UNL     1       8.018  23.552  53.312  1.00  0.00     0.123 C 
BRANCH  27  28
HETATM   28  C   UNL     1       8.184  22.579  54.457  1.00  0.00    -0.027 A 
HETATM   29  C   UNL     1       8.271  21.189  54.270  1.00  0.00     0.041 A 
HETATM   30 CL   UNL     1       8.240  20.469  52.700  1.00  0.00    -0.084 Cl
HETATM   31  C   UNL     1       8.383  20.329  55.369  1.00  0.00     0.024 A 
HETATM   32  C   UNL     1       8.401  20.843  56.666  1.00  0.00     0.002 A 
HETATM   33  C   UNL     1       8.308  22.216  56.867  1.00  0.00     0.001 A 
HETATM   34  C   UNL     1       8.199  23.077  55.774  1.00  0.00     0.009 A 
ENDBRANCH  27  28
ENDBRANCH  26  27
ENDBRANCH   7  26
TORSDOF 6
ENDMDL
MODEL 4
REMARK VINA RESULT:      -8.7      4.232      7.341
REMARK  6 active torsions:
REMARK  status: ('A' for Active; 'I' for Inactive)
REMARK    1  A    between atoms: C_7  and  S_8 
REMARK    2  A    between atoms: S_8  and  C_9 
REMARK    3  A    between atoms: C_9  and  C_10 
REMARK    4  A    between atoms: C_18  and  C_19 
REMARK    5  A    between atoms: C_29  and  C_30 
REMARK    6  A    between atoms: C_30  and  O_31 
ROOT
HETATM    1  C   UNL     1       2.566  31.748  55.604  1.00  0.00     0.070 C 
HETATM    2  C   UNL     1       3.801  31.223  56.292  1.00  0.00     0.037 C 
HETATM    3  N   UNL     1       3.833  29.847  56.502  1.00  0.00    -0.192 N 
HETATM    4  C   UNL     1       4.943  29.204  56.915  1.00  0.00     0.726 A 
HETATM    5  N   UNL     1       6.005  29.929  57.381  1.00  0.00    -0.082 N 
HETATM    6  N   UNL     1       7.074  29.139  57.611  1.00  0.00    -0.128 NA
HETATM    7  C   UNL     1       6.558  27.934  57.333  1.00  0.00     0.226 A 
HETATM    8  N   UNL     1       5.253  27.936  56.905  1.00  0.00    -0.035 NA
HETATM    9  C   UNL     1       6.005  31.392  57.501  1.00  0.00     0.204 C 
HETATM   10  C   UNL     1       4.838  31.991  56.715  1.00  0.00     0.070 C 
HETATM   11  H   UNL     1       3.099  29.294  56.065  1.00  0.00     0.184 HD
ENDROOT
BRANCH   9  12
HETATM   12  C   UNL     1       6.024  31.767  58.991  1.00  0.00    -0.017 A 
HETATM   13  C   UNL     1       7.241  31.872  59.736  1.00  0.00    -0.017 A 
HETATM   14  C   UNL     1       7.171  32.246  61.106  1.00  0.00    -0.025 A 
HETATM   15  C   UNL     1       8.534  31.618  59.212  1.00  0.00     0.013 A 
HETATM   16  C   UNL     1       8.342  32.377  61.871  1.00  0.00     0.012 A 
HETATM   17  C   UNL     1       5.931  32.481  61.711  1.00  0.00     0.012 A 
HETATM   18  C   UNL     1       9.595  32.132  61.315  1.00  0.00     0.001 A 
HETATM   19  C   UNL     1       9.691  31.748  59.988  1.00  0.00     0.001 A 
HETATM   20  C   UNL     1       4.749  32.342  60.996  1.00  0.00     0.002 A 
HETATM   21  C   UNL     1       4.793  31.984  59.653  1.00  0.00     0.010 A 
ENDBRANCH   9  12
BRANCH  10  22
HETATM   22  C   UNL     1       4.986  33.429  56.405  1.00  0.00     0.293 C 
HETATM   23  O   UNL     1       4.971  34.311  57.246  1.00  0.00    -0.259 OA
BRANCH  22  24
HETATM   24  O   UNL     1       5.252  33.595  55.085  1.00  0.00    -0.323 OA
HETATM   25  C   UNL     1       5.330  34.957  54.661  1.00  0.00     0.213 C 
ENDBRANCH  22  24
ENDBRANCH  10  22
BRANCH   7  26
HETATM   26  S   UNL     1       7.473  26.456  57.427  1.00  0.00    -0.083 SA
BRANCH  26  27
HETATM   27  C   UNL     1       6.215  25.228  56.986  1.00  0.00     0.123 C 
BRANCH  27  28
HETATM   28  C   UNL     1       6.548  24.563  55.669  1.00  0.00    -0.027 A 
HETATM   29  C   UNL     1       7.475  23.514  55.557  1.00  0.00     0.041 A 
HETATM   30 CL   UNL     1       8.289  22.856  56.933  1.00  0.00    -0.084 Cl
HETATM   31  C   UNL     1       7.777  22.961  54.307  1.00  0.00     0.024 A 
HETATM   32  C   UNL     1       7.165  23.452  53.154  1.00  0.00     0.002 A 
HETATM   33  C   UNL     1       6.251  24.496  53.247  1.00  0.00     0.001 A 
HETATM   34  C   UNL     1       5.945  25.048  54.492  1.00  0.00     0.009 A 
ENDBRANCH  27  28
ENDBRANCH  26  27
ENDBRANCH   7  26
TORSDOF 6
ENDMDL
MODEL 5
REMARK VINA RESULT:      -8.4      7.418     11.609
REMARK  6 active torsions:
REMARK  status: ('A' for Active; 'I' for Inactive)
REMARK    1  A    between atoms: C_7  and  S_8 
REMARK    2  A    between atoms: S_8  and  C_9 
REMARK    3  A    between atoms: C_9  and  C_10 
REMARK    4  A    between atoms: C_18  and  C_19 
REMARK    5  A    between atoms: C_29  and  C_30 
REMARK    6  A    between atoms: C_30  and  O_31 
ROOT
HETATM    1  C   UNL     1       5.642  34.332  67.047  1.00  0.00     0.070 C 
HETATM    2  C   UNL     1       5.823  34.092  65.569  1.00  0.00     0.037 C 
HETATM    3  N   UNL     1       7.100  33.698  65.176  1.00  0.00    -0.192 N 
HETATM    4  C   UNL     1       7.368  33.252  63.934  1.00  0.00     0.726 A 
HETATM    5  N   UNL     1       6.435  33.412  62.946  1.00  0.00    -0.082 N 
HETATM    6  N   UNL     1       6.808  32.782  61.813  1.00  0.00    -0.128 NA
HETATM    7  C   UNL     1       8.017  32.326  62.168  1.00  0.00     0.226 A 
HETATM    8  N   UNL     1       8.394  32.598  63.460  1.00  0.00    -0.035 NA
HETATM    9  C   UNL     1       5.146  34.086  63.143  1.00  0.00     0.204 C 
HETATM   10  C   UNL     1       4.850  34.246  64.635  1.00  0.00     0.070 C 
HETATM   11  H   UNL     1       7.764  33.476  65.914  1.00  0.00     0.184 HD
ENDROOT
BRANCH   9  12
HETATM   12  C   UNL     1       5.150  35.404  62.353  1.00  0.00    -0.017 A 
HETATM   13  C   UNL     1       4.494  35.537  61.088  1.00  0.00    -0.017 A 
HETATM   14  C   UNL     1       4.528  36.798  60.434  1.00  0.00    -0.025 A 
HETATM   15  C   UNL     1       3.810  34.491  60.418  1.00  0.00     0.013 A 
HETATM   16  C   UNL     1       3.883  36.979  59.199  1.00  0.00     0.012 A 
HETATM   17  C   UNL     1       5.212  37.875  61.010  1.00  0.00     0.012 A 
HETATM   18  C   UNL     1       3.209  35.930  58.579  1.00  0.00     0.001 A 
HETATM   19  C   UNL     1       3.176  34.685  59.186  1.00  0.00     0.001 A 
HETATM   20  C   UNL     1       5.879  37.733  62.220  1.00  0.00     0.002 A 
HETATM   21  C   UNL     1       5.854  36.511  62.881  1.00  0.00     0.010 A 
ENDBRANCH   9  12
BRANCH  10  22
HETATM   22  C   UNL     1       3.429  34.501  64.951  1.00  0.00     0.293 C 
HETATM   23  O   UNL     1       3.045  35.402  65.677  1.00  0.00    -0.259 OA
BRANCH  22  24
HETATM   24  O   UNL     1       2.636  33.668  64.232  1.00  0.00    -0.323 OA
HETATM   25  C   UNL     1       1.660  34.329  63.423  1.00  0.00     0.213 C 
ENDBRANCH  22  24
ENDBRANCH  10  22
BRANCH   7  26
HETATM   26  S   UNL     1       9.034  31.389  61.111  1.00  0.00    -0.083 SA
BRANCH  26  27
HETATM   27  C   UNL     1       8.179  31.583  59.525  1.00  0.00     0.123 C 
BRANCH  27  28
HETATM   28  C   UNL     1       8.907  30.844  58.425  1.00  0.00    -0.027 A 
HETATM   29  C   UNL     1       8.293  29.864  57.628  1.00  0.00     0.041 A 
HETATM   30 CL   UNL     1       6.626  29.445  57.807  1.00  0.00    -0.084 Cl
HETATM   31  C   UNL     1       9.025  29.182  56.649  1.00  0.00     0.024 A 
HETATM   32  C   UNL     1      10.378  29.462  56.459  1.00  0.00     0.002 A 
HETATM   33  C   UNL     1      11.003  30.425  57.245  1.00  0.00     0.001 A 
HETATM   34  C   UNL     1      10.275  31.109  58.221  1.00  0.00     0.009 A 
ENDBRANCH  27  28
ENDBRANCH  26  27
ENDBRANCH   7  26
TORSDOF 6
ENDMDL
MODEL 6
REMARK VINA RESULT:      -8.2      4.097      8.372
REMARK  6 active torsions:
REMARK  status: ('A' for Active; 'I' for Inactive)
REMARK    1  A    between atoms: C_7  and  S_8 
REMARK    2  A    between atoms: S_8  and  C_9 
REMARK    3  A    between atoms: C_9  and  C_10 
REMARK    4  A    between atoms: C_18  and  C_19 
REMARK    5  A    between atoms: C_29  and  C_30 
REMARK    6  A    between atoms: C_30  and  O_31 
ROOT
HETATM    1  C   UNL     1       4.217  31.611  52.824  1.00  0.00     0.070 C 
HETATM    2  C   UNL     1       4.373  31.126  54.243  1.00  0.00     0.037 C 
HETATM    3  N   UNL     1       4.450  32.122  55.213  1.00  0.00    -0.192 N 
HETATM    4  C   UNL     1       4.387  31.854  56.532  1.00  0.00     0.726 A 
HETATM    5  N   UNL     1       4.495  30.559  56.960  1.00  0.00    -0.082 N 
HETATM    6  N   UNL     1       4.264  30.460  58.285  1.00  0.00    -0.128 NA
HETATM    7  C   UNL     1       4.098  31.750  58.606  1.00  0.00     0.226 A 
HETATM    8  N   UNL     1       4.168  32.633  57.557  1.00  0.00    -0.035 NA
HETATM    9  C   UNL     1       4.720  29.419  56.062  1.00  0.00     0.204 C 
HETATM   10  C   UNL     1       4.454  29.822  54.612  1.00  0.00     0.070 C 
HETATM   11  H   UNL     1       4.265  33.077  54.914  1.00  0.00     0.184 HD
ENDROOT
BRANCH   9  12
HETATM   12  C   UNL     1       6.128  28.859  56.316  1.00  0.00    -0.017 A 
HETATM   13  C   UNL     1       6.364  27.467  56.556  1.00  0.00    -0.017 A 
HETATM   14  C   UNL     1       7.701  27.030  56.759  1.00  0.00    -0.025 A 
HETATM   15  C   UNL     1       5.353  26.475  56.619  1.00  0.00     0.013 A 
HETATM   16  C   UNL     1       7.980  25.671  56.982  1.00  0.00     0.012 A 
HETATM   17  C   UNL     1       8.756  27.950  56.748  1.00  0.00     0.012 A 
HETATM   18  C   UNL     1       6.961  24.724  57.022  1.00  0.00     0.001 A 
HETATM   19  C   UNL     1       5.647  25.127  56.846  1.00  0.00     0.001 A 
HETATM   20  C   UNL     1       8.520  29.304  56.552  1.00  0.00     0.002 A 
HETATM   21  C   UNL     1       7.222  29.755  56.344  1.00  0.00     0.010 A 
ENDBRANCH   9  12
BRANCH  10  22
HETATM   22  C   UNL     1       4.223  28.686  53.695  1.00  0.00     0.293 C 
HETATM   23  O   UNL     1       3.118  28.260  53.404  1.00  0.00    -0.259 OA
BRANCH  22  24
HETATM   24  O   UNL     1       5.398  28.279  53.153  1.00  0.00    -0.323 OA
HETATM   25  C   UNL     1       5.488  26.873  52.915  1.00  0.00     0.213 C 
ENDBRANCH  22  24
ENDBRANCH  10  22
BRANCH   7  26
HETATM   26  S   UNL     1       3.743  32.297  60.221  1.00  0.00    -0.083 SA
BRANCH  26  27
HETATM   27  C   UNL     1       4.987  33.598  60.438  1.00  0.00     0.123 C 
BRANCH  27  28
HETATM   28  C   UNL     1       6.050  33.169  61.425  1.00  0.00    -0.027 A 
HETATM   29  C   UNL     1       7.176  32.417  61.053  1.00  0.00     0.041 A 
HETATM   30 CL   UNL     1       7.471  31.950  59.416  1.00  0.00    -0.084 Cl
HETATM   31  C   UNL     1       8.110  32.012  62.015  1.00  0.00     0.024 A 
HETATM   32  C   UNL     1       7.927  32.343  63.357  1.00  0.00     0.002 A 
HETATM   33  C   UNL     1       6.813  33.081  63.742  1.00  0.00     0.001 A 
HETATM   34  C   UNL     1       5.881  33.489  62.786  1.00  0.00     0.009 A 
ENDBRANCH  27  28
ENDBRANCH  26  27
ENDBRANCH   7  26
TORSDOF 6
ENDMDL
MODEL 7
REMARK VINA RESULT:      -7.9      1.924      4.790
REMARK  6 active torsions:
REMARK  status: ('A' for Active; 'I' for Inactive)
REMARK    1  A    between atoms: C_7  and  S_8 
REMARK    2  A    between atoms: S_8  and  C_9 
REMARK    3  A    between atoms: C_9  and  C_10 
REMARK    4  A    between atoms: C_18  and  C_19 
REMARK    5  A    between atoms: C_29  and  C_30 
REMARK    6  A    between atoms: C_30  and  O_31 
ROOT
HETATM    1  C   UNL     1       7.053  23.844  54.210  1.00  0.00     0.070 C 
HETATM    2  C   UNL     1       6.488  25.241  54.243  1.00  0.00     0.037 C 
HETATM    3  N   UNL     1       6.468  25.911  53.021  1.00  0.00    -0.192 N 
HETATM    4  C   UNL     1       5.815  27.076  52.846  1.00  0.00     0.726 A 
HETATM    5  N   UNL     1       5.358  27.761  53.938  1.00  0.00    -0.082 N 
HETATM    6  N   UNL     1       4.606  28.820  53.573  1.00  0.00    -0.128 NA
HETATM    7  C   UNL     1       4.716  28.756  52.240  1.00  0.00     0.226 A 
HETATM    8  N   UNL     1       5.452  27.700  51.759  1.00  0.00    -0.035 NA
HETATM    9  C   UNL     1       5.570  27.323  55.324  1.00  0.00     0.204 C 
HETATM   10  C   UNL     1       6.028  25.865  55.357  1.00  0.00     0.070 C 
HETATM   11  H   UNL     1       6.706  25.371  52.193  1.00  0.00     0.184 HD
ENDROOT
BRANCH   9  12
HETATM   12  C   UNL     1       6.530  28.305  56.013  1.00  0.00    -0.017 A 
HETATM   13  C   UNL     1       6.064  29.360  56.861  1.00  0.00    -0.017 A 
HETATM   14  C   UNL     1       7.022  30.210  57.476  1.00  0.00    -0.025 A 
HETATM   15  C   UNL     1       4.701  29.636  57.132  1.00  0.00     0.013 A 
HETATM   16  C   UNL     1       6.611  31.248  58.329  1.00  0.00     0.012 A 
HETATM   17  C   UNL     1       8.389  30.028  57.234  1.00  0.00     0.012 A 
HETATM   18  C   UNL     1       5.262  31.479  58.582  1.00  0.00     0.001 A 
HETATM   19  C   UNL     1       4.306  30.677  57.980  1.00  0.00     0.001 A 
HETATM   20  C   UNL     1       8.836  29.027  56.381  1.00  0.00     0.002 A 
HETATM   21  C   UNL     1       7.918  28.179  55.773  1.00  0.00     0.010 A 
ENDBRANCH   9  12
BRANCH  10  22
HETATM   22  C   UNL     1       5.851  25.200  56.666  1.00  0.00     0.293 C 
HETATM   23  O   UNL     1       4.793  25.159  57.271  1.00  0.00    -0.259 OA
BRANCH  22  24
HETATM   24  O   UNL     1       6.993  24.559  57.020  1.00  0.00    -0.323 OA
HETATM   25  C   UNL     1       7.924  25.360  57.750  1.00  0.00     0.213 C 
ENDBRANCH  22  24
ENDBRANCH  10  22
BRANCH   7  26
HETATM   26  S   UNL     1       3.935  29.875  51.160  1.00  0.00    -0.083 SA
BRANCH  26  27
HETATM   27  C   UNL     1       4.580  29.334  49.555  1.00  0.00     0.123 C 
BRANCH  27  28
HETATM   28  C   UNL     1       3.585  28.443  48.846  1.00  0.00    -0.027 A 
HETATM   29  C   UNL     1       3.937  27.611  47.770  1.00  0.00     0.041 A 
HETATM   30 CL   UNL     1       5.560  27.499  47.187  1.00  0.00    -0.084 Cl
HETATM   31  C   UNL     1       2.967  26.835  47.123  1.00  0.00     0.024 A 
HETATM   32  C   UNL     1       1.635  26.887  47.535  1.00  0.00     0.002 A 
HETATM   33  C   UNL     1       1.270  27.712  48.593  1.00  0.00     0.001 A 
HETATM   34  C   UNL     1       2.234  28.484  49.242  1.00  0.00     0.009 A 
ENDBRANCH  27  28
ENDBRANCH  26  27
ENDBRANCH   7  26
TORSDOF 6
ENDMDL
MODEL 8
REMARK VINA RESULT:      -7.8      3.849      8.470
REMARK  6 active torsions:
REMARK  status: ('A' for Active; 'I' for Inactive)
REMARK    1  A    between atoms: C_7  and  S_8 
REMARK    2  A    between atoms: S_8  and  C_9 
REMARK    3  A    between atoms: C_9  and  C_10 
REMARK    4  A    between atoms: C_18  and  C_19 
REMARK    5  A    between atoms: C_29  and  C_30 
REMARK    6  A    between atoms: C_30  and  O_31 
ROOT
HETATM    1  C   UNL     1       6.788  24.036  55.812  1.00  0.00     0.070 C 
HETATM    2  C   UNL     1       7.048  25.519  55.721  1.00  0.00     0.037 C 
HETATM    3  N   UNL     1       7.493  26.125  56.893  1.00  0.00    -0.192 N 
HETATM    4  C   UNL     1       7.959  27.388  56.922  1.00  0.00     0.726 A 
HETATM    5  N   UNL     1       7.773  28.198  55.835  1.00  0.00    -0.082 N 
HETATM    6  N   UNL     1       8.427  29.370  55.979  1.00  0.00    -0.128 NA
HETATM    7  C   UNL     1       8.925  29.227  57.215  1.00  0.00     0.226 A 
HETATM    8  N   UNL     1       8.656  28.025  57.824  1.00  0.00    -0.035 NA
HETATM    9  C   UNL     1       7.049  27.788  54.625  1.00  0.00     0.204 C 
HETATM   10  C   UNL     1       6.865  26.270  54.604  1.00  0.00     0.070 C 
HETATM   11  H   UNL     1       7.733  25.513  57.669  1.00  0.00     0.184 HD
ENDROOT
BRANCH   9  12
HETATM   12  C   UNL     1       5.739  28.586  54.537  1.00  0.00    -0.017 A 
HETATM   13  C   UNL     1       5.208  29.043  53.289  1.00  0.00    -0.017 A 
HETATM   14  C   UNL     1       3.978  29.756  53.294  1.00  0.00    -0.025 A 
HETATM   15  C   UNL     1       5.825  28.847  52.027  1.00  0.00     0.013 A 
HETATM   16  C   UNL     1       3.411  30.209  52.091  1.00  0.00     0.012 A 
HETATM   17  C   UNL     1       3.320  30.023  54.500  1.00  0.00     0.012 A 
HETATM   18  C   UNL     1       4.041  29.985  50.869  1.00  0.00     0.001 A 
HETATM   19  C   UNL     1       5.250  29.308  50.838  1.00  0.00     0.001 A 
HETATM   20  C   UNL     1       3.858  29.610  55.713  1.00  0.00     0.002 A 
HETATM   21  C   UNL     1       5.055  28.906  55.732  1.00  0.00     0.010 A 
ENDBRANCH   9  12
BRANCH  10  22
HETATM   22  C   UNL     1       6.555  25.711  53.271  1.00  0.00     0.293 C 
HETATM   23  O   UNL     1       7.401  25.372  52.462  1.00  0.00    -0.259 OA
BRANCH  22  24
HETATM   24  O   UNL     1       5.216  25.531  53.142  1.00  0.00    -0.323 OA
HETATM   25  C   UNL     1       4.833  24.667  52.071  1.00  0.00     0.213 C 
ENDBRANCH  22  24
ENDBRANCH  10  22
BRANCH   7  26
HETATM   26  S   UNL     1       9.908  30.432  57.996  1.00  0.00    -0.083 SA
BRANCH  26  27
HETATM   27  C   UNL     1       8.646  31.568  58.630  1.00  0.00     0.123 C 
BRANCH  27  28
HETATM   28  C   UNL     1       8.414  31.346  60.108  1.00  0.00    -0.027 A 
HETATM   29  C   UNL     1       7.291  31.847  60.787  1.00  0.00     0.041 A 
HETATM   30 CL   UNL     1       6.045  32.731  59.978  1.00  0.00    -0.084 Cl
HETATM   31  C   UNL     1       7.145  31.646  62.165  1.00  0.00     0.024 A 
HETATM   32  C   UNL     1       8.119  30.952  62.882  1.00  0.00     0.002 A 
HETATM   33  C   UNL     1       9.240  30.457  62.225  1.00  0.00     0.001 A 
HETATM   34  C   UNL     1       9.388  30.652  60.851  1.00  0.00     0.009 A 
ENDBRANCH  27  28
ENDBRANCH  26  27
ENDBRANCH   7  26
TORSDOF 6
ENDMDL
MODEL 9
REMARK VINA RESULT:      -7.7      3.415      7.174
REMARK  6 active torsions:
REMARK  status: ('A' for Active; 'I' for Inactive)
REMARK    1  A    between atoms: C_7  and  S_8 
REMARK    2  A    between atoms: S_8  and  C_9 
REMARK    3  A    between atoms: C_9  and  C_10 
REMARK    4  A    between atoms: C_18  and  C_19 
REMARK    5  A    between atoms: C_29  and  C_30 
REMARK    6  A    between atoms: C_30  and  O_31 
ROOT
HETATM    1  C   UNL     1       4.905  32.463  55.803  1.00  0.00     0.070 C 
HETATM    2  C   UNL     1       4.664  31.268  54.914  1.00  0.00     0.037 C 
HETATM    3  N   UNL     1       5.540  30.200  55.091  1.00  0.00    -0.192 N 
HETATM    4  C   UNL     1       5.335  28.996  54.525  1.00  0.00     0.726 A 
HETATM    5  N   UNL     1       4.383  28.864  53.551  1.00  0.00    -0.082 N 
HETATM    6  N   UNL     1       4.213  27.571  53.203  1.00  0.00    -0.128 NA
HETATM    7  C   UNL     1       5.153  26.985  53.956  1.00  0.00     0.226 A 
HETATM    8  N   UNL     1       5.862  27.828  54.777  1.00  0.00    -0.035 NA
HETATM    9  C   UNL     1       3.576  29.980  53.042  1.00  0.00     0.204 C 
HETATM   10  C   UNL     1       3.685  31.186  53.976  1.00  0.00     0.070 C 
HETATM   11  H   UNL     1       6.178  30.251  55.881  1.00  0.00     0.184 HD
ENDROOT
BRANCH   9  12
HETATM   12  C   UNL     1       3.986  30.266  51.589  1.00  0.00    -0.017 A 
HETATM   13  C   UNL     1       3.226  29.788  50.474  1.00  0.00    -0.017 A 
HETATM   14  C   UNL     1       3.664  30.116  49.162  1.00  0.00    -0.025 A 
HETATM   15  C   UNL     1       2.058  28.991  50.574  1.00  0.00     0.013 A 
HETATM   16  C   UNL     1       2.940  29.683  48.039  1.00  0.00     0.012 A 
HETATM   17  C   UNL     1       4.828  30.871  48.973  1.00  0.00     0.012 A 
HETATM   18  C   UNL     1       1.788  28.913  48.179  1.00  0.00     0.001 A 
HETATM   19  C   UNL     1       1.350  28.562  49.446  1.00  0.00     0.001 A 
HETATM   20  C   UNL     1       5.584  31.301  50.056  1.00  0.00     0.002 A 
HETATM   21  C   UNL     1       5.171  30.998  51.348  1.00  0.00     0.010 A 
ENDBRANCH   9  12
BRANCH  10  22
HETATM   22  C   UNL     1       2.607  32.183  53.814  1.00  0.00     0.293 C 
HETATM   23  O   UNL     1       2.465  32.876  52.820  1.00  0.00    -0.259 OA
BRANCH  22  24
HETATM   24  O   UNL     1       1.754  32.122  54.867  1.00  0.00    -0.323 OA
HETATM   25  C   UNL     1       0.768  33.157  54.894  1.00  0.00     0.213 C 
ENDBRANCH  22  24
ENDBRANCH  10  22
BRANCH   7  26
HETATM   26  S   UNL     1       5.434  25.267  53.971  1.00  0.00    -0.083 SA
BRANCH  26  27
HETATM   27  C   UNL     1       7.154  25.191  54.540  1.00  0.00     0.123 C 
BRANCH  27  28
HETATM   28  C   UNL     1       7.726  23.805  54.344  1.00  0.00    -0.027 A 
HETATM   29  C   UNL     1       8.532  23.170  55.303  1.00  0.00     0.041 A 
HETATM   30 CL   UNL     1       8.906  23.904  56.822  1.00  0.00    -0.084 Cl
HETATM   31  C   UNL     1       9.069  21.901  55.053  1.00  0.00     0.024 A 
HETATM   32  C   UNL     1       8.817  21.256  53.843  1.00  0.00     0.002 A 
HETATM   33  C   UNL     1       8.028  21.876  52.880  1.00  0.00     0.001 A 
HETATM   34  C   UNL     1       7.488  23.139  53.126  1.00  0.00     0.009 A 
ENDBRANCH  27  28
ENDBRANCH  26  27
ENDBRANCH   7  26
TORSDOF 6
ENDMDL
MODEL 10
REMARK VINA RESULT:      -7.7      4.056      7.866
REMARK  6 active torsions:
REMARK  status: ('A' for Active; 'I' for Inactive)
REMARK    1  A    between atoms: C_7  and  S_8 
REMARK    2  A    between atoms: S_8  and  C_9 
REMARK    3  A    between atoms: C_9  and  C_10 
REMARK    4  A    between atoms: C_18  and  C_19 
REMARK    5  A    between atoms: C_29  and  C_30 
REMARK    6  A    between atoms: C_30  and  O_31 
ROOT
HETATM    1  C   UNL     1       6.179  25.820  54.210  1.00  0.00     0.070 C 
HETATM    2  C   UNL     1       6.122  27.148  54.924  1.00  0.00     0.037 C 
HETATM    3  N   UNL     1       5.577  28.200  54.193  1.00  0.00    -0.192 N 
HETATM    4  C   UNL     1       5.271  29.387  54.752  1.00  0.00     0.726 A 
HETATM    5  N   UNL     1       5.724  29.673  56.011  1.00  0.00    -0.082 N 
HETATM    6  N   UNL     1       5.206  30.832  56.466  1.00  0.00    -0.128 NA
HETATM    7  C   UNL     1       4.506  31.230  55.396  1.00  0.00     0.226 A 
HETATM    8  N   UNL     1       4.526  30.370  54.325  1.00  0.00    -0.035 NA
HETATM    9  C   UNL     1       6.573  28.770  56.798  1.00  0.00     0.204 C 
HETATM   10  C   UNL     1       6.569  27.368  56.187  1.00  0.00     0.070 C 
HETATM   11  H   UNL     1       5.144  27.971  53.301  1.00  0.00     0.184 HD
ENDROOT
BRANCH   9  12
HETATM   12  C   UNL     1       7.969  29.396  56.937  1.00  0.00    -0.017 A 
HETATM   13  C   UNL     1       8.318  30.246  58.034  1.00  0.00    -0.017 A 
HETATM   14  C   UNL     1       9.639  30.767  58.098  1.00  0.00    -0.025 A 
HETATM   15  C   UNL     1       7.434  30.626  59.076  1.00  0.00     0.013 A 
HETATM   16  C   UNL     1      10.030  31.592  59.166  1.00  0.00     0.012 A 
HETATM   17  C   UNL     1      10.565  30.470  57.091  1.00  0.00     0.012 A 
HETATM   18  C   UNL     1       9.136  31.931  60.178  1.00  0.00     0.001 A 
HETATM   19  C   UNL     1       7.836  31.452  60.131  1.00  0.00     0.001 A 
HETATM   20  C   UNL     1      10.213  29.676  56.008  1.00  0.00     0.002 A 
HETATM   21  C   UNL     1       8.929  29.150  55.928  1.00  0.00     0.010 A 
ENDBRANCH   9  12
BRANCH  10  22
HETATM   22  C   UNL     1       7.014  26.300  57.107  1.00  0.00     0.293 C 
HETATM   23  O   UNL     1       6.258  25.642  57.801  1.00  0.00    -0.259 OA
BRANCH  22  24
HETATM   24  O   UNL     1       8.348  26.095  56.971  1.00  0.00    -0.323 OA
HETATM   25  C   UNL     1       8.776  24.760  57.251  1.00  0.00     0.213 C 
ENDBRANCH  22  24
ENDBRANCH  10  22
BRANCH   7  26
HETATM   26  S   UNL     1       3.568  32.696  55.356  1.00  0.00    -0.083 SA
BRANCH  26  27
HETATM   27  C   UNL     1       4.675  33.852  56.208  1.00  0.00     0.123 C 
BRANCH  27  28
HETATM   28  C   UNL     1       4.238  34.059  57.641  1.00  0.00    -0.027 A 
HETATM   29  C   UNL     1       3.162  34.888  57.999  1.00  0.00     0.041 A 
HETATM   30 CL   UNL     1       2.208  35.716  56.819  1.00  0.00    -0.084 Cl
HETATM   31  C   UNL     1       2.825  35.076  59.345  1.00  0.00     0.024 A 
HETATM   32  C   UNL     1       3.561  34.448  60.348  1.00  0.00     0.002 A 
HETATM   33  C   UNL     1       4.635  33.630  60.011  1.00  0.00     0.001 A 
HETATM   34  C   UNL     1       4.972  33.438  58.670  1.00  0.00     0.009 A 
ENDBRANCH  27  28
ENDBRANCH  26  27
ENDBRANCH   7  26
TORSDOF 6
ENDMDL
