MODEL 1
REMARK VINA RESULT:     -10.5      0.000      0.000
REMARK  6 active torsions:
REMARK  status: ('A' for Active; 'I' for Inactive)
REMARK    1  A    between atoms: C_5  and  N_6 
REMARK    2  A    between atoms: N_6  and  C_7 
REMARK    3  A    between atoms: C_7  and  N_8 
REMARK    4  A    between atoms: C_11  and  C_12 
REMARK    5  A    between atoms: N_14  and  C_15 
REMARK    6  A    between atoms: C_21  and  O_22 
ROOT
HETATM    1  N   UNL     1       8.199  29.646  57.728  1.00  0.00    -0.358 N 
HETATM    2  C   UNL     1       6.971  28.889  58.016  1.00  0.00     0.126 C 
HETATM    3  C   UNL     1       6.212  28.518  56.743  1.00  0.00     0.031 C 
HETATM    4  C   UNL     1       7.107  27.825  55.700  1.00  0.00     0.043 C 
HETATM    5  C   UNL     1       8.363  28.683  55.470  1.00  0.00     0.031 C 
HETATM    6  C   UNL     1       9.092  28.981  56.776  1.00  0.00     0.126 C 
ENDROOT
BRANCH   4   7
HETATM    7  C   UNL     1       7.443  26.385  56.016  1.00  0.00     0.063 C 
HETATM    8  N   UNL     1       7.583  25.469  55.052  1.00  0.00    -0.169 NA
HETATM    9  N   UNL     1       7.829  24.297  55.702  1.00  0.00    -0.211 N 
HETATM   10  C   UNL     1       8.047  24.520  57.061  1.00  0.00     0.165 C 
HETATM   11  C   UNL     1       7.729  25.836  57.286  1.00  0.00     0.087 C 
BRANCH   9  12
HETATM   12  C   UNL     1       7.844  23.069  54.980  1.00  0.00     0.061 A 
HETATM   13  C   UNL     1       7.953  23.098  53.581  1.00  0.00     0.031 A 
HETATM   14  C   UNL     1       7.989  21.906  52.855  1.00  0.00     0.002 A 
HETATM   15  C   UNL     1       7.895  20.683  53.514  1.00  0.00     0.000 A 
HETATM   16  C   UNL     1       7.750  20.647  54.900  1.00  0.00     0.002 A 
HETATM   17  C   UNL     1       7.720  21.836  55.634  1.00  0.00     0.031 A 
ENDBRANCH   9  12
BRANCH  10  18
HETATM   18  O   UNL     1       8.521  23.629  57.933  1.00  0.00    -0.345 OA
HETATM   19  H   UNL     1       8.760  22.818  57.449  1.00  0.00     0.219 HD
ENDBRANCH  10  18
ENDBRANCH   4   7
BRANCH   1  20
HETATM   20  C   UNL     1       8.719  30.423  58.754  1.00  0.00     0.174 C 
HETATM   21  S   UNL     1       9.982  31.520  58.589  1.00  0.00    -0.041 SA
BRANCH  20  22
HETATM   22  N   UNL     1       8.220  30.253  60.018  1.00  0.00    -0.333 N 
HETATM   23  H   UNL     1       8.272  29.291  60.333  1.00  0.00     0.168 HD
BRANCH  22  24
HETATM   24  C   UNL     1       7.893  31.195  61.016  1.00  0.00     0.034 A 
HETATM   25  C   UNL     1       8.460  31.211  62.291  1.00  0.00     0.030 A 
HETATM   26  C   UNL     1       8.069  32.166  63.235  1.00  0.00     0.009 A 
HETATM   27  C   UNL     1       7.080  33.105  62.928  1.00  0.00    -0.062 A 
HETATM   28  C   UNL     1       6.681  34.151  63.926  1.00  0.00     0.048 C 
HETATM   29  C   UNL     1       6.497  33.080  61.658  1.00  0.00     0.009 A 
HETATM   30  C   UNL     1       6.893  32.126  60.715  1.00  0.00     0.030 A 
ENDBRANCH  22  24
ENDBRANCH  20  22
ENDBRANCH   1  20
TORSDOF 6
ENDMDL
MODEL 2
REMARK VINA RESULT:     -10.2      1.807      2.367
REMARK  6 active torsions:
REMARK  status: ('A' for Active; 'I' for Inactive)
REMARK    1  A    between atoms: C_5  and  N_6 
REMARK    2  A    between atoms: N_6  and  C_7 
REMARK    3  A    between atoms: C_7  and  N_8 
REMARK    4  A    between atoms: C_11  and  C_12 
REMARK    5  A    between atoms: N_14  and  C_15 
REMARK    6  A    between atoms: C_21  and  O_22 
ROOT
HETATM    1  N   UNL     1       8.313  29.115  56.914  1.00  0.00    -0.358 N 
HETATM    2  C   UNL     1       8.375  27.745  57.446  1.00  0.00     0.126 C 
HETATM    3  C   UNL     1       7.015  27.050  57.405  1.00  0.00     0.031 C 
HETATM    4  C   UNL     1       6.356  27.119  56.016  1.00  0.00     0.043 C 
HETATM    5  C   UNL     1       6.342  28.583  55.542  1.00  0.00     0.031 C 
HETATM    6  C   UNL     1       7.737  29.201  55.570  1.00  0.00     0.126 C 
ENDROOT
BRANCH   4   7
HETATM    7  C   UNL     1       6.953  26.187  54.987  1.00  0.00     0.063 C 
HETATM    8  N   UNL     1       7.004  24.865  55.183  1.00  0.00    -0.169 NA
HETATM    9  N   UNL     1       7.643  24.363  54.089  1.00  0.00    -0.211 N 
HETATM   10  C   UNL     1       7.808  25.348  53.115  1.00  0.00     0.165 C 
HETATM   11  C   UNL     1       7.440  26.532  53.707  1.00  0.00     0.087 C 
BRANCH   9  12
HETATM   12  C   UNL     1       8.036  22.995  54.057  1.00  0.00     0.061 A 
HETATM   13  C   UNL     1       8.766  22.466  55.132  1.00  0.00     0.031 A 
HETATM   14  C   UNL     1       9.146  21.123  55.131  1.00  0.00     0.002 A 
HETATM   15  C   UNL     1       8.820  20.305  54.052  1.00  0.00     0.000 A 
HETATM   16  C   UNL     1       8.126  20.832  52.963  1.00  0.00     0.002 A 
HETATM   17  C   UNL     1       7.737  22.174  52.961  1.00  0.00     0.031 A 
ENDBRANCH   9  12
BRANCH  10  18
HETATM   18  O   UNL     1       8.195  25.145  51.856  1.00  0.00    -0.345 OA
HETATM   19  H   UNL     1       8.580  24.252  51.790  1.00  0.00     0.219 HD
ENDBRANCH  10  18
ENDBRANCH   4   7
BRANCH   1  20
HETATM   20  C   UNL     1       9.317  29.991  57.304  1.00  0.00     0.174 C 
HETATM   21  S   UNL     1      10.966  29.698  57.157  1.00  0.00    -0.041 SA
BRANCH  20  22
HETATM   22  N   UNL     1       8.958  31.163  57.914  1.00  0.00    -0.333 N 
HETATM   23  H   UNL     1       8.587  31.846  57.262  1.00  0.00     0.168 HD
BRANCH  22  24
HETATM   24  C   UNL     1       8.784  31.480  59.278  1.00  0.00     0.034 A 
HETATM   25  C   UNL     1       9.834  31.638  60.184  1.00  0.00     0.030 A 
HETATM   26  C   UNL     1       9.581  31.933  61.527  1.00  0.00     0.009 A 
HETATM   27  C   UNL     1       8.268  32.045  61.994  1.00  0.00    -0.062 A 
HETATM   28  C   UNL     1       7.992  32.393  63.427  1.00  0.00     0.048 C 
HETATM   29  C   UNL     1       7.214  31.869  61.094  1.00  0.00     0.009 A 
HETATM   30  C   UNL     1       7.471  31.578  59.750  1.00  0.00     0.030 A 
ENDBRANCH  22  24
ENDBRANCH  20  22
ENDBRANCH   1  20
TORSDOF 6
ENDMDL
MODEL 3
REMARK VINA RESULT:      -9.9      2.737      9.861
REMARK  6 active torsions:
REMARK  status: ('A' for Active; 'I' for Inactive)
REMARK    1  A    between atoms: C_5  and  N_6 
REMARK    2  A    between atoms: N_6  and  C_7 
REMARK    3  A    between atoms: C_7  and  N_8 
REMARK    4  A    between atoms: C_11  and  C_12 
REMARK    5  A    between atoms: N_14  and  C_15 
REMARK    6  A    between atoms: C_21  and  O_22 
ROOT
HETATM    1  N   UNL     1       6.500  27.471  55.540  1.00  0.00    -0.358 N 
HETATM    2  C   UNL     1       6.242  27.231  56.968  1.00  0.00     0.126 C 
HETATM    3  C   UNL     1       7.514  27.329  57.808  1.00  0.00     0.031 C 
HETATM    4  C   UNL     1       8.292  28.633  57.556  1.00  0.00     0.043 C 
HETATM    5  C   UNL     1       8.509  28.801  56.041  1.00  0.00     0.031 C 
HETATM    6  C   UNL     1       7.194  28.732  55.270  1.00  0.00     0.126 C 
ENDROOT
BRANCH   4   7
HETATM    7  C   UNL     1       7.682  29.863  58.189  1.00  0.00     0.063 C 
HETATM    8  N   UNL     1       8.059  30.289  59.399  1.00  0.00    -0.169 NA
HETATM    9  N   UNL     1       7.274  31.372  59.660  1.00  0.00    -0.211 N 
HETATM   10  C   UNL     1       6.550  31.745  58.527  1.00  0.00     0.165 C 
HETATM   11  C   UNL     1       6.746  30.745  57.607  1.00  0.00     0.087 C 
BRANCH   9  12
HETATM   12  C   UNL     1       7.280  31.963  60.956  1.00  0.00     0.061 A 
HETATM   13  C   UNL     1       8.351  31.701  61.823  1.00  0.00     0.031 A 
HETATM   14  C   UNL     1       8.389  32.285  63.091  1.00  0.00     0.002 A 
HETATM   15  C   UNL     1       7.352  33.117  63.508  1.00  0.00     0.000 A 
HETATM   16  C   UNL     1       6.267  33.354  62.665  1.00  0.00     0.002 A 
HETATM   17  C   UNL     1       6.226  32.777  61.393  1.00  0.00     0.031 A 
ENDBRANCH   9  12
BRANCH  10  18
HETATM   18  O   UNL     1       5.861  32.876  58.378  1.00  0.00    -0.345 OA
HETATM   19  H   UNL     1       5.246  32.769  57.631  1.00  0.00     0.219 HD
ENDBRANCH  10  18
ENDBRANCH   4   7
BRANCH   1  20
HETATM   20  C   UNL     1       5.571  26.973  54.636  1.00  0.00     0.174 C 
HETATM   21  S   UNL     1       4.641  27.909  53.594  1.00  0.00    -0.041 SA
BRANCH  20  22
HETATM   22  N   UNL     1       5.336  25.624  54.620  1.00  0.00    -0.333 N 
HETATM   23  H   UNL     1       4.349  25.399  54.562  1.00  0.00     0.168 HD
BRANCH  22  24
HETATM   24  C   UNL     1       6.212  24.536  54.417  1.00  0.00     0.034 A 
HETATM   25  C   UNL     1       6.761  23.773  55.448  1.00  0.00     0.030 A 
HETATM   26  C   UNL     1       7.639  22.720  55.168  1.00  0.00     0.009 A 
HETATM   27  C   UNL     1       8.006  22.433  53.850  1.00  0.00    -0.062 A 
HETATM   28  C   UNL     1       8.921  21.285  53.543  1.00  0.00     0.048 C 
HETATM   29  C   UNL     1       7.472  23.207  52.817  1.00  0.00     0.009 A 
HETATM   30  C   UNL     1       6.591  24.256  53.100  1.00  0.00     0.030 A 
ENDBRANCH  22  24
ENDBRANCH  20  22
ENDBRANCH   1  20
TORSDOF 6
ENDMDL
MODEL 4
REMARK VINA RESULT:      -9.3      2.133      2.645
REMARK  6 active torsions:
REMARK  status: ('A' for Active; 'I' for Inactive)
REMARK    1  A    between atoms: C_5  and  N_6 
REMARK    2  A    between atoms: N_6  and  C_7 
REMARK    3  A    between atoms: C_7  and  N_8 
REMARK    4  A    between atoms: C_11  and  C_12 
REMARK    5  A    between atoms: N_14  and  C_15 
REMARK    6  A    between atoms: C_21  and  O_22 
ROOT
HETATM    1  N   UNL     1       6.242  29.627  57.001  1.00  0.00    -0.358 N 
HETATM    2  C   UNL     1       6.799  29.570  55.641  1.00  0.00     0.126 C 
HETATM    3  C   UNL     1       8.175  28.907  55.610  1.00  0.00     0.031 C 
HETATM    4  C   UNL     1       8.190  27.539  56.316  1.00  0.00     0.043 C 
HETATM    5  C   UNL     1       7.586  27.697  57.723  1.00  0.00     0.031 C 
HETATM    6  C   UNL     1       6.197  28.328  57.675  1.00  0.00     0.126 C 
ENDROOT
BRANCH   4   7
HETATM    7  C   UNL     1       7.543  26.419  55.534  1.00  0.00     0.063 C 
HETATM    8  N   UNL     1       7.940  25.149  55.667  1.00  0.00    -0.169 NA
HETATM    9  N   UNL     1       7.181  24.440  54.786  1.00  0.00    -0.211 N 
HETATM   10  C   UNL     1       6.167  25.236  54.252  1.00  0.00     0.165 C 
HETATM   11  C   UNL     1       6.434  26.518  54.664  1.00  0.00     0.087 C 
BRANCH   9  12
HETATM   12  C   UNL     1       7.475  23.070  54.530  1.00  0.00     0.061 A 
HETATM   13  C   UNL     1       7.734  22.660  53.213  1.00  0.00     0.031 A 
HETATM   14  C   UNL     1       8.043  21.326  52.941  1.00  0.00     0.002 A 
HETATM   15  C   UNL     1       8.076  20.391  53.973  1.00  0.00     0.000 A 
HETATM   16  C   UNL     1       7.785  20.784  55.279  1.00  0.00     0.002 A 
HETATM   17  C   UNL     1       7.481  22.119  55.559  1.00  0.00     0.031 A 
ENDBRANCH   9  12
BRANCH  10  18
HETATM   18  O   UNL     1       5.129  24.802  53.535  1.00  0.00    -0.345 OA
HETATM   19  H   UNL     1       4.943  23.880  53.785  1.00  0.00     0.219 HD
ENDBRANCH  10  18
ENDBRANCH   4   7
BRANCH   1  20
HETATM   20  C   UNL     1       5.260  30.578  57.243  1.00  0.00     0.174 C 
HETATM   21  S   UNL     1       3.670  30.482  56.703  1.00  0.00    -0.041 SA
BRANCH  20  22
HETATM   22  N   UNL     1       5.607  31.717  57.919  1.00  0.00    -0.333 N 
HETATM   23  H   UNL     1       5.149  32.545  57.553  1.00  0.00     0.168 HD
BRANCH  22  24
HETATM   24  C   UNL     1       6.269  31.894  59.152  1.00  0.00     0.034 A 
HETATM   25  C   UNL     1       7.579  31.482  59.402  1.00  0.00     0.030 A 
HETATM   26  C   UNL     1       8.161  31.675  60.659  1.00  0.00     0.009 A 
HETATM   27  C   UNL     1       7.429  32.257  61.699  1.00  0.00    -0.062 A 
HETATM   28  C   UNL     1       8.059  32.495  63.039  1.00  0.00     0.048 C 
HETATM   29  C   UNL     1       6.111  32.653  61.457  1.00  0.00     0.009 A 
HETATM   30  C   UNL     1       5.534  32.462  60.198  1.00  0.00     0.030 A 
ENDBRANCH  22  24
ENDBRANCH  20  22
ENDBRANCH   1  20
TORSDOF 6
ENDMDL
MODEL 5
REMARK VINA RESULT:      -9.2      4.212      7.668
REMARK  6 active torsions:
REMARK  status: ('A' for Active; 'I' for Inactive)
REMARK    1  A    between atoms: C_5  and  N_6 
REMARK    2  A    between atoms: N_6  and  C_7 
REMARK    3  A    between atoms: C_7  and  N_8 
REMARK    4  A    between atoms: C_11  and  C_12 
REMARK    5  A    between atoms: N_14  and  C_15 
REMARK    6  A    between atoms: C_21  and  O_22 
ROOT
HETATM    1  N   UNL     1       6.050  28.614  54.611  1.00  0.00    -0.358 N 
HETATM    2  C   UNL     1       7.460  28.262  54.387  1.00  0.00     0.126 C 
HETATM    3  C   UNL     1       8.298  28.404  55.657  1.00  0.00     0.031 C 
HETATM    4  C   UNL     1       7.683  27.662  56.858  1.00  0.00     0.043 C 
HETATM    5  C   UNL     1       6.212  28.088  57.009  1.00  0.00     0.031 C 
HETATM    6  C   UNL     1       5.428  27.882  55.717  1.00  0.00     0.126 C 
ENDROOT
BRANCH   4   7
HETATM    7  C   UNL     1       7.847  26.160  56.822  1.00  0.00     0.063 C 
HETATM    8  N   UNL     1       7.962  25.494  55.668  1.00  0.00    -0.169 NA
HETATM    9  N   UNL     1       8.039  24.179  56.017  1.00  0.00    -0.211 N 
HETATM   10  C   UNL     1       8.178  24.040  57.398  1.00  0.00     0.165 C 
HETATM   11  C   UNL     1       7.981  25.291  57.927  1.00  0.00     0.087 C 
BRANCH   9  12
HETATM   12  C   UNL     1       7.980  23.168  55.015  1.00  0.00     0.061 A 
HETATM   13  C   UNL     1       7.913  23.546  53.665  1.00  0.00     0.031 A 
HETATM   14  C   UNL     1       7.875  22.573  52.665  1.00  0.00     0.002 A 
HETATM   15  C   UNL     1       7.881  21.222  53.003  1.00  0.00     0.000 A 
HETATM   16  C   UNL     1       7.911  20.839  54.344  1.00  0.00     0.002 A 
HETATM   17  C   UNL     1       7.957  21.808  55.350  1.00  0.00     0.031 A 
ENDBRANCH   9  12
BRANCH  10  18
HETATM   18  O   UNL     1       8.493  22.915  58.042  1.00  0.00    -0.345 OA
HETATM   19  H   UNL     1       8.245  23.014  58.979  1.00  0.00     0.219 HD
ENDBRANCH  10  18
ENDBRANCH   4   7
BRANCH   1  20
HETATM   20  C   UNL     1       5.302  28.972  53.497  1.00  0.00     0.174 C 
HETATM   21  S   UNL     1       3.728  29.560  53.541  1.00  0.00    -0.041 SA
BRANCH  20  22
HETATM   22  N   UNL     1       5.849  28.782  52.257  1.00  0.00    -0.333 N 
HETATM   23  H   UNL     1       6.823  29.061  52.211  1.00  0.00     0.168 HD
BRANCH  22  24
HETATM   24  C   UNL     1       5.381  28.053  51.142  1.00  0.00     0.034 A 
HETATM   25  C   UNL     1       5.177  26.673  51.140  1.00  0.00     0.030 A 
HETATM   26  C   UNL     1       4.730  26.018  49.988  1.00  0.00     0.009 A 
HETATM   27  C   UNL     1       4.507  26.732  48.807  1.00  0.00    -0.062 A 
HETATM   28  C   UNL     1       3.996  26.040  47.579  1.00  0.00     0.048 C 
HETATM   29  C   UNL     1       4.728  28.112  48.800  1.00  0.00     0.009 A 
HETATM   30  C   UNL     1       5.172  28.764  49.955  1.00  0.00     0.030 A 
ENDBRANCH  22  24
ENDBRANCH  20  22
ENDBRANCH   1  20
TORSDOF 6
ENDMDL
MODEL 6
REMARK VINA RESULT:      -9.2      5.157      9.838
REMARK  6 active torsions:
REMARK  status: ('A' for Active; 'I' for Inactive)
REMARK    1  A    between atoms: C_5  and  N_6 
REMARK    2  A    between atoms: N_6  and  C_7 
REMARK    3  A    between atoms: C_7  and  N_8 
REMARK    4  A    between atoms: C_11  and  C_12 
REMARK    5  A    between atoms: N_14  and  C_15 
REMARK    6  A    between atoms: C_21  and  O_22 
ROOT
HETATM    1  N   UNL     1       5.889  26.352  51.940  1.00  0.00    -0.358 N 
HETATM    2  C   UNL     1       4.971  26.179  53.076  1.00  0.00     0.126 C 
HETATM    3  C   UNL     1       5.020  24.762  53.645  1.00  0.00     0.031 C 
HETATM    4  C   UNL     1       6.454  24.300  53.963  1.00  0.00     0.043 C 
HETATM    5  C   UNL     1       7.337  24.524  52.723  1.00  0.00     0.031 C 
HETATM    6  C   UNL     1       7.271  25.968  52.234  1.00  0.00     0.126 C 
ENDROOT
BRANCH   4   7
HETATM    7  C   UNL     1       7.050  24.909  55.211  1.00  0.00     0.063 C 
HETATM    8  N   UNL     1       7.003  26.225  55.443  1.00  0.00    -0.169 NA
HETATM    9  N   UNL     1       7.672  26.409  56.615  1.00  0.00    -0.211 N 
HETATM   10  C   UNL     1       7.958  25.185  57.221  1.00  0.00     0.165 C 
HETATM   11  C   UNL     1       7.634  24.221  56.298  1.00  0.00     0.087 C 
BRANCH   9  12
HETATM   12  C   UNL     1       7.977  27.725  57.065  1.00  0.00     0.061 A 
HETATM   13  C   UNL     1       6.966  28.498  57.656  1.00  0.00     0.031 A 
HETATM   14  C   UNL     1       7.247  29.784  58.123  1.00  0.00     0.002 A 
HETATM   15  C   UNL     1       8.528  30.314  57.984  1.00  0.00     0.000 A 
HETATM   16  C   UNL     1       9.528  29.566  57.365  1.00  0.00     0.002 A 
HETATM   17  C   UNL     1       9.256  28.275  56.903  1.00  0.00     0.031 A 
ENDBRANCH   9  12
BRANCH  10  18
HETATM   18  O   UNL     1       8.406  25.015  58.465  1.00  0.00    -0.345 OA
HETATM   19  H   UNL     1       8.890  24.170  58.508  1.00  0.00     0.219 HD
ENDBRANCH  10  18
ENDBRANCH   4   7
BRANCH   1  20
HETATM   20  C   UNL     1       5.621  27.395  51.063  1.00  0.00     0.174 C 
HETATM   21  S   UNL     1       5.495  29.014  51.500  1.00  0.00    -0.041 SA
BRANCH  20  22
HETATM   22  N   UNL     1       5.377  27.097  49.750  1.00  0.00    -0.333 N 
HETATM   23  H   UNL     1       6.125  26.560  49.325  1.00  0.00     0.168 HD
BRANCH  22  24
HETATM   24  C   UNL     1       4.193  27.185  48.986  1.00  0.00     0.034 A 
HETATM   25  C   UNL     1       3.122  28.023  49.299  1.00  0.00     0.030 A 
HETATM   26  C   UNL     1       1.972  28.039  48.503  1.00  0.00     0.009 A 
HETATM   27  C   UNL     1       1.862  27.193  47.396  1.00  0.00    -0.062 A 
HETATM   28  C   UNL     1       0.645  27.231  46.521  1.00  0.00     0.048 C 
HETATM   29  C   UNL     1       2.926  26.339  47.091  1.00  0.00     0.009 A 
HETATM   30  C   UNL     1       4.076  26.328  47.887  1.00  0.00     0.030 A 
ENDBRANCH  22  24
ENDBRANCH  20  22
ENDBRANCH   1  20
TORSDOF 6
ENDMDL
MODEL 7
REMARK VINA RESULT:      -9.1      2.472     10.056
REMARK  6 active torsions:
REMARK  status: ('A' for Active; 'I' for Inactive)
REMARK    1  A    between atoms: C_5  and  N_6 
REMARK    2  A    between atoms: N_6  and  C_7 
REMARK    3  A    between atoms: C_7  and  N_8 
REMARK    4  A    between atoms: C_11  and  C_12 
REMARK    5  A    between atoms: N_14  and  C_15 
REMARK    6  A    between atoms: C_21  and  O_22 
ROOT
HETATM    1  N   UNL     1       6.977  28.549  57.128  1.00  0.00    -0.358 N 
HETATM    2  C   UNL     1       8.353  28.493  57.642  1.00  0.00     0.126 C 
HETATM    3  C   UNL     1       9.077  29.830  57.498  1.00  0.00     0.031 C 
HETATM    4  C   UNL     1       8.272  31.006  58.081  1.00  0.00     0.043 C 
HETATM    5  C   UNL     1       6.851  30.979  57.492  1.00  0.00     0.031 C 
HETATM    6  C   UNL     1       6.174  29.629  57.707  1.00  0.00     0.126 C 
ENDROOT
BRANCH   4   7
HETATM    7  C   UNL     1       8.268  31.079  59.590  1.00  0.00     0.063 C 
HETATM    8  N   UNL     1       7.529  31.979  60.248  1.00  0.00    -0.169 NA
HETATM    9  N   UNL     1       7.813  31.785  61.566  1.00  0.00    -0.211 N 
HETATM   10  C   UNL     1       8.572  30.628  61.745  1.00  0.00     0.165 C 
HETATM   11  C   UNL     1       8.932  30.212  60.487  1.00  0.00     0.087 C 
BRANCH   9  12
HETATM   12  C   UNL     1       7.337  32.705  62.543  1.00  0.00     0.061 A 
HETATM   13  C   UNL     1       6.308  33.595  62.201  1.00  0.00     0.031 A 
HETATM   14  C   UNL     1       5.812  34.493  63.149  1.00  0.00     0.002 A 
HETATM   15  C   UNL     1       6.351  34.524  64.432  1.00  0.00     0.000 A 
HETATM   16  C   UNL     1       7.399  33.667  64.769  1.00  0.00     0.002 A 
HETATM   17  C   UNL     1       7.895  32.761  63.828  1.00  0.00     0.031 A 
ENDBRANCH   9  12
BRANCH  10  18
HETATM   18  O   UNL     1       8.834  30.038  62.912  1.00  0.00    -0.345 OA
HETATM   19  H   UNL     1       8.649  29.085  62.826  1.00  0.00     0.219 HD
ENDBRANCH  10  18
ENDBRANCH   4   7
BRANCH   1  20
HETATM   20  C   UNL     1       6.383  27.345  56.774  1.00  0.00     0.174 C 
HETATM   21  S   UNL     1       4.851  27.185  56.101  1.00  0.00    -0.041 SA
BRANCH  20  22
HETATM   22  N   UNL     1       7.055  26.183  57.043  1.00  0.00    -0.333 N 
HETATM   23  H   UNL     1       7.048  25.945  58.029  1.00  0.00     0.168 HD
BRANCH  22  24
HETATM   24  C   UNL     1       7.521  25.165  56.184  1.00  0.00     0.034 A 
HETATM   25  C   UNL     1       7.254  25.114  54.816  1.00  0.00     0.030 A 
HETATM   26  C   UNL     1       7.734  24.059  54.032  1.00  0.00     0.009 A 
HETATM   27  C   UNL     1       8.467  23.020  54.613  1.00  0.00    -0.062 A 
HETATM   28  C   UNL     1       9.012  21.904  53.772  1.00  0.00     0.048 C 
HETATM   29  C   UNL     1       8.721  23.058  55.987  1.00  0.00     0.009 A 
HETATM   30  C   UNL     1       8.242  24.116  56.766  1.00  0.00     0.030 A 
ENDBRANCH  22  24
ENDBRANCH  20  22
ENDBRANCH   1  20
TORSDOF 6
ENDMDL
MODEL 8
REMARK VINA RESULT:      -9.1      3.107     10.166
REMARK  6 active torsions:
REMARK  status: ('A' for Active; 'I' for Inactive)
REMARK    1  A    between atoms: C_5  and  N_6 
REMARK    2  A    between atoms: N_6  and  C_7 
REMARK    3  A    between atoms: C_7  and  N_8 
REMARK    4  A    between atoms: C_11  and  C_12 
REMARK    5  A    between atoms: N_14  and  C_15 
REMARK    6  A    between atoms: C_21  and  O_22 
ROOT
HETATM    1  N   UNL     1       5.991  27.620  56.161  1.00  0.00    -0.358 N 
HETATM    2  C   UNL     1       6.985  28.463  56.843  1.00  0.00     0.126 C 
HETATM    3  C   UNL     1       7.047  29.871  56.255  1.00  0.00     0.031 C 
HETATM    4  C   UNL     1       5.662  30.538  56.166  1.00  0.00     0.043 C 
HETATM    5  C   UNL     1       4.693  29.584  55.445  1.00  0.00     0.031 C 
HETATM    6  C   UNL     1       4.652  28.211  56.109  1.00  0.00     0.126 C 
ENDROOT
BRANCH   4   7
HETATM    7  C   UNL     1       5.112  31.026  57.487  1.00  0.00     0.063 C 
HETATM    8  N   UNL     1       5.822  31.824  58.291  1.00  0.00    -0.169 NA
HETATM    9  N   UNL     1       5.042  32.013  59.392  1.00  0.00    -0.211 N 
HETATM   10  C   UNL     1       3.760  31.501  59.185  1.00  0.00     0.165 C 
HETATM   11  C   UNL     1       3.817  30.804  58.004  1.00  0.00     0.087 C 
BRANCH   9  12
HETATM   12  C   UNL     1       5.572  32.666  60.541  1.00  0.00     0.061 A 
HETATM   13  C   UNL     1       4.968  33.848  60.996  1.00  0.00     0.031 A 
HETATM   14  C   UNL     1       5.459  34.495  62.132  1.00  0.00     0.002 A 
HETATM   15  C   UNL     1       6.564  33.982  62.806  1.00  0.00     0.000 A 
HETATM   16  C   UNL     1       7.192  32.828  62.339  1.00  0.00     0.002 A 
HETATM   17  C   UNL     1       6.701  32.171  61.207  1.00  0.00     0.031 A 
ENDBRANCH   9  12
BRANCH  10  18
HETATM   18  O   UNL     1       2.700  31.710  59.967  1.00  0.00    -0.345 OA
HETATM   19  H   UNL     1       1.896  31.492  59.463  1.00  0.00     0.219 HD
ENDBRANCH  10  18
ENDBRANCH   4   7
BRANCH   1  20
HETATM   20  C   UNL     1       6.149  26.244  56.266  1.00  0.00     0.174 C 
HETATM   21  S   UNL     1       5.105  25.214  57.088  1.00  0.00    -0.041 SA
BRANCH  20  22
HETATM   22  N   UNL     1       7.264  25.672  55.717  1.00  0.00    -0.333 N 
HETATM   23  H   UNL     1       8.117  26.166  55.957  1.00  0.00     0.168 HD
BRANCH  22  24
HETATM   24  C   UNL     1       7.453  24.412  55.108  1.00  0.00     0.034 A 
HETATM   25  C   UNL     1       7.704  23.234  55.812  1.00  0.00     0.030 A 
HETATM   26  C   UNL     1       7.900  22.026  55.135  1.00  0.00     0.009 A 
HETATM   27  C   UNL     1       7.878  21.982  53.738  1.00  0.00    -0.062 A 
HETATM   28  C   UNL     1       8.055  20.684  53.009  1.00  0.00     0.048 C 
HETATM   29  C   UNL     1       7.645  23.165  53.030  1.00  0.00     0.009 A 
HETATM   30  C   UNL     1       7.446  24.370  53.710  1.00  0.00     0.030 A 
ENDBRANCH  22  24
ENDBRANCH  20  22
ENDBRANCH   1  20
TORSDOF 6
ENDMDL
MODEL 9
REMARK VINA RESULT:      -9.1      2.234      2.963
REMARK  6 active torsions:
REMARK  status: ('A' for Active; 'I' for Inactive)
REMARK    1  A    between atoms: C_5  and  N_6 
REMARK    2  A    between atoms: N_6  and  C_7 
REMARK    3  A    between atoms: C_7  and  N_8 
REMARK    4  A    between atoms: C_11  and  C_12 
REMARK    5  A    between atoms: N_14  and  C_15 
REMARK    6  A    between atoms: C_21  and  O_22 
ROOT
HETATM    1  N   UNL     1       7.155  28.802  57.004  1.00  0.00    -0.358 N 
HETATM    2  C   UNL     1       7.015  27.404  57.439  1.00  0.00     0.126 C 
HETATM    3  C   UNL     1       5.711  26.777  56.948  1.00  0.00     0.031 C 
HETATM    4  C   UNL     1       5.503  26.952  55.433  1.00  0.00     0.043 C 
HETATM    5  C   UNL     1       5.674  28.438  55.073  1.00  0.00     0.031 C 
HETATM    6  C   UNL     1       7.013  28.987  55.558  1.00  0.00     0.126 C 
ENDROOT
BRANCH   4   7
HETATM    7  C   UNL     1       6.355  26.049  54.571  1.00  0.00     0.063 C 
HETATM    8  N   UNL     1       6.462  24.739  54.816  1.00  0.00    -0.169 NA
HETATM    9  N   UNL     1       7.337  24.268  53.885  1.00  0.00    -0.211 N 
HETATM   10  C   UNL     1       7.618  25.245  52.929  1.00  0.00     0.165 C 
HETATM   11  C   UNL     1       7.057  26.407  53.399  1.00  0.00     0.087 C 
BRANCH   9  12
HETATM   12  C   UNL     1       7.826  22.933  53.974  1.00  0.00     0.061 A 
HETATM   13  C   UNL     1       7.613  22.052  52.903  1.00  0.00     0.031 A 
HETATM   14  C   UNL     1       8.101  20.746  52.960  1.00  0.00     0.002 A 
HETATM   15  C   UNL     1       8.785  20.304  54.091  1.00  0.00     0.000 A 
HETATM   16  C   UNL     1       8.969  21.162  55.174  1.00  0.00     0.002 A 
HETATM   17  C   UNL     1       8.489  22.474  55.120  1.00  0.00     0.031 A 
ENDBRANCH   9  12
BRANCH  10  18
HETATM   18  O   UNL     1       8.257  25.048  51.775  1.00  0.00    -0.345 OA
HETATM   19  H   UNL     1       9.214  25.138  51.932  1.00  0.00     0.219 HD
ENDBRANCH  10  18
ENDBRANCH   4   7
BRANCH   1  20
HETATM   20  C   UNL     1       8.019  29.608  57.733  1.00  0.00     0.174 C 
HETATM   21  S   UNL     1       9.666  29.775  57.435  1.00  0.00    -0.041 SA
BRANCH  20  22
HETATM   22  N   UNL     1       7.525  30.278  58.819  1.00  0.00    -0.333 N 
HETATM   23  H   UNL     1       8.054  30.097  59.666  1.00  0.00     0.168 HD
BRANCH  22  24
HETATM   24  C   UNL     1       6.597  31.338  58.907  1.00  0.00     0.034 A 
HETATM   25  C   UNL     1       5.829  31.795  57.836  1.00  0.00     0.030 A 
HETATM   26  C   UNL     1       4.944  32.866  57.997  1.00  0.00     0.009 A 
HETATM   27  C   UNL     1       4.834  33.518  59.229  1.00  0.00    -0.062 A 
HETATM   28  C   UNL     1       3.863  34.645  59.415  1.00  0.00     0.048 C 
HETATM   29  C   UNL     1       5.616  33.074  60.299  1.00  0.00     0.009 A 
HETATM   30  C   UNL     1       6.497  32.000  60.136  1.00  0.00     0.030 A 
ENDBRANCH  22  24
ENDBRANCH  20  22
ENDBRANCH   1  20
TORSDOF 6
ENDMDL
MODEL 10
REMARK VINA RESULT:      -8.9      3.176     10.086
REMARK  6 active torsions:
REMARK  status: ('A' for Active; 'I' for Inactive)
REMARK    1  A    between atoms: C_5  and  N_6 
REMARK    2  A    between atoms: N_6  and  C_7 
REMARK    3  A    between atoms: C_7  and  N_8 
REMARK    4  A    between atoms: C_11  and  C_12 
REMARK    5  A    between atoms: N_14  and  C_15 
REMARK    6  A    between atoms: C_21  and  O_22 
ROOT
HETATM    1  N   UNL     1       5.846  29.359  56.804  1.00  0.00    -0.358 N 
HETATM    2  C   UNL     1       6.598  30.558  57.206  1.00  0.00     0.126 C 
HETATM    3  C   UNL     1       5.806  31.842  56.968  1.00  0.00     0.031 C 
HETATM    4  C   UNL     1       4.396  31.790  57.584  1.00  0.00     0.043 C 
HETATM    5  C   UNL     1       3.691  30.505  57.114  1.00  0.00     0.031 C 
HETATM    6  C   UNL     1       4.521  29.261  57.418  1.00  0.00     0.126 C 
ENDROOT
BRANCH   4   7
HETATM    7  C   UNL     1       4.359  31.949  59.087  1.00  0.00     0.063 C 
HETATM    8  N   UNL     1       5.406  32.423  59.769  1.00  0.00    -0.169 NA
HETATM    9  N   UNL     1       5.033  32.379  61.079  1.00  0.00    -0.211 N 
HETATM   10  C   UNL     1       3.678  32.070  61.199  1.00  0.00     0.165 C 
HETATM   11  C   UNL     1       3.256  31.720  59.940  1.00  0.00     0.087 C 
BRANCH   9  12
HETATM   12  C   UNL     1       5.989  32.638  62.103  1.00  0.00     0.061 A 
HETATM   13  C   UNL     1       5.752  33.681  63.012  1.00  0.00     0.031 A 
HETATM   14  C   UNL     1       6.665  33.940  64.036  1.00  0.00     0.002 A 
HETATM   15  C   UNL     1       7.825  33.178  64.148  1.00  0.00     0.000 A 
HETATM   16  C   UNL     1       8.085  32.164  63.228  1.00  0.00     0.002 A 
HETATM   17  C   UNL     1       7.172  31.894  62.204  1.00  0.00     0.031 A 
ENDBRANCH   9  12
BRANCH  10  18
HETATM   18  O   UNL     1       2.953  32.158  62.314  1.00  0.00    -0.345 OA
HETATM   19  H   UNL     1       3.353  32.833  62.892  1.00  0.00     0.219 HD
ENDBRANCH  10  18
ENDBRANCH   4   7
BRANCH   1  20
HETATM   20  C   UNL     1       6.581  28.213  56.532  1.00  0.00     0.174 C 
HETATM   21  S   UNL     1       8.158  27.933  57.043  1.00  0.00    -0.041 SA
BRANCH  20  22
HETATM   22  N   UNL     1       6.018  27.251  55.736  1.00  0.00    -0.333 N 
HETATM   23  H   UNL     1       5.065  27.474  55.467  1.00  0.00     0.168 HD
BRANCH  22  24
HETATM   24  C   UNL     1       6.599  26.168  55.043  1.00  0.00     0.034 A 
HETATM   25  C   UNL     1       7.297  26.294  53.842  1.00  0.00     0.030 A 
HETATM   26  C   UNL     1       7.829  25.169  53.203  1.00  0.00     0.009 A 
HETATM   27  C   UNL     1       7.643  23.892  53.742  1.00  0.00    -0.062 A 
HETATM   28  C   UNL     1       8.238  22.687  53.078  1.00  0.00     0.048 C 
HETATM   29  C   UNL     1       6.928  23.761  54.935  1.00  0.00     0.009 A 
HETATM   30  C   UNL     1       6.401  24.889  55.574  1.00  0.00     0.030 A 
ENDBRANCH  22  24
ENDBRANCH  20  22
ENDBRANCH   1  20
TORSDOF 6
ENDMDL
