MODEL 1
REMARK VINA RESULT:      -9.5      0.000      0.000
REMARK  5 active torsions:
REMARK  status: ('A' for Active; 'I' for Inactive)
REMARK    1  A    between atoms: C_6  and  O_7 
REMARK    2  A    between atoms: O_7  and  C_8 
REMARK    3  A    between atoms: C_8  and  C_9 
REMARK       I    between atoms: C_9  and  N_10 
REMARK    4  A    between atoms: N_10  and  N_11 
REMARK    5  A    between atoms: C_12  and  C_13 
ROOT
HETATM    1  C   UNL     1       6.054  26.875  56.416  1.00  0.00     0.261 C 
HETATM    2  N   UNL     1       7.132  27.684  56.733  1.00  0.00    -0.246 N 
HETATM    3  O   UNL     1       4.960  26.902  56.980  1.00  0.00    -0.269 OA
HETATM    4  H   UNL     1       8.014  27.575  56.240  1.00  0.00     0.192 HD
ENDROOT
BRANCH   2   5
HETATM    5  N   UNL     1       6.973  28.620  57.707  1.00  0.00    -0.184 NA
HETATM    6  C   UNL     1       7.191  29.855  57.401  1.00  0.00     0.152 C 
BRANCH   6   7
HETATM    7  C   UNL     1       6.997  30.867  58.423  1.00  0.00     0.011 A 
HETATM    8  C   UNL     1       7.745  31.089  59.630  1.00  0.00     0.004 A 
HETATM    9  C   UNL     1       7.161  32.169  60.294  1.00  0.00     0.043 A 
HETATM   10  C   UNL     1       8.866  30.470  60.226  1.00  0.00     0.014 A 
HETATM   11  C   UNL     1       7.637  32.656  61.518  1.00  0.00     0.030 A 
HETATM   12  N   UNL     1       6.105  32.593  59.522  1.00  0.00    -0.364 N 
HETATM   13  C   UNL     1       8.748  32.023  62.084  1.00  0.00     0.002 A 
HETATM   14  C   UNL     1       9.356  30.944  61.448  1.00  0.00     0.001 A 
HETATM   15  H   UNL     1       5.498  33.365  59.765  1.00  0.00     0.165 HD
HETATM   16  C   UNL     1       5.996  31.821  58.395  1.00  0.00     0.102 A 
ENDBRANCH   6   7
ENDBRANCH   2   5
BRANCH   1  17
HETATM   17  C   UNL     1       6.286  25.958  55.222  1.00  0.00     0.280 C 
BRANCH  17  18
HETATM   18  O   UNL     1       7.653  25.859  54.815  1.00  0.00    -0.340 OA
BRANCH  18  19
HETATM   19  C   UNL     1       7.920  24.576  54.395  1.00  0.00     0.092 A 
HETATM   20  C   UNL     1       8.373  23.633  55.328  1.00  0.00     0.045 A 
HETATM   21  C   UNL     1       8.576  22.305  54.946  1.00  0.00     0.028 A 
HETATM   22 BR   UNL     1       8.689  24.108  57.138  1.00  0.00    -0.048 Br
HETATM   23  C   UNL     1       8.350  21.910  53.624  1.00  0.00    -0.060 A 
HETATM   24  C   UNL     1       8.486  20.471  53.219  1.00  0.00     0.048 C 
HETATM   25  C   UNL     1       7.933  22.866  52.687  1.00  0.00     0.016 A 
HETATM   26  C   UNL     1       7.745  24.210  53.050  1.00  0.00    -0.027 A 
HETATM   27  C   UNL     1       7.308  25.191  51.999  1.00  0.00     0.051 C 
ENDBRANCH  18  19
ENDBRANCH  17  18
ENDBRANCH   1  17
TORSDOF 5
ENDMDL
MODEL 2
REMARK VINA RESULT:      -9.0      1.881      2.801
REMARK  5 active torsions:
REMARK  status: ('A' for Active; 'I' for Inactive)
REMARK    1  A    between atoms: C_6  and  O_7 
REMARK    2  A    between atoms: O_7  and  C_8 
REMARK    3  A    between atoms: C_8  and  C_9 
REMARK       I    between atoms: C_9  and  N_10 
REMARK    4  A    between atoms: N_10  and  N_11 
REMARK    5  A    between atoms: C_12  and  C_13 
ROOT
HETATM    1  C   UNL     1       7.872  26.617  57.351  1.00  0.00     0.261 C 
HETATM    2  N   UNL     1       7.920  27.999  57.268  1.00  0.00    -0.246 N 
HETATM    3  O   UNL     1       7.924  25.969  58.397  1.00  0.00    -0.269 OA
HETATM    4  H   UNL     1       7.905  28.457  56.361  1.00  0.00     0.192 HD
ENDROOT
BRANCH   2   5
HETATM    5  N   UNL     1       7.978  28.714  58.424  1.00  0.00    -0.184 NA
HETATM    6  C   UNL     1       8.177  29.986  58.339  1.00  0.00     0.152 C 
BRANCH   6   7
HETATM    7  C   UNL     1       8.213  30.765  59.563  1.00  0.00     0.011 A 
HETATM    8  C   UNL     1       7.253  31.714  60.060  1.00  0.00     0.004 A 
HETATM    9  C   UNL     1       7.745  32.214  61.267  1.00  0.00     0.043 A 
HETATM   10  C   UNL     1       6.010  32.198  59.597  1.00  0.00     0.014 A 
HETATM   11  C   UNL     1       7.060  33.172  62.027  1.00  0.00     0.030 A 
HETATM   12  N   UNL     1       8.950  31.594  61.501  1.00  0.00    -0.364 N 
HETATM   13  C   UNL     1       5.833  33.633  61.542  1.00  0.00     0.002 A 
HETATM   14  C   UNL     1       5.312  33.154  60.343  1.00  0.00     0.001 A 
HETATM   15  H   UNL     1       9.532  31.770  62.309  1.00  0.00     0.165 HD
HETATM   16  C   UNL     1       9.242  30.721  60.486  1.00  0.00     0.102 A 
ENDBRANCH   6   7
ENDBRANCH   2   5
BRANCH   1  17
HETATM   17  C   UNL     1       7.666  25.914  56.015  1.00  0.00     0.280 C 
BRANCH  17  18
HETATM   18  O   UNL     1       6.690  24.870  56.047  1.00  0.00    -0.340 OA
BRANCH  18  19
HETATM   19  C   UNL     1       7.113  23.817  55.267  1.00  0.00     0.092 A 
HETATM   20  C   UNL     1       6.740  23.774  53.917  1.00  0.00     0.045 A 
HETATM   21  C   UNL     1       7.219  22.760  53.085  1.00  0.00     0.028 A 
HETATM   22 BR   UNL     1       5.609  25.099  53.162  1.00  0.00    -0.048 Br
HETATM   23  C   UNL     1       8.060  21.767  53.598  1.00  0.00    -0.060 A 
HETATM   24  C   UNL     1       8.647  20.718  52.698  1.00  0.00     0.048 C 
HETATM   25  C   UNL     1       8.399  21.794  54.958  1.00  0.00     0.016 A 
HETATM   26  C   UNL     1       7.908  22.795  55.812  1.00  0.00    -0.027 A 
HETATM   27  C   UNL     1       8.298  22.765  57.263  1.00  0.00     0.051 C 
ENDBRANCH  18  19
ENDBRANCH  17  18
ENDBRANCH   1  17
TORSDOF 5
ENDMDL
MODEL 3
REMARK VINA RESULT:      -8.9      2.915      9.741
REMARK  5 active torsions:
REMARK  status: ('A' for Active; 'I' for Inactive)
REMARK    1  A    between atoms: C_6  and  O_7 
REMARK    2  A    between atoms: O_7  and  C_8 
REMARK    3  A    between atoms: C_8  and  C_9 
REMARK       I    between atoms: C_9  and  N_10 
REMARK    4  A    between atoms: N_10  and  N_11 
REMARK    5  A    between atoms: C_12  and  C_13 
ROOT
HETATM    1  C   UNL     1       7.441  29.625  57.755  1.00  0.00     0.261 C 
HETATM    2  N   UNL     1       6.964  28.337  57.933  1.00  0.00    -0.246 N 
HETATM    3  O   UNL     1       8.434  29.926  57.091  1.00  0.00    -0.269 OA
HETATM    4  H   UNL     1       6.156  28.170  58.526  1.00  0.00     0.192 HD
ENDROOT
BRANCH   2   5
HETATM    5  N   UNL     1       7.599  27.318  57.294  1.00  0.00    -0.184 NA
HETATM    6  C   UNL     1       7.059  26.147  57.337  1.00  0.00     0.152 C 
BRANCH   6   7
HETATM    7  C   UNL     1       7.711  25.057  56.635  1.00  0.00     0.011 A 
HETATM    8  C   UNL     1       7.507  24.598  55.288  1.00  0.00     0.004 A 
HETATM    9  C   UNL     1       8.356  23.508  55.082  1.00  0.00     0.043 A 
HETATM   10  C   UNL     1       6.676  25.003  54.220  1.00  0.00     0.014 A 
HETATM   11  C   UNL     1       8.412  22.808  53.870  1.00  0.00     0.030 A 
HETATM   12  N   UNL     1       9.053  23.314  56.251  1.00  0.00    -0.364 N 
HETATM   13  C   UNL     1       7.577  23.232  52.832  1.00  0.00     0.002 A 
HETATM   14  C   UNL     1       6.720  24.316  53.003  1.00  0.00     0.001 A 
HETATM   15  H   UNL     1       9.741  22.586  56.388  1.00  0.00     0.165 HD
HETATM   16  C   UNL     1       8.677  24.238  57.191  1.00  0.00     0.102 A 
ENDBRANCH   6   7
ENDBRANCH   2   5
BRANCH   1  17
HETATM   17  C   UNL     1       6.582  30.708  58.395  1.00  0.00     0.280 C 
BRANCH  17  18
HETATM   18  O   UNL     1       7.240  31.969  58.541  1.00  0.00    -0.340 OA
BRANCH  18  19
HETATM   19  C   UNL     1       7.386  32.263  59.878  1.00  0.00     0.092 A 
HETATM   20  C   UNL     1       6.274  32.711  60.604  1.00  0.00     0.045 A 
HETATM   21  C   UNL     1       6.376  32.942  61.978  1.00  0.00     0.028 A 
HETATM   22 BR   UNL     1       4.593  32.986  59.766  1.00  0.00    -0.048 Br
HETATM   23  C   UNL     1       7.594  32.746  62.637  1.00  0.00    -0.060 A 
HETATM   24  C   UNL     1       7.696  32.911  64.125  1.00  0.00     0.048 C 
HETATM   25  C   UNL     1       8.711  32.333  61.898  1.00  0.00     0.016 A 
HETATM   26  C   UNL     1       8.631  32.118  60.512  1.00  0.00    -0.027 A 
HETATM   27  C   UNL     1       9.866  31.687  59.773  1.00  0.00     0.051 C 
ENDBRANCH  18  19
ENDBRANCH  17  18
ENDBRANCH   1  17
TORSDOF 5
ENDMDL
MODEL 4
REMARK VINA RESULT:      -8.9      2.649      9.661
REMARK  5 active torsions:
REMARK  status: ('A' for Active; 'I' for Inactive)
REMARK    1  A    between atoms: C_6  and  O_7 
REMARK    2  A    between atoms: O_7  and  C_8 
REMARK    3  A    between atoms: C_8  and  C_9 
REMARK       I    between atoms: C_9  and  N_10 
REMARK    4  A    between atoms: N_10  and  N_11 
REMARK    5  A    between atoms: C_12  and  C_13 
ROOT
HETATM    1  C   UNL     1       7.338  28.600  56.613  1.00  0.00     0.261 C 
HETATM    2  N   UNL     1       7.171  27.239  56.814  1.00  0.00    -0.246 N 
HETATM    3  O   UNL     1       7.875  29.108  55.628  1.00  0.00    -0.269 OA
HETATM    4  H   UNL     1       6.746  26.899  57.672  1.00  0.00     0.192 HD
ENDROOT
BRANCH   2   5
HETATM    5  N   UNL     1       7.583  26.386  55.838  1.00  0.00    -0.184 NA
HETATM    6  C   UNL     1       6.852  25.351  55.592  1.00  0.00     0.152 C 
BRANCH   6   7
HETATM    7  C   UNL     1       7.265  24.448  54.533  1.00  0.00     0.011 A 
HETATM    8  C   UNL     1       7.551  23.041  54.604  1.00  0.00     0.004 A 
HETATM    9  C   UNL     1       7.926  22.624  53.326  1.00  0.00     0.043 A 
HETATM   10  C   UNL     1       7.529  22.079  55.638  1.00  0.00     0.014 A 
HETATM   11  C   UNL     1       8.282  21.301  53.033  1.00  0.00     0.030 A 
HETATM   12  N   UNL     1       7.866  23.727  52.508  1.00  0.00    -0.364 N 
HETATM   13  C   UNL     1       8.251  20.371  54.077  1.00  0.00     0.002 A 
HETATM   14  C   UNL     1       7.880  20.752  55.363  1.00  0.00     0.001 A 
HETATM   15  H   UNL     1       8.090  23.716  51.521  1.00  0.00     0.165 HD
HETATM   16  C   UNL     1       7.469  24.829  53.219  1.00  0.00     0.102 A 
ENDBRANCH   6   7
ENDBRANCH   2   5
BRANCH   1  17
HETATM   17  C   UNL     1       6.720  29.475  57.695  1.00  0.00     0.280 C 
BRANCH  17  18
HETATM   18  O   UNL     1       7.088  30.855  57.614  1.00  0.00    -0.340 OA
BRANCH  18  19
HETATM   19  C   UNL     1       7.422  31.320  58.867  1.00  0.00     0.092 A 
HETATM   20  C   UNL     1       6.427  31.895  59.669  1.00  0.00     0.045 A 
HETATM   21  C   UNL     1       6.721  32.303  60.972  1.00  0.00     0.028 A 
HETATM   22 BR   UNL     1       4.650  32.108  59.038  1.00  0.00    -0.048 Br
HETATM   23  C   UNL     1       8.017  32.159  61.479  1.00  0.00    -0.060 A 
HETATM   24  C   UNL     1       8.327  32.518  62.904  1.00  0.00     0.048 C 
HETATM   25  C   UNL     1       9.016  31.617  60.659  1.00  0.00     0.016 A 
HETATM   26  C   UNL     1       8.741  31.222  59.339  1.00  0.00    -0.027 A 
HETATM   27  C   UNL     1       9.856  30.658  58.504  1.00  0.00     0.051 C 
ENDBRANCH  18  19
ENDBRANCH  17  18
ENDBRANCH   1  17
TORSDOF 5
ENDMDL
MODEL 5
REMARK VINA RESULT:      -8.8      5.067      8.319
REMARK  5 active torsions:
REMARK  status: ('A' for Active; 'I' for Inactive)
REMARK    1  A    between atoms: C_6  and  O_7 
REMARK    2  A    between atoms: O_7  and  C_8 
REMARK    3  A    between atoms: C_8  and  C_9 
REMARK       I    between atoms: C_9  and  N_10 
REMARK    4  A    between atoms: N_10  and  N_11 
REMARK    5  A    between atoms: C_12  and  C_13 
ROOT
HETATM    1  C   UNL     1       5.311  26.161  54.007  1.00  0.00     0.261 C 
HETATM    2  N   UNL     1       5.336  27.420  53.430  1.00  0.00    -0.246 N 
HETATM    3  O   UNL     1       4.576  25.237  53.656  1.00  0.00    -0.269 OA
HETATM    4  H   UNL     1       5.950  28.139  53.802  1.00  0.00     0.192 HD
ENDROOT
BRANCH   2   5
HETATM    5  N   UNL     1       4.529  27.657  52.361  1.00  0.00    -0.184 NA
HETATM    6  C   UNL     1       5.074  28.101  51.278  1.00  0.00     0.152 C 
BRANCH   6   7
HETATM    7  C   UNL     1       4.229  28.331  50.121  1.00  0.00     0.011 A 
HETATM    8  C   UNL     1       3.750  27.386  49.149  1.00  0.00     0.004 A 
HETATM    9  C   UNL     1       2.989  28.094  48.216  1.00  0.00     0.043 A 
HETATM   10  C   UNL     1       3.894  25.993  48.969  1.00  0.00     0.014 A 
HETATM   11  C   UNL     1       2.370  27.480  47.119  1.00  0.00     0.030 A 
HETATM   12  N   UNL     1       2.997  29.412  48.605  1.00  0.00    -0.364 N 
HETATM   13  C   UNL     1       2.531  26.100  46.967  1.00  0.00     0.002 A 
HETATM   14  C   UNL     1       3.282  25.364  47.879  1.00  0.00     0.001 A 
HETATM   15  H   UNL     1       2.524  30.155  48.107  1.00  0.00     0.165 HD
HETATM   16  C   UNL     1       3.737  29.569  49.748  1.00  0.00     0.102 A 
ENDBRANCH   6   7
ENDBRANCH   2   5
BRANCH   1  17
HETATM   17  C   UNL     1       6.347  25.951  55.103  1.00  0.00     0.280 C 
BRANCH  17  18
HETATM   18  O   UNL     1       7.692  25.846  54.627  1.00  0.00    -0.340 OA
BRANCH  18  19
HETATM   19  C   UNL     1       7.971  24.535  54.313  1.00  0.00     0.092 A 
HETATM   20  C   UNL     1       8.334  23.651  55.338  1.00  0.00     0.045 A 
HETATM   21  C   UNL     1       8.547  22.298  55.059  1.00  0.00     0.028 A 
HETATM   22 BR   UNL     1       8.514  24.240  57.133  1.00  0.00    -0.048 Br
HETATM   23  C   UNL     1       8.419  21.820  53.751  1.00  0.00    -0.060 A 
HETATM   24  C   UNL     1       8.564  20.356  53.452  1.00  0.00     0.048 C 
HETATM   25  C   UNL     1       8.092  22.717  52.725  1.00  0.00     0.016 A 
HETATM   26  C   UNL     1       7.896  24.084  52.985  1.00  0.00    -0.027 A 
HETATM   27  C   UNL     1       7.559  24.999  51.841  1.00  0.00     0.051 C 
ENDBRANCH  18  19
ENDBRANCH  17  18
ENDBRANCH   1  17
TORSDOF 5
ENDMDL
MODEL 6
REMARK VINA RESULT:      -8.7      2.134      9.159
REMARK  5 active torsions:
REMARK  status: ('A' for Active; 'I' for Inactive)
REMARK    1  A    between atoms: C_6  and  O_7 
REMARK    2  A    between atoms: O_7  and  C_8 
REMARK    3  A    between atoms: C_8  and  C_9 
REMARK       I    between atoms: C_9  and  N_10 
REMARK    4  A    between atoms: N_10  and  N_11 
REMARK    5  A    between atoms: C_12  and  C_13 
ROOT
HETATM    1  C   UNL     1       5.708  28.078  56.234  1.00  0.00     0.261 C 
HETATM    2  N   UNL     1       6.551  27.025  56.551  1.00  0.00    -0.246 N 
HETATM    3  O   UNL     1       4.965  28.117  55.253  1.00  0.00    -0.269 OA
HETATM    4  H   UNL     1       7.160  27.086  57.363  1.00  0.00     0.192 HD
ENDROOT
BRANCH   2   5
HETATM    5  N   UNL     1       6.534  25.921  55.757  1.00  0.00    -0.184 NA
HETATM    6  C   UNL     1       7.648  25.299  55.561  1.00  0.00     0.152 C 
BRANCH   6   7
HETATM    7  C   UNL     1       7.638  24.103  54.739  1.00  0.00     0.011 A 
HETATM    8  C   UNL     1       7.951  22.749  55.108  1.00  0.00     0.004 A 
HETATM    9  C   UNL     1       7.817  21.960  53.964  1.00  0.00     0.043 A 
HETATM   10  C   UNL     1       8.341  22.117  56.309  1.00  0.00     0.014 A 
HETATM   11  C   UNL     1       8.053  20.580  53.961  1.00  0.00     0.030 A 
HETATM   12  N   UNL     1       7.432  22.795  52.941  1.00  0.00    -0.364 N 
HETATM   13  C   UNL     1       8.438  19.982  55.165  1.00  0.00     0.002 A 
HETATM   14  C   UNL     1       8.580  20.738  56.325  1.00  0.00     0.001 A 
HETATM   15  H   UNL     1       7.263  22.490  51.992  1.00  0.00     0.165 HD
HETATM   16  C   UNL     1       7.320  24.084  53.393  1.00  0.00     0.102 A 
ENDBRANCH   6   7
ENDBRANCH   2   5
BRANCH   1  17
HETATM   17  C   UNL     1       5.698  29.205  57.258  1.00  0.00     0.280 C 
BRANCH  17  18
HETATM   18  O   UNL     1       6.576  30.289  56.947  1.00  0.00    -0.340 OA
BRANCH  18  19
HETATM   19  C   UNL     1       7.275  30.658  58.074  1.00  0.00     0.092 A 
HETATM   20  C   UNL     1       8.583  30.188  58.250  1.00  0.00     0.045 A 
HETATM   21  C   UNL     1       9.342  30.609  59.345  1.00  0.00     0.028 A 
HETATM   22 BR   UNL     1       9.382  29.001  57.003  1.00  0.00    -0.048 Br
HETATM   23  C   UNL     1       8.795  31.488  60.284  1.00  0.00    -0.060 A 
HETATM   24  C   UNL     1       9.626  32.012  61.420  1.00  0.00     0.048 C 
HETATM   25  C   UNL     1       7.473  31.926  60.122  1.00  0.00     0.016 A 
HETATM   26  C   UNL     1       6.689  31.495  59.039  1.00  0.00    -0.027 A 
HETATM   27  C   UNL     1       5.275  31.989  58.925  1.00  0.00     0.051 C 
ENDBRANCH  18  19
ENDBRANCH  17  18
ENDBRANCH   1  17
TORSDOF 5
ENDMDL
MODEL 7
REMARK VINA RESULT:      -8.6      6.102      9.452
REMARK  5 active torsions:
REMARK  status: ('A' for Active; 'I' for Inactive)
REMARK    1  A    between atoms: C_6  and  O_7 
REMARK    2  A    between atoms: O_7  and  C_8 
REMARK    3  A    between atoms: C_8  and  C_9 
REMARK       I    between atoms: C_9  and  N_10 
REMARK    4  A    between atoms: N_10  and  N_11 
REMARK    5  A    between atoms: C_12  and  C_13 
ROOT
HETATM    1  C   UNL     1       4.992  26.630  51.269  1.00  0.00     0.261 C 
HETATM    2  N   UNL     1       4.607  26.491  52.592  1.00  0.00    -0.246 N 
HETATM    3  O   UNL     1       5.814  25.915  50.693  1.00  0.00    -0.269 OA
HETATM    4  H   UNL     1       3.946  27.145  53.003  1.00  0.00     0.192 HD
ENDROOT
BRANCH   2   5
HETATM    5  N   UNL     1       5.129  25.463  53.313  1.00  0.00    -0.184 NA
HETATM    6  C   UNL     1       6.205  25.684  53.991  1.00  0.00     0.152 C 
BRANCH   6   7
HETATM    7  C   UNL     1       6.756  24.603  54.788  1.00  0.00     0.011 A 
HETATM    8  C   UNL     1       7.275  23.334  54.355  1.00  0.00     0.004 A 
HETATM    9  C   UNL     1       7.669  22.631  55.496  1.00  0.00     0.043 A 
HETATM   10  C   UNL     1       7.444  22.711  53.099  1.00  0.00     0.014 A 
HETATM   11  C   UNL     1       8.219  21.343  55.441  1.00  0.00     0.030 A 
HETATM   12  N   UNL     1       7.409  23.438  56.577  1.00  0.00    -0.364 N 
HETATM   13  C   UNL     1       8.374  20.753  54.184  1.00  0.00     0.002 A 
HETATM   14  C   UNL     1       7.993  21.426  53.027  1.00  0.00     0.001 A 
HETATM   15  H   UNL     1       7.595  23.180  57.537  1.00  0.00     0.165 HD
HETATM   16  C   UNL     1       6.862  24.626  56.167  1.00  0.00     0.102 A 
ENDBRANCH   6   7
ENDBRANCH   2   5
BRANCH   1  17
HETATM   17  C   UNL     1       4.249  27.721  50.509  1.00  0.00     0.280 C 
BRANCH  17  18
HETATM   18  O   UNL     1       4.500  27.730  49.102  1.00  0.00    -0.340 OA
BRANCH  18  19
HETATM   19  C   UNL     1       3.305  27.761  48.418  1.00  0.00     0.092 A 
HETATM   20  C   UNL     1       2.698  28.998  48.161  1.00  0.00     0.045 A 
HETATM   21  C   UNL     1       1.526  29.064  47.403  1.00  0.00     0.028 A 
HETATM   22 BR   UNL     1       3.453  30.620  48.795  1.00  0.00    -0.048 Br
HETATM   23  C   UNL     1       0.939  27.894  46.912  1.00  0.00    -0.060 A 
HETATM   24  C   UNL     1      -0.273  27.957  46.028  1.00  0.00     0.048 C 
HETATM   25  C   UNL     1       1.531  26.657  47.203  1.00  0.00     0.016 A 
HETATM   26  C   UNL     1       2.697  26.572  47.983  1.00  0.00    -0.027 A 
HETATM   27  C   UNL     1       3.278  25.217  48.272  1.00  0.00     0.051 C 
ENDBRANCH  18  19
ENDBRANCH  17  18
ENDBRANCH   1  17
TORSDOF 5
ENDMDL
MODEL 8
REMARK VINA RESULT:      -8.6      3.020      9.746
REMARK  5 active torsions:
REMARK  status: ('A' for Active; 'I' for Inactive)
REMARK    1  A    between atoms: C_6  and  O_7 
REMARK    2  A    between atoms: O_7  and  C_8 
REMARK    3  A    between atoms: C_8  and  C_9 
REMARK       I    between atoms: C_9  and  N_10 
REMARK    4  A    between atoms: N_10  and  N_11 
REMARK    5  A    between atoms: C_12  and  C_13 
ROOT
HETATM    1  C   UNL     1       8.727  30.242  57.998  1.00  0.00     0.261 C 
HETATM    2  N   UNL     1       7.814  29.208  57.879  1.00  0.00    -0.246 N 
HETATM    3  O   UNL     1       9.779  30.333  57.365  1.00  0.00    -0.269 OA
HETATM    4  H   UNL     1       6.984  29.190  58.465  1.00  0.00     0.192 HD
ENDROOT
BRANCH   2   5
HETATM    5  N   UNL     1       8.056  28.234  56.961  1.00  0.00    -0.184 NA
HETATM    6  C   UNL     1       7.052  27.553  56.522  1.00  0.00     0.152 C 
BRANCH   6   7
HETATM    7  C   UNL     1       7.293  26.530  55.521  1.00  0.00     0.011 A 
HETATM    8  C   UNL     1       7.705  25.165  55.703  1.00  0.00     0.004 A 
HETATM    9  C   UNL     1       7.821  24.589  54.437  1.00  0.00     0.043 A 
HETATM   10  C   UNL     1       7.995  24.361  56.828  1.00  0.00     0.014 A 
HETATM   11  C   UNL     1       8.212  23.258  54.241  1.00  0.00     0.030 A 
HETATM   12  N   UNL     1       7.488  25.558  53.521  1.00  0.00    -0.364 N 
HETATM   13  C   UNL     1       8.493  22.487  55.373  1.00  0.00     0.002 A 
HETATM   14  C   UNL     1       8.386  23.029  56.651  1.00  0.00     0.001 A 
HETATM   15  H   UNL     1       7.488  25.417  52.519  1.00  0.00     0.165 HD
HETATM   16  C   UNL     1       7.168  26.729  54.158  1.00  0.00     0.102 A 
ENDBRANCH   6   7
ENDBRANCH   2   5
BRANCH   1  17
HETATM   17  C   UNL     1       8.299  31.353  58.949  1.00  0.00     0.280 C 
BRANCH  17  18
HETATM   18  O   UNL     1       7.224  30.996  59.821  1.00  0.00    -0.340 OA
BRANCH  18  19
HETATM   19  C   UNL     1       7.320  31.713  60.993  1.00  0.00     0.092 A 
HETATM   20  C   UNL     1       6.398  32.738  61.243  1.00  0.00     0.045 A 
HETATM   21  C   UNL     1       6.424  33.429  62.457  1.00  0.00     0.028 A 
HETATM   22 BR   UNL     1       5.068  33.202  59.971  1.00  0.00    -0.048 Br
HETATM   23  C   UNL     1       7.384  33.115  63.425  1.00  0.00    -0.060 A 
HETATM   24  C   UNL     1       7.372  33.792  64.765  1.00  0.00     0.048 C 
HETATM   25  C   UNL     1       8.326  32.113  63.154  1.00  0.00     0.016 A 
HETATM   26  C   UNL     1       8.327  31.425  61.929  1.00  0.00    -0.027 A 
HETATM   27  C   UNL     1       9.369  30.369  61.692  1.00  0.00     0.051 C 
ENDBRANCH  18  19
ENDBRANCH  17  18
ENDBRANCH   1  17
TORSDOF 5
ENDMDL
MODEL 9
REMARK VINA RESULT:      -8.5      2.277      3.369
REMARK  5 active torsions:
REMARK  status: ('A' for Active; 'I' for Inactive)
REMARK    1  A    between atoms: C_6  and  O_7 
REMARK    2  A    between atoms: O_7  and  C_8 
REMARK    3  A    between atoms: C_8  and  C_9 
REMARK       I    between atoms: C_9  and  N_10 
REMARK    4  A    between atoms: N_10  and  N_11 
REMARK    5  A    between atoms: C_12  and  C_13 
ROOT
HETATM    1  C   UNL     1       8.524  28.764  56.690  1.00  0.00     0.261 C 
HETATM    2  N   UNL     1       7.574  29.256  57.570  1.00  0.00    -0.246 N 
HETATM    3  O   UNL     1       9.722  28.636  56.943  1.00  0.00    -0.269 OA
HETATM    4  H   UNL     1       6.608  29.361  57.272  1.00  0.00     0.192 HD
ENDROOT
BRANCH   2   5
HETATM    5  N   UNL     1       7.967  29.581  58.831  1.00  0.00    -0.184 NA
HETATM    6  C   UNL     1       7.669  30.756  59.273  1.00  0.00     0.152 C 
BRANCH   6   7
HETATM    7  C   UNL     1       8.058  31.106  60.627  1.00  0.00     0.011 A 
HETATM    8  C   UNL     1       7.467  32.068  61.518  1.00  0.00     0.004 A 
HETATM    9  C   UNL     1       8.209  32.055  62.701  1.00  0.00     0.043 A 
HETATM   10  C   UNL     1       6.371  32.954  61.431  1.00  0.00     0.014 A 
HETATM   11  C   UNL     1       7.911  32.881  63.793  1.00  0.00     0.030 A 
HETATM   12  N   UNL     1       9.206  31.121  62.542  1.00  0.00    -0.364 N 
HETATM   13  C   UNL     1       6.821  33.748  63.676  1.00  0.00     0.002 A 
HETATM   14  C   UNL     1       6.059  33.785  62.512  1.00  0.00     0.001 A 
HETATM   15  H   UNL     1       9.898  30.904  63.247  1.00  0.00     0.165 HD
HETATM   16  C   UNL     1       9.126  30.543  61.302  1.00  0.00     0.102 A 
ENDBRANCH   6   7
ENDBRANCH   2   5
BRANCH   1  17
HETATM   17  C   UNL     1       7.961  28.298  55.354  1.00  0.00     0.280 C 
BRANCH  17  18
HETATM   18  O   UNL     1       6.793  27.481  55.463  1.00  0.00    -0.340 OA
BRANCH  18  19
HETATM   19  C   UNL     1       7.033  26.251  54.892  1.00  0.00     0.092 A 
HETATM   20  C   UNL     1       6.752  26.063  53.532  1.00  0.00     0.045 A 
HETATM   21  C   UNL     1       7.058  24.851  52.910  1.00  0.00     0.028 A 
HETATM   22 BR   UNL     1       5.985  27.446  52.482  1.00  0.00    -0.048 Br
HETATM   23  C   UNL     1       7.630  23.807  53.644  1.00  0.00    -0.060 A 
HETATM   24  C   UNL     1       8.039  22.529  52.971  1.00  0.00     0.048 C 
HETATM   25  C   UNL     1       7.875  23.988  55.013  1.00  0.00     0.016 A 
HETATM   26  C   UNL     1       7.552  25.194  55.658  1.00  0.00    -0.027 A 
HETATM   27  C   UNL     1       7.827  25.324  57.129  1.00  0.00     0.051 C 
ENDBRANCH  18  19
ENDBRANCH  17  18
ENDBRANCH   1  17
TORSDOF 5
ENDMDL
MODEL 10
REMARK VINA RESULT:      -8.5      5.511      8.414
REMARK  5 active torsions:
REMARK  status: ('A' for Active; 'I' for Inactive)
REMARK    1  A    between atoms: C_6  and  O_7 
REMARK    2  A    between atoms: O_7  and  C_8 
REMARK    3  A    between atoms: C_8  and  C_9 
REMARK       I    between atoms: C_9  and  N_10 
REMARK    4  A    between atoms: N_10  and  N_11 
REMARK    5  A    between atoms: C_12  and  C_13 
ROOT
HETATM    1  C   UNL     1       5.596  27.816  53.813  1.00  0.00     0.261 C 
HETATM    2  N   UNL     1       4.973  26.656  54.244  1.00  0.00    -0.246 N 
HETATM    3  O   UNL     1       6.724  28.178  54.149  1.00  0.00    -0.269 OA
HETATM    4  H   UNL     1       4.025  26.445  53.946  1.00  0.00     0.192 HD
ENDROOT
BRANCH   2   5
HETATM    5  N   UNL     1       5.663  25.817  55.062  1.00  0.00    -0.184 NA
HETATM    6  C   UNL     1       6.301  24.834  54.522  1.00  0.00     0.152 C 
BRANCH   6   7
HETATM    7  C   UNL     1       7.065  23.947  55.380  1.00  0.00     0.011 A 
HETATM    8  C   UNL     1       7.617  22.654  55.083  1.00  0.00     0.004 A 
HETATM    9  C   UNL     1       8.249  22.191  56.239  1.00  0.00     0.043 A 
HETATM   10  C   UNL     1       7.638  21.827  53.939  1.00  0.00     0.014 A 
HETATM   11  C   UNL     1       8.894  20.950  56.307  1.00  0.00     0.030 A 
HETATM   12  N   UNL     1       8.095  23.163  57.199  1.00  0.00    -0.364 N 
HETATM   13  C   UNL     1       8.897  20.153  55.158  1.00  0.00     0.002 A 
HETATM   14  C   UNL     1       8.278  20.584  53.988  1.00  0.00     0.001 A 
HETATM   15  H   UNL     1       8.454  23.093  58.142  1.00  0.00     0.165 HD
HETATM   16  C   UNL     1       7.387  24.224  56.697  1.00  0.00     0.102 A 
ENDBRANCH   6   7
ENDBRANCH   2   5
BRANCH   1  17
HETATM   17  C   UNL     1       4.798  28.616  52.792  1.00  0.00     0.280 C 
BRANCH  17  18
HETATM   18  O   UNL     1       5.439  28.750  51.521  1.00  0.00    -0.340 OA
BRANCH  18  19
HETATM   19  C   UNL     1       4.685  28.124  50.554  1.00  0.00     0.092 A 
HETATM   20  C   UNL     1       3.693  28.852  49.884  1.00  0.00     0.045 A 
HETATM   21  C   UNL     1       2.968  28.264  48.845  1.00  0.00     0.028 A 
HETATM   22 BR   UNL     1       3.323  30.659  50.330  1.00  0.00    -0.048 Br
HETATM   23  C   UNL     1       3.212  26.936  48.479  1.00  0.00    -0.060 A 
HETATM   24  C   UNL     1       2.498  26.319  47.312  1.00  0.00     0.048 C 
HETATM   25  C   UNL     1       4.181  26.202  49.178  1.00  0.00     0.016 A 
HETATM   26  C   UNL     1       4.903  26.772  50.239  1.00  0.00    -0.027 A 
HETATM   27  C   UNL     1       5.920  25.931  50.958  1.00  0.00     0.051 C 
ENDBRANCH  18  19
ENDBRANCH  17  18
ENDBRANCH   1  17
TORSDOF 5
ENDMDL
