MODEL 1
REMARK VINA RESULT:      -9.2      0.000      0.000
REMARK  2 active torsions:
REMARK  status: ('A' for Active; 'I' for Inactive)
REMARK    1  A    between atoms: N_9  and  N_11 
REMARK       I    between atoms: N_11  and  C_12 
REMARK    2  A    between atoms: C_12  and  C_13 
ROOT
HETATM    1  C   UNL     1       7.733  27.955  53.802  1.00  0.00     0.033 C 
HETATM    2  C   UNL     1       6.227  27.788  53.580  1.00  0.00     0.086 C 
HETATM    3  N   UNL     1       5.871  26.528  52.870  1.00  0.00    -0.379 N 
HETATM    4  C   UNL     1       5.689  26.674  51.421  1.00  0.00     0.150 C 
HETATM    5  C   UNL     1       6.491  25.336  53.311  1.00  0.00     0.052 A 
HETATM    6  C   UNL     1       6.247  24.836  54.620  1.00  0.00     0.040 A 
HETATM    7  N   UNL     1       5.356  25.535  55.509  1.00  0.00    -0.246 NA
HETATM    8  C   UNL     1       5.700  26.889  55.828  1.00  0.00     0.077 C 
HETATM    9  N   UNL     1       6.291  27.068  56.996  1.00  0.00    -0.291 N 
HETATM   10  H   UNL     1       6.429  26.202  57.532  1.00  0.00     0.188 HD
HETATM   11  C   UNL     1       5.406  27.966  54.866  1.00  0.00     0.096 C 
HETATM   12  C   UNL     1       7.337  24.575  52.491  1.00  0.00     0.031 A 
HETATM   13  C   UNL     1       7.929  23.391  52.947  1.00  0.00     0.002 A 
HETATM   14  C   UNL     1       7.683  22.932  54.238  1.00  0.00     0.002 A 
HETATM   15  C   UNL     1       6.842  23.655  55.077  1.00  0.00     0.026 A 
HETATM   16  H   UNL     1       4.547  25.609  54.877  1.00  0.00     0.135 HD
ENDROOT
BRANCH   9  17
HETATM   17  N   UNL     1       6.715  28.204  57.526  1.00  0.00    -0.265 N 
HETATM   18  C   UNL     1       8.085  28.368  57.655  1.00  0.00     0.270 C 
HETATM   19  O   UNL     1       8.887  27.523  57.268  1.00  0.00    -0.266 OA
HETATM   20  H   UNL     1       6.063  28.942  57.755  1.00  0.00     0.190 HD
BRANCH  18  21
HETATM   21  C   UNL     1       8.542  29.649  58.257  1.00  0.00     0.033 A 
HETATM   22  C   UNL     1       7.792  30.327  59.229  1.00  0.00     0.017 A 
HETATM   23  C   UNL     1       8.262  31.532  59.757  1.00  0.00     0.001 A 
HETATM   24  C   UNL     1       9.480  32.057  59.326  1.00  0.00     0.000 A 
HETATM   25  C   UNL     1      10.237  31.376  58.374  1.00  0.00     0.001 A 
HETATM   26  C   UNL     1       9.774  30.172  57.843  1.00  0.00     0.017 A 
ENDBRANCH  18  21
ENDBRANCH   9  17
TORSDOF 2
ENDMDL
MODEL 2
REMARK VINA RESULT:      -8.4      2.791      6.822
REMARK  2 active torsions:
REMARK  status: ('A' for Active; 'I' for Inactive)
REMARK    1  A    between atoms: N_9  and  N_11 
REMARK       I    between atoms: N_11  and  C_12 
REMARK    2  A    between atoms: C_12  and  C_13 
ROOT
HETATM    1  C   UNL     1       4.081  27.374  53.407  1.00  0.00     0.033 C 
HETATM    2  C   UNL     1       5.079  28.393  52.852  1.00  0.00     0.086 C 
HETATM    3  N   UNL     1       4.864  29.772  53.372  1.00  0.00    -0.379 N 
HETATM    4  C   UNL     1       4.066  30.637  52.495  1.00  0.00     0.150 C 
HETATM    5  C   UNL     1       4.655  29.918  54.762  1.00  0.00     0.052 A 
HETATM    6  C   UNL     1       5.680  29.576  55.687  1.00  0.00     0.040 A 
HETATM    7  N   UNL     1       6.948  29.085  55.215  1.00  0.00    -0.246 NA
HETATM    8  C   UNL     1       6.921  27.886  54.431  1.00  0.00     0.077 C 
HETATM    9  N   UNL     1       7.232  26.775  55.075  1.00  0.00    -0.291 N 
HETATM   10  H   UNL     1       7.457  26.917  56.068  1.00  0.00     0.188 HD
HETATM   11  C   UNL     1       6.542  27.950  53.009  1.00  0.00     0.096 C 
HETATM   12  C   UNL     1       3.463  30.430  55.299  1.00  0.00     0.031 A 
HETATM   13  C   UNL     1       3.285  30.576  56.680  1.00  0.00     0.002 A 
HETATM   14  C   UNL     1       4.301  30.220  57.563  1.00  0.00     0.002 A 
HETATM   15  C   UNL     1       5.499  29.718  57.068  1.00  0.00     0.026 A 
HETATM   16  H   UNL     1       7.155  29.837  54.543  1.00  0.00     0.135 HD
ENDROOT
BRANCH   9  17
HETATM   17  N   UNL     1       7.276  25.543  54.594  1.00  0.00    -0.265 N 
HETATM   18  C   UNL     1       7.802  24.562  55.420  1.00  0.00     0.270 C 
HETATM   19  O   UNL     1       8.183  24.799  56.562  1.00  0.00    -0.266 OA
HETATM   20  H   UNL     1       6.874  25.326  53.693  1.00  0.00     0.190 HD
BRANCH  18  21
HETATM   21  C   UNL     1       7.847  23.185  54.860  1.00  0.00     0.033 A 
HETATM   22  C   UNL     1       7.737  22.045  55.669  1.00  0.00     0.017 A 
HETATM   23  C   UNL     1       7.794  20.773  55.094  1.00  0.00     0.001 A 
HETATM   24  C   UNL     1       7.950  20.635  53.715  1.00  0.00     0.000 A 
HETATM   25  C   UNL     1       8.040  21.766  52.905  1.00  0.00     0.001 A 
HETATM   26  C   UNL     1       7.984  23.039  53.473  1.00  0.00     0.017 A 
ENDBRANCH  18  21
ENDBRANCH   9  17
TORSDOF 2
ENDMDL
MODEL 3
REMARK VINA RESULT:      -8.4      2.595      7.167
REMARK  2 active torsions:
REMARK  status: ('A' for Active; 'I' for Inactive)
REMARK    1  A    between atoms: N_9  and  N_11 
REMARK       I    between atoms: N_11  and  C_12 
REMARK    2  A    between atoms: C_12  and  C_13 
ROOT
HETATM    1  C   UNL     1       7.936  25.977  53.501  1.00  0.00     0.033 C 
HETATM    2  C   UNL     1       7.294  24.817  54.267  1.00  0.00     0.086 C 
HETATM    3  N   UNL     1       7.515  24.887  55.738  1.00  0.00    -0.379 N 
HETATM    4  C   UNL     1       8.646  24.088  56.224  1.00  0.00     0.150 C 
HETATM    5  C   UNL     1       7.306  26.135  56.368  1.00  0.00     0.052 A 
HETATM    6  C   UNL     1       6.013  26.727  56.390  1.00  0.00     0.040 A 
HETATM    7  N   UNL     1       4.898  26.054  55.778  1.00  0.00    -0.246 NA
HETATM    8  C   UNL     1       5.009  25.771  54.378  1.00  0.00     0.077 C 
HETATM    9  N   UNL     1       4.377  26.607  53.573  1.00  0.00    -0.291 N 
HETATM   10  H   UNL     1       3.880  27.362  54.063  1.00  0.00     0.188 HD
HETATM   11  C   UNL     1       5.809  24.620  53.925  1.00  0.00     0.096 C 
HETATM   12  C   UNL     1       8.333  26.833  57.024  1.00  0.00     0.031 A 
HETATM   13  C   UNL     1       8.098  28.062  57.652  1.00  0.00     0.002 A 
HETATM   14  C   UNL     1       6.824  28.624  57.646  1.00  0.00     0.002 A 
HETATM   15  C   UNL     1       5.780  27.958  57.014  1.00  0.00     0.026 A 
HETATM   16  H   UNL     1       5.003  25.142  56.242  1.00  0.00     0.135 HD
ENDROOT
BRANCH   9  17
HETATM   17  N   UNL     1       4.324  26.579  52.251  1.00  0.00    -0.265 N 
HETATM   18  C   UNL     1       5.049  27.543  51.570  1.00  0.00     0.270 C 
HETATM   19  O   UNL     1       5.742  28.375  52.148  1.00  0.00    -0.266 OA
HETATM   20  H   UNL     1       3.834  25.837  51.770  1.00  0.00     0.190 HD
BRANCH  18  21
HETATM   21  C   UNL     1       4.973  27.498  50.085  1.00  0.00     0.033 A 
HETATM   22  C   UNL     1       4.482  26.380  49.396  1.00  0.00     0.017 A 
HETATM   23  C   UNL     1       4.440  26.385  47.999  1.00  0.00     0.001 A 
HETATM   24  C   UNL     1       4.876  27.504  47.290  1.00  0.00     0.000 A 
HETATM   25  C   UNL     1       5.346  28.625  47.973  1.00  0.00     0.001 A 
HETATM   26  C   UNL     1       5.390  28.626  49.367  1.00  0.00     0.017 A 
ENDBRANCH  18  21
ENDBRANCH   9  17
TORSDOF 2
ENDMDL
MODEL 4
REMARK VINA RESULT:      -8.3      9.653     13.215
REMARK  2 active torsions:
REMARK  status: ('A' for Active; 'I' for Inactive)
REMARK    1  A    between atoms: N_9  and  N_11 
REMARK       I    between atoms: N_11  and  C_12 
REMARK    2  A    between atoms: C_12  and  C_13 
ROOT
HETATM    1  C   UNL     1       5.757  36.626  64.434  1.00  0.00     0.033 C 
HETATM    2  C   UNL     1       4.302  36.188  64.616  1.00  0.00     0.086 C 
HETATM    3  N   UNL     1       3.759  35.445  63.444  1.00  0.00    -0.379 N 
HETATM    4  C   UNL     1       2.999  36.270  62.497  1.00  0.00     0.150 C 
HETATM    5  C   UNL     1       4.568  34.427  62.888  1.00  0.00     0.052 A 
HETATM    6  C   UNL     1       4.900  33.272  63.647  1.00  0.00     0.040 A 
HETATM    7  N   UNL     1       4.407  33.121  64.991  1.00  0.00    -0.246 NA
HETATM    8  C   UNL     1       4.776  34.140  65.929  1.00  0.00     0.077 C 
HETATM    9  N   UNL     1       5.779  33.838  66.736  1.00  0.00    -0.291 N 
HETATM   10  H   UNL     1       6.168  32.899  66.585  1.00  0.00     0.188 HD
HETATM   11  C   UNL     1       4.062  35.428  65.929  1.00  0.00     0.096 C 
HETATM   12  C   UNL     1       5.051  34.480  61.571  1.00  0.00     0.031 A 
HETATM   13  C   UNL     1       5.840  33.453  61.039  1.00  0.00     0.002 A 
HETATM   14  C   UNL     1       6.161  32.340  61.810  1.00  0.00     0.002 A 
HETATM   15  C   UNL     1       5.693  32.248  63.116  1.00  0.00     0.026 A 
HETATM   16  H   UNL     1       3.409  33.285  64.801  1.00  0.00     0.135 HD
ENDROOT
BRANCH   9  17
HETATM   17  N   UNL     1       6.318  34.593  67.678  1.00  0.00    -0.265 N 
HETATM   18  C   UNL     1       5.944  34.333  68.987  1.00  0.00     0.270 C 
HETATM   19  O   UNL     1       5.174  33.423  69.281  1.00  0.00    -0.266 OA
HETATM   20  H   UNL     1       7.026  35.278  67.450  1.00  0.00     0.190 HD
BRANCH  18  21
HETATM   21  C   UNL     1       6.557  35.195  70.032  1.00  0.00     0.033 A 
HETATM   22  C   UNL     1       7.516  36.172  69.726  1.00  0.00     0.017 A 
HETATM   23  C   UNL     1       8.068  36.950  70.747  1.00  0.00     0.001 A 
HETATM   24  C   UNL     1       7.659  36.765  72.067  1.00  0.00     0.000 A 
HETATM   25  C   UNL     1       6.692  35.809  72.372  1.00  0.00     0.001 A 
HETATM   26  C   UNL     1       6.137  35.028  71.357  1.00  0.00     0.017 A 
ENDBRANCH  18  21
ENDBRANCH   9  17
TORSDOF 2
ENDMDL
MODEL 5
REMARK VINA RESULT:      -8.3      3.777      8.119
REMARK  2 active torsions:
REMARK  status: ('A' for Active; 'I' for Inactive)
REMARK    1  A    between atoms: N_9  and  N_11 
REMARK       I    between atoms: N_11  and  C_12 
REMARK    2  A    between atoms: C_12  and  C_13 
ROOT
HETATM    1  C   UNL     1       4.560  26.187  54.029  1.00  0.00     0.033 C 
HETATM    2  C   UNL     1       5.822  27.043  53.889  1.00  0.00     0.086 C 
HETATM    3  N   UNL     1       7.027  26.422  54.507  1.00  0.00    -0.379 N 
HETATM    4  C   UNL     1       7.318  26.883  55.870  1.00  0.00     0.150 C 
HETATM    5  C   UNL     1       7.265  25.055  54.238  1.00  0.00     0.052 A 
HETATM    6  C   UNL     1       7.543  24.617  52.914  1.00  0.00     0.040 A 
HETATM    7  N   UNL     1       7.595  25.565  51.832  1.00  0.00    -0.246 NA
HETATM    8  C   UNL     1       6.406  26.327  51.589  1.00  0.00     0.077 C 
HETATM    9  N   UNL     1       5.648  25.902  50.593  1.00  0.00    -0.291 N 
HETATM   10  H   UNL     1       6.016  25.070  50.115  1.00  0.00     0.188 HD
HETATM   11  C   UNL     1       6.091  27.486  52.443  1.00  0.00     0.096 C 
HETATM   12  C   UNL     1       7.275  24.076  55.244  1.00  0.00     0.031 A 
HETATM   13  C   UNL     1       7.526  22.730  54.953  1.00  0.00     0.002 A 
HETATM   14  C   UNL     1       7.782  22.327  53.646  1.00  0.00     0.002 A 
HETATM   15  C   UNL     1       7.789  23.270  52.624  1.00  0.00     0.026 A 
HETATM   16  H   UNL     1       8.256  26.232  52.254  1.00  0.00     0.135 HD
ENDROOT
BRANCH   9  17
HETATM   17  N   UNL     1       4.506  26.414  50.167  1.00  0.00    -0.265 N 
HETATM   18  C   UNL     1       4.365  26.594  48.800  1.00  0.00     0.270 C 
HETATM   19  O   UNL     1       5.238  26.267  48.001  1.00  0.00    -0.266 OA
HETATM   20  H   UNL     1       3.747  26.593  50.811  1.00  0.00     0.190 HD
BRANCH  18  21
HETATM   21  C   UNL     1       3.075  27.174  48.340  1.00  0.00     0.033 A 
HETATM   22  C   UNL     1       2.538  28.341  48.902  1.00  0.00     0.017 A 
HETATM   23  C   UNL     1       1.318  28.840  48.439  1.00  0.00     0.001 A 
HETATM   24  C   UNL     1       0.638  28.185  47.414  1.00  0.00     0.000 A 
HETATM   25  C   UNL     1       1.178  27.036  46.839  1.00  0.00     0.001 A 
HETATM   26  C   UNL     1       2.397  26.532  47.296  1.00  0.00     0.017 A 
ENDBRANCH  18  21
ENDBRANCH   9  17
TORSDOF 2
ENDMDL
MODEL 6
REMARK VINA RESULT:      -8.2      2.608      7.049
REMARK  2 active torsions:
REMARK  status: ('A' for Active; 'I' for Inactive)
REMARK    1  A    between atoms: N_9  and  N_11 
REMARK       I    between atoms: N_11  and  C_12 
REMARK    2  A    between atoms: C_12  and  C_13 
ROOT
HETATM    1  C   UNL     1       7.489  29.273  56.053  1.00  0.00     0.033 C 
HETATM    2  C   UNL     1       6.565  29.200  57.272  1.00  0.00     0.086 C 
HETATM    3  N   UNL     1       5.591  30.326  57.341  1.00  0.00    -0.379 N 
HETATM    4  C   UNL     1       6.011  31.443  58.196  1.00  0.00     0.150 C 
HETATM    5  C   UNL     1       4.901  30.663  56.155  1.00  0.00     0.052 A 
HETATM    6  C   UNL     1       4.005  29.737  55.552  1.00  0.00     0.040 A 
HETATM    7  N   UNL     1       3.784  28.447  56.151  1.00  0.00    -0.246 NA
HETATM    8  C   UNL     1       4.933  27.605  56.304  1.00  0.00     0.077 C 
HETATM    9  N   UNL     1       5.078  26.663  55.389  1.00  0.00    -0.291 N 
HETATM   10  H   UNL     1       4.337  26.655  54.677  1.00  0.00     0.188 HD
HETATM   11  C   UNL     1       5.869  27.839  57.418  1.00  0.00     0.096 C 
HETATM   12  C   UNL     1       5.029  31.915  55.534  1.00  0.00     0.031 A 
HETATM   13  C   UNL     1       4.325  32.230  54.366  1.00  0.00     0.002 A 
HETATM   14  C   UNL     1       3.465  31.299  53.790  1.00  0.00     0.002 A 
HETATM   15  C   UNL     1       3.305  30.050  54.381  1.00  0.00     0.026 A 
HETATM   16  H   UNL     1       3.559  28.764  57.104  1.00  0.00     0.135 HD
ENDROOT
BRANCH   9  17
HETATM   17  N   UNL     1       6.045  25.765  55.294  1.00  0.00    -0.265 N 
HETATM   18  C   UNL     1       5.953  24.846  54.261  1.00  0.00     0.270 C 
HETATM   19  O   UNL     1       5.040  24.869  53.440  1.00  0.00    -0.266 OA
HETATM   20  H   UNL     1       6.848  25.803  55.907  1.00  0.00     0.190 HD
BRANCH  18  21
HETATM   21  C   UNL     1       7.047  23.842  54.173  1.00  0.00     0.033 A 
HETATM   22  C   UNL     1       7.214  23.014  53.053  1.00  0.00     0.017 A 
HETATM   23  C   UNL     1       8.253  22.082  53.025  1.00  0.00     0.001 A 
HETATM   24  C   UNL     1       9.132  21.979  54.102  1.00  0.00     0.000 A 
HETATM   25  C   UNL     1       8.981  22.814  55.209  1.00  0.00     0.001 A 
HETATM   26  C   UNL     1       7.945  23.748  55.244  1.00  0.00     0.017 A 
ENDBRANCH  18  21
ENDBRANCH   9  17
TORSDOF 2
ENDMDL
MODEL 7
REMARK VINA RESULT:      -8.1     10.142     12.820
REMARK  2 active torsions:
REMARK  status: ('A' for Active; 'I' for Inactive)
REMARK    1  A    between atoms: N_9  and  N_11 
REMARK       I    between atoms: N_11  and  C_12 
REMARK    2  A    between atoms: C_12  and  C_13 
ROOT
HETATM    1  C   UNL     1       5.941  36.224  63.652  1.00  0.00     0.033 C 
HETATM    2  C   UNL     1       4.551  36.726  64.054  1.00  0.00     0.086 C 
HETATM    3  N   UNL     1       3.548  36.627  62.957  1.00  0.00    -0.379 N 
HETATM    4  C   UNL     1       3.362  37.864  62.188  1.00  0.00     0.150 C 
HETATM    5  C   UNL     1       3.499  35.418  62.228  1.00  0.00     0.052 A 
HETATM    6  C   UNL     1       3.128  34.203  62.869  1.00  0.00     0.040 A 
HETATM    7  N   UNL     1       2.791  34.194  64.268  1.00  0.00    -0.246 NA
HETATM    8  C   UNL     1       3.803  34.647  65.175  1.00  0.00     0.077 C 
HETATM    9  N   UNL     1       4.486  33.697  65.790  1.00  0.00    -0.291 N 
HETATM   10  H   UNL     1       4.198  32.744  65.534  1.00  0.00     0.188 HD
HETATM   11  C   UNL     1       4.035  36.091  65.353  1.00  0.00     0.096 C 
HETATM   12  C   UNL     1       3.772  35.350  60.853  1.00  0.00     0.031 A 
HETATM   13  C   UNL     1       3.703  34.141  60.151  1.00  0.00     0.002 A 
HETATM   14  C   UNL     1       3.352  32.964  60.807  1.00  0.00     0.002 A 
HETATM   15  C   UNL     1       3.065  32.993  62.167  1.00  0.00     0.026 A 
HETATM   16  H   UNL     1       2.090  34.949  64.254  1.00  0.00     0.135 HD
ENDROOT
BRANCH   9  17
HETATM   17  N   UNL     1       5.470  33.839  66.662  1.00  0.00    -0.265 N 
HETATM   18  C   UNL     1       5.126  33.852  68.005  1.00  0.00     0.270 C 
HETATM   19  O   UNL     1       3.969  33.706  68.388  1.00  0.00    -0.266 OA
HETATM   20  H   UNL     1       6.433  33.861  66.356  1.00  0.00     0.190 HD
BRANCH  18  21
HETATM   21  C   UNL     1       6.246  34.017  68.970  1.00  0.00     0.033 A 
HETATM   22  C   UNL     1       7.318  34.887  68.729  1.00  0.00     0.017 A 
HETATM   23  C   UNL     1       8.349  34.999  69.665  1.00  0.00     0.001 A 
HETATM   24  C   UNL     1       8.309  34.255  70.843  1.00  0.00     0.000 A 
HETATM   25  C   UNL     1       7.234  33.404  71.095  1.00  0.00     0.001 A 
HETATM   26  C   UNL     1       6.201  33.288  70.165  1.00  0.00     0.017 A 
ENDBRANCH  18  21
ENDBRANCH   9  17
TORSDOF 2
ENDMDL
MODEL 8
REMARK VINA RESULT:      -7.9      5.373     10.425
REMARK  2 active torsions:
REMARK  status: ('A' for Active; 'I' for Inactive)
REMARK    1  A    between atoms: N_9  and  N_11 
REMARK       I    between atoms: N_11  and  C_12 
REMARK    2  A    between atoms: C_12  and  C_13 
ROOT
HETATM    1  C   UNL     1       6.908  33.661  63.358  1.00  0.00     0.033 C 
HETATM    2  C   UNL     1       5.811  32.796  63.985  1.00  0.00     0.086 C 
HETATM    3  N   UNL     1       4.672  33.589  64.524  1.00  0.00    -0.379 N 
HETATM    4  C   UNL     1       4.751  33.871  65.962  1.00  0.00     0.150 C 
HETATM    5  C   UNL     1       4.151  34.618  63.707  1.00  0.00     0.052 A 
HETATM    6  C   UNL     1       3.535  34.312  62.462  1.00  0.00     0.040 A 
HETATM    7  N   UNL     1       3.426  32.945  62.025  1.00  0.00    -0.246 NA
HETATM    8  C   UNL     1       4.652  32.220  61.872  1.00  0.00     0.077 C 
HETATM    9  N   UNL     1       5.103  32.114  60.634  1.00  0.00    -0.291 N 
HETATM   10  H   UNL     1       4.507  32.571  59.933  1.00  0.00     0.188 HD
HETATM   11  C   UNL     1       5.331  31.669  63.058  1.00  0.00     0.096 C 
HETATM   12  C   UNL     1       4.181  35.971  64.082  1.00  0.00     0.031 A 
HETATM   13  C   UNL     1       3.647  36.971  63.260  1.00  0.00     0.002 A 
HETATM   14  C   UNL     1       3.062  36.643  62.041  1.00  0.00     0.002 A 
HETATM   15  C   UNL     1       3.006  35.312  61.639  1.00  0.00     0.026 A 
HETATM   16  H   UNL     1       2.991  32.554  62.872  1.00  0.00     0.135 HD
ENDROOT
BRANCH   9  17
HETATM   17  N   UNL     1       6.204  31.510  60.220  1.00  0.00    -0.265 N 
HETATM   18  C   UNL     1       6.633  31.790  58.932  1.00  0.00     0.270 C 
HETATM   19  O   UNL     1       6.049  32.588  58.205  1.00  0.00    -0.266 OA
HETATM   20  H   UNL     1       6.742  30.928  60.849  1.00  0.00     0.190 HD
BRANCH  18  21
HETATM   21  C   UNL     1       7.870  31.098  58.484  1.00  0.00     0.033 A 
HETATM   22  C   UNL     1       7.833  29.911  57.738  1.00  0.00     0.017 A 
HETATM   23  C   UNL     1       9.025  29.296  57.348  1.00  0.00     0.001 A 
HETATM   24  C   UNL     1      10.251  29.864  57.691  1.00  0.00     0.000 A 
HETATM   25  C   UNL     1      10.291  31.054  58.415  1.00  0.00     0.001 A 
HETATM   26  C   UNL     1       9.105  31.674  58.807  1.00  0.00     0.017 A 
ENDBRANCH  18  21
ENDBRANCH   9  17
TORSDOF 2
ENDMDL
MODEL 9
REMARK VINA RESULT:      -7.8      1.923      3.600
REMARK  2 active torsions:
REMARK  status: ('A' for Active; 'I' for Inactive)
REMARK    1  A    between atoms: N_9  and  N_11 
REMARK       I    between atoms: N_11  and  C_12 
REMARK    2  A    between atoms: C_12  and  C_13 
ROOT
HETATM    1  C   UNL     1       6.161  26.360  57.380  1.00  0.00     0.033 C 
HETATM    2  C   UNL     1       7.578  26.203  56.820  1.00  0.00     0.086 C 
HETATM    3  N   UNL     1       7.605  25.713  55.413  1.00  0.00    -0.379 N 
HETATM    4  C   UNL     1       7.794  24.264  55.276  1.00  0.00     0.150 C 
HETATM    5  C   UNL     1       6.722  26.325  54.495  1.00  0.00     0.052 A 
HETATM    6  C   UNL     1       6.859  27.702  54.168  1.00  0.00     0.040 A 
HETATM    7  N   UNL     1       7.907  28.488  54.764  1.00  0.00    -0.246 NA
HETATM    8  C   UNL     1       7.908  28.578  56.194  1.00  0.00     0.077 C 
HETATM    9  N   UNL     1       7.397  29.688  56.697  1.00  0.00    -0.291 N 
HETATM   10  H   UNL     1       7.061  30.352  55.987  1.00  0.00     0.188 HD
HETATM   11  C   UNL     1       8.438  27.463  56.998  1.00  0.00     0.096 C 
HETATM   12  C   UNL     1       5.702  25.617  53.839  1.00  0.00     0.031 A 
HETATM   13  C   UNL     1       4.849  26.243  52.923  1.00  0.00     0.002 A 
HETATM   14  C   UNL     1       4.997  27.596  52.633  1.00  0.00     0.002 A 
HETATM   15  C   UNL     1       6.002  28.328  53.256  1.00  0.00     0.026 A 
HETATM   16  H   UNL     1       8.700  27.871  54.537  1.00  0.00     0.135 HD
ENDROOT
BRANCH   9  17
HETATM   17  N   UNL     1       7.270  30.019  57.971  1.00  0.00    -0.265 N 
HETATM   18  C   UNL     1       8.332  30.688  58.558  1.00  0.00     0.270 C 
HETATM   19  O   UNL     1       9.340  30.999  57.931  1.00  0.00    -0.266 OA
HETATM   20  H   UNL     1       6.404  29.852  58.465  1.00  0.00     0.190 HD
BRANCH  18  21
HETATM   21  C   UNL     1       8.173  31.048  59.993  1.00  0.00     0.033 A 
HETATM   22  C   UNL     1       9.009  30.528  60.991  1.00  0.00     0.017 A 
HETATM   23  C   UNL     1       8.811  30.892  62.325  1.00  0.00     0.001 A 
HETATM   24  C   UNL     1       7.790  31.779  62.665  1.00  0.00     0.000 A 
HETATM   25  C   UNL     1       6.969  32.313  61.673  1.00  0.00     0.001 A 
HETATM   26  C   UNL     1       7.162  31.954  60.338  1.00  0.00     0.017 A 
ENDBRANCH  18  21
ENDBRANCH   9  17
TORSDOF 2
ENDMDL
MODEL 10
REMARK VINA RESULT:      -7.5     16.074     18.025
REMARK  2 active torsions:
REMARK  status: ('A' for Active; 'I' for Inactive)
REMARK    1  A    between atoms: N_9  and  N_11 
REMARK       I    between atoms: N_11  and  C_12 
REMARK    2  A    between atoms: C_12  and  C_13 
ROOT
HETATM    1  C   UNL     1      12.183   9.066  53.632  1.00  0.00     0.033 C 
HETATM    2  C   UNL     1      12.960  10.004  54.558  1.00  0.00     0.086 C 
HETATM    3  N   UNL     1      13.962  10.843  53.843  1.00  0.00    -0.379 N 
HETATM    4  C   UNL     1      15.328  10.306  53.857  1.00  0.00     0.150 C 
HETATM    5  C   UNL     1      13.545  11.478  52.651  1.00  0.00     0.052 A 
HETATM    6  C   UNL     1      12.525  12.468  52.678  1.00  0.00     0.040 A 
HETATM    7  N   UNL     1      11.910  12.842  53.925  1.00  0.00    -0.246 NA
HETATM    8  C   UNL     1      11.253  11.798  54.654  1.00  0.00     0.077 C 
HETATM    9  N   UNL     1       9.938  11.753  54.530  1.00  0.00    -0.291 N 
HETATM   10  H   UNL     1       9.552  12.484  53.918  1.00  0.00     0.188 HD
HETATM   11  C   UNL     1      12.048  10.853  55.457  1.00  0.00     0.096 C 
HETATM   12  C   UNL     1      14.125  11.201  51.403  1.00  0.00     0.031 A 
HETATM   13  C   UNL     1      13.703  11.853  50.238  1.00  0.00     0.002 A 
HETATM   14  C   UNL     1      12.692  12.809  50.292  1.00  0.00     0.002 A 
HETATM   15  C   UNL     1      12.100  13.117  51.513  1.00  0.00     0.026 A 
HETATM   16  H   UNL     1      12.768  13.039  54.458  1.00  0.00     0.135 HD
ENDROOT
BRANCH   9  17
HETATM   17  N   UNL     1       9.098  10.895  55.084  1.00  0.00    -0.265 N 
HETATM   18  C   UNL     1       7.769  10.975  54.700  1.00  0.00     0.270 C 
HETATM   19  O   UNL     1       7.375  11.777  53.859  1.00  0.00    -0.266 OA
HETATM   20  H   UNL     1       9.435  10.170  55.703  1.00  0.00     0.190 HD
BRANCH  18  21
HETATM   21  C   UNL     1       6.840  10.004  55.338  1.00  0.00     0.033 A 
HETATM   22  C   UNL     1       6.722   9.887  56.730  1.00  0.00     0.017 A 
HETATM   23  C   UNL     1       5.839   8.953  57.279  1.00  0.00     0.001 A 
HETATM   24  C   UNL     1       5.069   8.145  56.445  1.00  0.00     0.000 A 
HETATM   25  C   UNL     1       5.169   8.272  55.060  1.00  0.00     0.001 A 
HETATM   26  C   UNL     1       6.048   9.203  54.506  1.00  0.00     0.017 A 
ENDBRANCH  18  21
ENDBRANCH   9  17
TORSDOF 2
ENDMDL
