MODEL 1
REMARK VINA RESULT:      -9.8      0.000      0.000
REMARK  6 active torsions:
REMARK  status: ('A' for Active; 'I' for Inactive)
REMARK    1  A    between atoms: C_5  and  N_6 
REMARK       I    between atoms: N_6  and  C_7 
REMARK    2  A    between atoms: C_7  and  C_8 
REMARK    3  A    between atoms: C_8  and  N_9 
REMARK    4  A    between atoms: C_8  and  C_17 
REMARK       I    between atoms: N_9  and  C_10 
REMARK    5  A    between atoms: C_10  and  C_11 
REMARK    6  A    between atoms: C_17  and  C_18 
ROOT
HETATM    1  C   UNL     1       7.573  25.497  55.623  1.00  0.00     0.181 C 
ENDROOT
BRANCH   1   2
HETATM    2  C   UNL     1       8.115  26.382  56.779  1.00  0.00     0.245 C 
HETATM    3  N   UNL     1       8.248  27.720  56.425  1.00  0.00    -0.325 N 
HETATM    4  H   UNL     1       8.005  27.978  55.478  1.00  0.00     0.169 HD
HETATM    5  O   UNL     1       8.307  25.925  57.904  1.00  0.00    -0.271 OA
BRANCH   3   6
HETATM    6  C   UNL     1       8.631  28.798  57.252  1.00  0.00     0.034 A 
HETATM    7  C   UNL     1       9.865  29.445  57.181  1.00  0.00     0.030 A 
HETATM    8  C   UNL     1      10.172  30.489  58.061  1.00  0.00     0.009 A 
HETATM    9  C   UNL     1       9.251  30.906  59.026  1.00  0.00    -0.062 A 
HETATM   10  C   UNL     1       9.571  32.028  59.968  1.00  0.00     0.048 C 
HETATM   11  C   UNL     1       8.007  30.272  59.086  1.00  0.00     0.009 A 
HETATM   12  C   UNL     1       7.701  29.228  58.208  1.00  0.00     0.030 A 
ENDBRANCH   3   6
ENDBRANCH   1   2
BRANCH   1  13
HETATM   13  N   UNL     1       6.884  26.315  54.626  1.00  0.00    -0.342 N 
HETATM   14  C   UNL     1       7.157  26.291  53.276  1.00  0.00     0.276 C 
HETATM   15  O   UNL     1       8.088  25.659  52.787  1.00  0.00    -0.265 OA
HETATM   16  H   UNL     1       6.004  26.745  54.882  1.00  0.00     0.163 HD
BRANCH  14  17
HETATM   17  C   UNL     1       6.245  27.099  52.491  1.00  0.00     0.142 A 
HETATM   18  O   UNL     1       6.232  28.463  52.661  1.00  0.00    -0.317 OA
HETATM   19  C   UNL     1       5.302  28.964  51.809  1.00  0.00     0.143 A 
HETATM   20  C   UNL     1       4.714  27.953  51.086  1.00  0.00     0.027 A 
HETATM   21  C   UNL     1       5.318  26.752  51.525  1.00  0.00     0.045 A 
ENDBRANCH  14  17
ENDBRANCH   1  13
BRANCH   1  22
HETATM   22  C   UNL     1       6.779  24.275  56.124  1.00  0.00     0.075 C 
BRANCH  22  23
HETATM   23  C   UNL     1       7.562  22.995  56.063  1.00  0.00    -0.028 A 
HETATM   24  C   UNL     1       7.831  22.193  54.905  1.00  0.00    -0.002 A 
HETATM   25  C   UNL     1       8.564  21.084  55.328  1.00  0.00     0.042 A 
HETATM   26  C   UNL     1       7.509  22.301  53.535  1.00  0.00     0.014 A 
HETATM   27  C   UNL     1       8.984  20.073  54.455  1.00  0.00     0.030 A 
HETATM   28  N   UNL     1       8.752  21.215  56.684  1.00  0.00    -0.365 N 
HETATM   29  C   UNL     1       8.644  20.200  53.105  1.00  0.00     0.002 A 
HETATM   30  C   UNL     1       7.919  21.298  52.649  1.00  0.00     0.001 A 
HETATM   31  H   UNL     1       9.252  20.552  57.261  1.00  0.00     0.165 HD
HETATM   32  C   UNL     1       8.158  22.360  57.135  1.00  0.00     0.096 A 
ENDBRANCH  22  23
ENDBRANCH   1  22
TORSDOF 6
ENDMDL
MODEL 2
REMARK VINA RESULT:      -9.7      1.513      2.032
REMARK  6 active torsions:
REMARK  status: ('A' for Active; 'I' for Inactive)
REMARK    1  A    between atoms: C_5  and  N_6 
REMARK       I    between atoms: N_6  and  C_7 
REMARK    2  A    between atoms: C_7  and  C_8 
REMARK    3  A    between atoms: C_8  and  N_9 
REMARK    4  A    between atoms: C_8  and  C_17 
REMARK       I    between atoms: N_9  and  C_10 
REMARK    5  A    between atoms: C_10  and  C_11 
REMARK    6  A    between atoms: C_17  and  C_18 
ROOT
HETATM    1  C   UNL     1       7.350  26.095  53.926  1.00  0.00     0.181 C 
ENDROOT
BRANCH   1   2
HETATM    2  C   UNL     1       7.702  27.466  54.566  1.00  0.00     0.245 C 
HETATM    3  N   UNL     1       7.766  27.418  55.954  1.00  0.00    -0.325 N 
HETATM    4  H   UNL     1       7.566  26.533  56.400  1.00  0.00     0.169 HD
HETATM    5  O   UNL     1       7.979  28.446  53.878  1.00  0.00    -0.271 OA
BRANCH   3   6
HETATM    6  C   UNL     1       8.138  28.455  56.837  1.00  0.00     0.034 A 
HETATM    7  C   UNL     1       7.264  29.090  57.719  1.00  0.00     0.030 A 
HETATM    8  C   UNL     1       7.714  30.130  58.541  1.00  0.00     0.009 A 
HETATM    9  C   UNL     1       9.045  30.553  58.496  1.00  0.00    -0.062 A 
HETATM   10  C   UNL     1       9.534  31.663  59.378  1.00  0.00     0.048 C 
HETATM   11  C   UNL     1       9.927  29.905  57.627  1.00  0.00     0.009 A 
HETATM   12  C   UNL     1       9.477  28.867  56.806  1.00  0.00     0.030 A 
ENDBRANCH   3   6
ENDBRANCH   1   2
BRANCH   1  13
HETATM   13  N   UNL     1       6.777  26.279  52.593  1.00  0.00    -0.342 N 
HETATM   14  C   UNL     1       5.502  26.740  52.350  1.00  0.00     0.276 C 
HETATM   15  O   UNL     1       4.676  26.936  53.235  1.00  0.00    -0.265 OA
HETATM   16  H   UNL     1       7.406  26.306  51.800  1.00  0.00     0.163 HD
BRANCH  14  17
HETATM   17  C   UNL     1       5.228  26.955  50.943  1.00  0.00     0.142 A 
HETATM   18  O   UNL     1       5.520  28.171  50.375  1.00  0.00    -0.317 OA
HETATM   19  C   UNL     1       5.172  28.095  49.065  1.00  0.00     0.143 A 
HETATM   20  C   UNL     1       4.664  26.853  48.771  1.00  0.00     0.027 A 
HETATM   21  C   UNL     1       4.696  26.117  49.979  1.00  0.00     0.045 A 
ENDBRANCH  14  17
ENDBRANCH   1  13
BRANCH   1  22
HETATM   22  C   UNL     1       6.533  25.186  54.865  1.00  0.00     0.075 C 
BRANCH  22  23
HETATM   23  C   UNL     1       7.316  24.012  55.380  1.00  0.00    -0.028 A 
HETATM   24  C   UNL     1       7.702  22.836  54.655  1.00  0.00    -0.002 A 
HETATM   25  C   UNL     1       8.385  22.005  55.543  1.00  0.00     0.042 A 
HETATM   26  C   UNL     1       7.522  22.395  53.327  1.00  0.00     0.014 A 
HETATM   27  C   UNL     1       8.890  20.752  55.174  1.00  0.00     0.030 A 
HETATM   28  N   UNL     1       8.432  22.655  56.753  1.00  0.00    -0.365 N 
HETATM   29  C   UNL     1       8.692  20.335  53.855  1.00  0.00     0.002 A 
HETATM   30  C   UNL     1       8.019  21.144  52.942  1.00  0.00     0.001 A 
HETATM   31  H   UNL     1       8.869  22.286  57.587  1.00  0.00     0.165 HD
HETATM   32  C   UNL     1       7.797  23.863  56.667  1.00  0.00     0.096 A 
ENDBRANCH  22  23
ENDBRANCH   1  22
TORSDOF 6
ENDMDL
MODEL 3
REMARK VINA RESULT:      -9.6      1.727      6.343
REMARK  6 active torsions:
REMARK  status: ('A' for Active; 'I' for Inactive)
REMARK    1  A    between atoms: C_5  and  N_6 
REMARK       I    between atoms: N_6  and  C_7 
REMARK    2  A    between atoms: C_7  and  C_8 
REMARK    3  A    between atoms: C_8  and  N_9 
REMARK    4  A    between atoms: C_8  and  C_17 
REMARK       I    between atoms: N_9  and  C_10 
REMARK    5  A    between atoms: C_10  and  C_11 
REMARK    6  A    between atoms: C_17  and  C_18 
ROOT
HETATM    1  C   UNL     1       6.756  26.283  54.613  1.00  0.00     0.181 C 
ENDROOT
BRANCH   1   2
HETATM    2  C   UNL     1       5.774  26.915  53.588  1.00  0.00     0.245 C 
HETATM    3  N   UNL     1       6.189  26.763  52.271  1.00  0.00    -0.325 N 
HETATM    4  H   UNL     1       7.067  26.289  52.110  1.00  0.00     0.169 HD
HETATM    5  O   UNL     1       4.705  27.410  53.941  1.00  0.00    -0.271 OA
BRANCH   3   6
HETATM    6  C   UNL     1       5.499  27.143  51.099  1.00  0.00     0.034 A 
HETATM    7  C   UNL     1       5.321  28.462  50.683  1.00  0.00     0.030 A 
HETATM    8  C   UNL     1       4.597  28.750  49.519  1.00  0.00     0.009 A 
HETATM    9  C   UNL     1       4.041  27.724  48.751  1.00  0.00    -0.062 A 
HETATM   10  C   UNL     1       3.270  28.024  47.500  1.00  0.00     0.048 C 
HETATM   11  C   UNL     1       4.235  26.400  49.155  1.00  0.00     0.009 A 
HETATM   12  C   UNL     1       4.956  26.114  50.318  1.00  0.00     0.030 A 
ENDBRANCH   3   6
ENDBRANCH   1   2
BRANCH   1  13
HETATM   13  N   UNL     1       7.449  27.322  55.373  1.00  0.00    -0.342 N 
HETATM   14  C   UNL     1       7.102  27.719  56.645  1.00  0.00     0.276 C 
HETATM   15  O   UNL     1       6.100  27.316  57.228  1.00  0.00    -0.265 OA
HETATM   16  H   UNL     1       8.372  27.605  55.068  1.00  0.00     0.163 HD
BRANCH  14  17
HETATM   17  C   UNL     1       8.028  28.672  57.222  1.00  0.00     0.142 A 
HETATM   18  O   UNL     1       7.704  29.305  58.397  1.00  0.00    -0.317 OA
HETATM   19  C   UNL     1       8.738  30.128  58.709  1.00  0.00     0.143 A 
HETATM   20  C   UNL     1       9.728  30.038  57.761  1.00  0.00     0.027 A 
HETATM   21  C   UNL     1       9.273  29.104  56.801  1.00  0.00     0.045 A 
ENDBRANCH  14  17
ENDBRANCH   1  13
BRANCH   1  22
HETATM   22  C   UNL     1       7.671  25.214  53.986  1.00  0.00     0.075 C 
BRANCH  22  23
HETATM   23  C   UNL     1       7.948  24.059  54.905  1.00  0.00    -0.028 A 
HETATM   24  C   UNL     1       8.183  22.692  54.541  1.00  0.00    -0.002 A 
HETATM   25  C   UNL     1       8.362  21.971  55.722  1.00  0.00     0.042 A 
HETATM   26  C   UNL     1       8.247  21.996  53.315  1.00  0.00     0.014 A 
HETATM   27  C   UNL     1       8.593  20.590  55.741  1.00  0.00     0.030 A 
HETATM   28  N   UNL     1       8.262  22.865  56.762  1.00  0.00    -0.365 N 
HETATM   29  C   UNL     1       8.643  19.924  54.514  1.00  0.00     0.002 A 
HETATM   30  C   UNL     1       8.475  20.615  53.316  1.00  0.00     0.001 A 
HETATM   31  H   UNL     1       8.350  22.621  57.740  1.00  0.00     0.165 HD
HETATM   32  C   UNL     1       8.018  24.122  56.284  1.00  0.00     0.096 A 
ENDBRANCH  22  23
ENDBRANCH   1  22
TORSDOF 6
ENDMDL
MODEL 4
REMARK VINA RESULT:      -9.5      2.331      7.747
REMARK  6 active torsions:
REMARK  status: ('A' for Active; 'I' for Inactive)
REMARK    1  A    between atoms: C_5  and  N_6 
REMARK       I    between atoms: N_6  and  C_7 
REMARK    2  A    between atoms: C_7  and  C_8 
REMARK    3  A    between atoms: C_8  and  N_9 
REMARK    4  A    between atoms: C_8  and  C_17 
REMARK       I    between atoms: N_9  and  C_10 
REMARK    5  A    between atoms: C_10  and  C_11 
REMARK    6  A    between atoms: C_17  and  C_18 
ROOT
HETATM    1  C   UNL     1       6.844  27.730  52.996  1.00  0.00     0.181 C 
ENDROOT
BRANCH   1   2
HETATM    2  C   UNL     1       6.593  26.248  53.389  1.00  0.00     0.245 C 
HETATM    3  N   UNL     1       7.753  25.482  53.393  1.00  0.00    -0.325 N 
HETATM    4  H   UNL     1       8.615  25.940  53.132  1.00  0.00     0.169 HD
HETATM    5  O   UNL     1       5.483  25.854  53.741  1.00  0.00    -0.271 OA
BRANCH   3   6
HETATM    6  C   UNL     1       7.893  24.131  53.779  1.00  0.00     0.034 A 
HETATM    7  C   UNL     1       7.843  23.051  52.897  1.00  0.00     0.030 A 
HETATM    8  C   UNL     1       7.965  21.739  53.372  1.00  0.00     0.009 A 
HETATM    9  C   UNL     1       8.139  21.485  54.735  1.00  0.00    -0.062 A 
HETATM   10  C   UNL     1       8.276  20.083  55.249  1.00  0.00     0.048 C 
HETATM   11  C   UNL     1       8.209  22.566  55.617  1.00  0.00     0.009 A 
HETATM   12  C   UNL     1       8.086  23.876  55.143  1.00  0.00     0.030 A 
ENDBRANCH   3   6
ENDBRANCH   1   2
BRANCH   1  13
HETATM   13  N   UNL     1       7.719  28.381  53.969  1.00  0.00    -0.342 N 
HETATM   14  C   UNL     1       7.403  28.573  55.296  1.00  0.00     0.276 C 
HETATM   15  O   UNL     1       6.301  28.315  55.770  1.00  0.00    -0.265 OA
HETATM   16  H   UNL     1       8.699  28.487  53.739  1.00  0.00     0.163 HD
BRANCH  14  17
HETATM   17  C   UNL     1       8.494  29.125  56.073  1.00  0.00     0.142 A 
HETATM   18  O   UNL     1       9.626  29.567  55.432  1.00  0.00    -0.317 OA
HETATM   19  C   UNL     1      10.471  30.032  56.386  1.00  0.00     0.143 A 
HETATM   20  C   UNL     1       9.909  29.905  57.634  1.00  0.00     0.027 A 
HETATM   21  C   UNL     1       8.636  29.319  57.435  1.00  0.00     0.045 A 
ENDBRANCH  14  17
ENDBRANCH   1  13
BRANCH   1  22
HETATM   22  C   UNL     1       5.545  28.494  52.674  1.00  0.00     0.075 C 
BRANCH  22  23
HETATM   23  C   UNL     1       5.437  28.897  51.232  1.00  0.00    -0.028 A 
HETATM   24  C   UNL     1       5.107  28.059  50.116  1.00  0.00    -0.002 A 
HETATM   25  C   UNL     1       5.156  28.853  48.969  1.00  0.00     0.042 A 
HETATM   26  C   UNL     1       4.782  26.693  49.971  1.00  0.00     0.014 A 
HETATM   27  C   UNL     1       4.907  28.351  47.686  1.00  0.00     0.030 A 
HETATM   28  N   UNL     1       5.482  30.126  49.372  1.00  0.00    -0.365 N 
HETATM   29  C   UNL     1       4.596  26.994  47.570  1.00  0.00     0.002 A 
HETATM   30  C   UNL     1       4.532  26.174  48.695  1.00  0.00     0.001 A 
HETATM   31  H   UNL     1       5.589  30.916  48.750  1.00  0.00     0.165 HD
HETATM   32  C   UNL     1       5.649  30.166  50.728  1.00  0.00     0.096 A 
ENDBRANCH  22  23
ENDBRANCH   1  22
TORSDOF 6
ENDMDL
MODEL 5
REMARK VINA RESULT:      -9.4      1.990      7.014
REMARK  6 active torsions:
REMARK  status: ('A' for Active; 'I' for Inactive)
REMARK    1  A    between atoms: C_5  and  N_6 
REMARK       I    between atoms: N_6  and  C_7 
REMARK    2  A    between atoms: C_7  and  C_8 
REMARK    3  A    between atoms: C_8  and  N_9 
REMARK    4  A    between atoms: C_8  and  C_17 
REMARK       I    between atoms: N_9  and  C_10 
REMARK    5  A    between atoms: C_10  and  C_11 
REMARK    6  A    between atoms: C_17  and  C_18 
ROOT
HETATM    1  C   UNL     1       6.154  27.154  53.385  1.00  0.00     0.181 C 
ENDROOT
BRANCH   1   2
HETATM    2  C   UNL     1       6.216  25.744  54.034  1.00  0.00     0.245 C 
HETATM    3  N   UNL     1       7.348  25.025  53.667  1.00  0.00    -0.325 N 
HETATM    4  H   UNL     1       7.991  25.464  53.023  1.00  0.00     0.169 HD
HETATM    5  O   UNL     1       5.377  25.375  54.854  1.00  0.00    -0.271 OA
BRANCH   3   6
HETATM    6  C   UNL     1       7.753  23.756  54.135  1.00  0.00     0.034 A 
HETATM    7  C   UNL     1       7.689  22.583  53.383  1.00  0.00     0.030 A 
HETATM    8  C   UNL     1       8.088  21.360  53.938  1.00  0.00     0.009 A 
HETATM    9  C   UNL     1       8.557  21.290  55.252  1.00  0.00    -0.062 A 
HETATM   10  C   UNL     1       8.991  19.984  55.850  1.00  0.00     0.048 C 
HETATM   11  C   UNL     1       8.641  22.467  56.000  1.00  0.00     0.009 A 
HETATM   12  C   UNL     1       8.241  23.687  55.447  1.00  0.00     0.030 A 
ENDBRANCH   3   6
ENDBRANCH   1   2
BRANCH   1  13
HETATM   13  N   UNL     1       5.846  27.053  51.959  1.00  0.00    -0.342 N 
HETATM   14  C   UNL     1       5.102  27.975  51.256  1.00  0.00     0.276 C 
HETATM   15  O   UNL     1       4.526  28.920  51.784  1.00  0.00    -0.265 OA
HETATM   16  H   UNL     1       6.392  26.416  51.394  1.00  0.00     0.163 HD
BRANCH  14  17
HETATM   17  C   UNL     1       5.053  27.708  49.832  1.00  0.00     0.142 A 
HETATM   18  O   UNL     1       5.531  28.647  48.951  1.00  0.00    -0.317 OA
HETATM   19  C   UNL     1       5.371  28.143  47.701  1.00  0.00     0.143 A 
HETATM   20  C   UNL     1       4.802  26.893  47.754  1.00  0.00     0.027 A 
HETATM   21  C   UNL     1       4.595  26.611  49.125  1.00  0.00     0.045 A 
ENDBRANCH  14  17
ENDBRANCH   1  13
BRANCH   1  22
HETATM   22  C   UNL     1       7.377  28.027  53.726  1.00  0.00     0.075 C 
BRANCH  22  23
HETATM   23  C   UNL     1       7.341  28.576  55.124  1.00  0.00    -0.028 A 
HETATM   24  C   UNL     1       8.434  29.125  55.873  1.00  0.00    -0.002 A 
HETATM   25  C   UNL     1       7.941  29.477  57.130  1.00  0.00     0.042 A 
HETATM   26  C   UNL     1       9.802  29.343  55.604  1.00  0.00     0.014 A 
HETATM   27  C   UNL     1       8.747  30.028  58.134  1.00  0.00     0.030 A 
HETATM   28  N   UNL     1       6.600  29.175  57.140  1.00  0.00    -0.365 N 
HETATM   29  C   UNL     1      10.099  30.227  57.844  1.00  0.00     0.002 A 
HETATM   30  C   UNL     1      10.622  29.892  56.597  1.00  0.00     0.001 A 
HETATM   31  H   UNL     1       5.983  29.325  57.927  1.00  0.00     0.165 HD
HETATM   32  C   UNL     1       6.227  28.637  55.939  1.00  0.00     0.096 A 
ENDBRANCH  22  23
ENDBRANCH   1  22
TORSDOF 6
ENDMDL
MODEL 6
REMARK VINA RESULT:      -9.3      1.493      2.121
REMARK  6 active torsions:
REMARK  status: ('A' for Active; 'I' for Inactive)
REMARK    1  A    between atoms: C_5  and  N_6 
REMARK       I    between atoms: N_6  and  C_7 
REMARK    2  A    between atoms: C_7  and  C_8 
REMARK    3  A    between atoms: C_8  and  N_9 
REMARK    4  A    between atoms: C_8  and  C_17 
REMARK       I    between atoms: N_9  and  C_10 
REMARK    5  A    between atoms: C_10  and  C_11 
REMARK    6  A    between atoms: C_17  and  C_18 
ROOT
HETATM    1  C   UNL     1       7.193  26.327  55.536  1.00  0.00     0.181 C 
ENDROOT
BRANCH   1   2
HETATM    2  C   UNL     1       7.614  27.114  56.807  1.00  0.00     0.245 C 
HETATM    3  N   UNL     1       7.667  28.489  56.604  1.00  0.00    -0.325 N 
HETATM    4  H   UNL     1       7.452  28.832  55.678  1.00  0.00     0.169 HD
HETATM    5  O   UNL     1       7.784  26.551  57.887  1.00  0.00    -0.271 OA
BRANCH   3   6
HETATM    6  C   UNL     1       7.931  29.493  57.561  1.00  0.00     0.034 A 
HETATM    7  C   UNL     1       6.950  30.270  58.178  1.00  0.00     0.030 A 
HETATM    8  C   UNL     1       7.304  31.265  59.097  1.00  0.00     0.009 A 
HETATM    9  C   UNL     1       8.645  31.500  59.415  1.00  0.00    -0.062 A 
HETATM   10  C   UNL     1       9.030  32.561  60.403  1.00  0.00     0.048 C 
HETATM   11  C   UNL     1       9.627  30.710  58.813  1.00  0.00     0.009 A 
HETATM   12  C   UNL     1       9.273  29.717  57.894  1.00  0.00     0.030 A 
ENDBRANCH   3   6
ENDBRANCH   1   2
BRANCH   1  13
HETATM   13  N   UNL     1       6.144  27.041  54.810  1.00  0.00    -0.342 N 
HETATM   14  C   UNL     1       6.374  27.928  53.782  1.00  0.00     0.276 C 
HETATM   15  O   UNL     1       7.495  28.296  53.445  1.00  0.00    -0.265 OA
HETATM   16  H   UNL     1       5.193  26.703  54.885  1.00  0.00     0.163 HD
BRANCH  14  17
HETATM   17  C   UNL     1       5.159  28.398  53.146  1.00  0.00     0.142 A 
HETATM   18  O   UNL     1       5.236  29.354  52.162  1.00  0.00    -0.317 OA
HETATM   19  C   UNL     1       3.969  29.601  51.743  1.00  0.00     0.143 A 
HETATM   20  C   UNL     1       3.071  28.822  52.433  1.00  0.00     0.027 A 
HETATM   21  C   UNL     1       3.835  28.049  53.339  1.00  0.00     0.045 A 
ENDBRANCH  14  17
ENDBRANCH   1  13
BRANCH   1  22
HETATM   22  C   UNL     1       6.894  24.842  55.820  1.00  0.00     0.075 C 
BRANCH  22  23
HETATM   23  C   UNL     1       7.349  23.926  54.721  1.00  0.00    -0.028 A 
HETATM   24  C   UNL     1       7.754  22.555  54.841  1.00  0.00    -0.002 A 
HETATM   25  C   UNL     1       8.122  22.117  53.569  1.00  0.00     0.042 A 
HETATM   26  C   UNL     1       7.853  21.648  55.917  1.00  0.00     0.014 A 
HETATM   27  C   UNL     1       8.593  20.822  53.319  1.00  0.00     0.030 A 
HETATM   28  N   UNL     1       7.931  23.170  52.706  1.00  0.00    -0.365 N 
HETATM   29  C   UNL     1       8.690  19.947  54.403  1.00  0.00     0.002 A 
HETATM   30  C   UNL     1       8.325  20.350  55.685  1.00  0.00     0.001 A 
HETATM   31  H   UNL     1       8.117  23.140  51.712  1.00  0.00     0.165 HD
HETATM   32  C   UNL     1       7.463  24.260  53.385  1.00  0.00     0.096 A 
ENDBRANCH  22  23
ENDBRANCH   1  22
TORSDOF 6
ENDMDL
MODEL 7
REMARK VINA RESULT:      -9.2      2.717      8.381
REMARK  6 active torsions:
REMARK  status: ('A' for Active; 'I' for Inactive)
REMARK    1  A    between atoms: C_5  and  N_6 
REMARK       I    between atoms: N_6  and  C_7 
REMARK    2  A    between atoms: C_7  and  C_8 
REMARK    3  A    between atoms: C_8  and  N_9 
REMARK    4  A    between atoms: C_8  and  C_17 
REMARK       I    between atoms: N_9  and  C_10 
REMARK    5  A    between atoms: C_10  and  C_11 
REMARK    6  A    between atoms: C_17  and  C_18 
ROOT
HETATM    1  C   UNL     1       6.913  28.898  57.386  1.00  0.00     0.181 C 
ENDROOT
BRANCH   1   2
HETATM    2  C   UNL     1       7.435  27.478  57.031  1.00  0.00     0.245 C 
HETATM    3  N   UNL     1       6.780  26.914  55.942  1.00  0.00    -0.325 N 
HETATM    4  H   UNL     1       6.043  27.454  55.511  1.00  0.00     0.169 HD
HETATM    5  O   UNL     1       8.391  26.977  57.621  1.00  0.00    -0.271 OA
BRANCH   3   6
HETATM    6  C   UNL     1       7.059  25.682  55.311  1.00  0.00     0.034 A 
HETATM    7  C   UNL     1       6.921  24.436  55.921  1.00  0.00     0.030 A 
HETATM    8  C   UNL     1       7.248  23.264  55.228  1.00  0.00     0.009 A 
HETATM    9  C   UNL     1       7.717  23.318  53.913  1.00  0.00    -0.062 A 
HETATM   10  C   UNL     1       8.064  22.067  53.163  1.00  0.00     0.048 C 
HETATM   11  C   UNL     1       7.838  24.565  53.293  1.00  0.00     0.009 A 
HETATM   12  C   UNL     1       7.513  25.735  53.986  1.00  0.00     0.030 A 
ENDBRANCH   3   6
ENDBRANCH   1   2
BRANCH   1  13
HETATM   13  N   UNL     1       7.442  29.335  58.677  1.00  0.00    -0.342 N 
HETATM   14  C   UNL     1       7.755  30.639  58.990  1.00  0.00     0.276 C 
HETATM   15  O   UNL     1       7.727  31.554  58.173  1.00  0.00    -0.265 OA
HETATM   16  H   UNL     1       7.355  28.709  59.468  1.00  0.00     0.163 HD
BRANCH  14  17
HETATM   17  C   UNL     1       8.137  30.822  60.376  1.00  0.00     0.142 A 
HETATM   18  O   UNL     1       9.163  30.073  60.900  1.00  0.00    -0.317 OA
HETATM   19  C   UNL     1       9.311  30.446  62.196  1.00  0.00     0.143 A 
HETATM   20  C   UNL     1       8.404  31.426  62.523  1.00  0.00     0.027 A 
HETATM   21  C   UNL     1       7.645  31.668  61.353  1.00  0.00     0.045 A 
ENDBRANCH  14  17
ENDBRANCH   1  13
BRANCH   1  22
HETATM   22  C   UNL     1       5.387  29.034  57.228  1.00  0.00     0.075 C 
BRANCH  22  23
HETATM   23  C   UNL     1       4.987  29.935  56.095  1.00  0.00    -0.028 A 
HETATM   24  C   UNL     1       4.420  29.552  54.835  1.00  0.00    -0.002 A 
HETATM   25  C   UNL     1       4.242  30.717  54.087  1.00  0.00     0.042 A 
HETATM   26  C   UNL     1       4.053  28.320  54.254  1.00  0.00     0.014 A 
HETATM   27  C   UNL     1       3.724  30.712  52.786  1.00  0.00     0.030 A 
HETATM   28  N   UNL     1       4.663  31.768  54.867  1.00  0.00    -0.365 N 
HETATM   29  C   UNL     1       3.376  29.478  52.232  1.00  0.00     0.002 A 
HETATM   30  C   UNL     1       3.535  28.297  52.953  1.00  0.00     0.001 A 
HETATM   31  H   UNL     1       4.650  32.737  54.580  1.00  0.00     0.165 HD
HETATM   32  C   UNL     1       5.109  31.312  56.076  1.00  0.00     0.096 A 
ENDBRANCH  22  23
ENDBRANCH   1  22
TORSDOF 6
ENDMDL
MODEL 8
REMARK VINA RESULT:      -9.0      1.944      7.900
REMARK  6 active torsions:
REMARK  status: ('A' for Active; 'I' for Inactive)
REMARK    1  A    between atoms: C_5  and  N_6 
REMARK       I    between atoms: N_6  and  C_7 
REMARK    2  A    between atoms: C_7  and  C_8 
REMARK    3  A    between atoms: C_8  and  N_9 
REMARK    4  A    between atoms: C_8  and  C_17 
REMARK       I    between atoms: N_9  and  C_10 
REMARK    5  A    between atoms: C_10  and  C_11 
REMARK    6  A    between atoms: C_17  and  C_18 
ROOT
HETATM    1  C   UNL     1       6.725  27.883  56.084  1.00  0.00     0.181 C 
ENDROOT
BRANCH   1   2
HETATM    2  C   UNL     1       7.342  26.458  56.032  1.00  0.00     0.245 C 
HETATM    3  N   UNL     1       6.821  25.675  55.008  1.00  0.00    -0.325 N 
HETATM    4  H   UNL     1       6.103  26.085  54.427  1.00  0.00     0.169 HD
HETATM    5  O   UNL     1       8.260  26.126  56.780  1.00  0.00    -0.271 OA
BRANCH   3   6
HETATM    6  C   UNL     1       7.214  24.373  54.632  1.00  0.00     0.034 A 
HETATM    7  C   UNL     1       7.268  23.284  55.501  1.00  0.00     0.030 A 
HETATM    8  C   UNL     1       7.698  22.031  55.047  1.00  0.00     0.009 A 
HETATM    9  C   UNL     1       8.081  21.845  53.716  1.00  0.00    -0.062 A 
HETATM   10  C   UNL     1       8.537  20.504  53.223  1.00  0.00     0.048 C 
HETATM   11  C   UNL     1       8.010  22.930  52.839  1.00  0.00     0.009 A 
HETATM   12  C   UNL     1       7.582  24.181  53.293  1.00  0.00     0.030 A 
ENDBRANCH   3   6
ENDBRANCH   1   2
BRANCH   1  13
HETATM   13  N   UNL     1       5.953  28.155  54.872  1.00  0.00    -0.342 N 
HETATM   14  C   UNL     1       4.598  28.402  54.851  1.00  0.00     0.276 C 
HETATM   15  O   UNL     1       3.880  28.305  55.841  1.00  0.00    -0.265 OA
HETATM   16  H   UNL     1       6.454  28.418  54.033  1.00  0.00     0.163 HD
BRANCH  14  17
HETATM   17  C   UNL     1       4.102  28.770  53.540  1.00  0.00     0.142 A 
HETATM   18  O   UNL     1       3.411  29.947  53.385  1.00  0.00    -0.317 OA
HETATM   19  C   UNL     1       3.073  30.044  52.074  1.00  0.00     0.143 A 
HETATM   20  C   UNL     1       3.534  28.955  51.375  1.00  0.00     0.027 A 
HETATM   21  C   UNL     1       4.195  28.132  52.317  1.00  0.00     0.045 A 
ENDBRANCH  14  17
ENDBRANCH   1  13
BRANCH   1  22
HETATM   22  C   UNL     1       7.752  28.968  56.460  1.00  0.00     0.075 C 
BRANCH  22  23
HETATM   23  C   UNL     1       7.246  29.928  57.498  1.00  0.00    -0.028 A 
HETATM   24  C   UNL     1       8.023  30.710  58.414  1.00  0.00    -0.002 A 
HETATM   25  C   UNL     1       7.130  31.428  59.211  1.00  0.00     0.042 A 
HETATM   26  C   UNL     1       9.405  30.866  58.651  1.00  0.00     0.014 A 
HETATM   27  C   UNL     1       7.547  32.286  60.235  1.00  0.00     0.030 A 
HETATM   28  N   UNL     1       5.862  31.113  58.784  1.00  0.00    -0.365 N 
HETATM   29  C   UNL     1       8.921  32.416  60.454  1.00  0.00     0.002 A 
HETATM   30  C   UNL     1       9.840  31.718  59.673  1.00  0.00     0.001 A 
HETATM   31  H   UNL     1       5.011  31.487  59.183  1.00  0.00     0.165 HD
HETATM   32  C   UNL     1       5.918  30.216  57.754  1.00  0.00     0.096 A 
ENDBRANCH  22  23
ENDBRANCH   1  22
TORSDOF 6
ENDMDL
MODEL 9
REMARK VINA RESULT:      -8.8      2.229      7.710
REMARK  6 active torsions:
REMARK  status: ('A' for Active; 'I' for Inactive)
REMARK    1  A    between atoms: C_5  and  N_6 
REMARK       I    between atoms: N_6  and  C_7 
REMARK    2  A    between atoms: C_7  and  C_8 
REMARK    3  A    between atoms: C_8  and  N_9 
REMARK    4  A    between atoms: C_8  and  C_17 
REMARK       I    between atoms: N_9  and  C_10 
REMARK    5  A    between atoms: C_10  and  C_11 
REMARK    6  A    between atoms: C_17  and  C_18 
ROOT
HETATM    1  C   UNL     1       6.219  28.662  54.549  1.00  0.00     0.181 C 
ENDROOT
BRANCH   1   2
HETATM    2  C   UNL     1       7.143  27.435  54.317  1.00  0.00     0.245 C 
HETATM    3  N   UNL     1       6.502  26.221  54.536  1.00  0.00    -0.325 N 
HETATM    4  H   UNL     1       5.536  26.251  54.832  1.00  0.00     0.169 HD
HETATM    5  O   UNL     1       8.291  27.564  53.896  1.00  0.00    -0.271 OA
BRANCH   3   6
HETATM    6  C   UNL     1       7.020  24.923  54.338  1.00  0.00     0.034 A 
HETATM    7  C   UNL     1       7.423  24.071  55.367  1.00  0.00     0.030 A 
HETATM    8  C   UNL     1       7.953  22.808  55.077  1.00  0.00     0.009 A 
HETATM    9  C   UNL     1       8.088  22.374  53.756  1.00  0.00    -0.062 A 
HETATM   10  C   UNL     1       8.650  21.020  53.439  1.00  0.00     0.048 C 
HETATM   11  C   UNL     1       7.667  23.219  52.725  1.00  0.00     0.009 A 
HETATM   12  C   UNL     1       7.140  24.481  53.014  1.00  0.00     0.030 A 
ENDBRANCH   3   6
ENDBRANCH   1   2
BRANCH   1  13
HETATM   13  N   UNL     1       6.632  29.403  55.740  1.00  0.00    -0.342 N 
HETATM   14  C   UNL     1       6.572  28.909  57.024  1.00  0.00     0.276 C 
HETATM   15  O   UNL     1       6.056  27.833  57.310  1.00  0.00    -0.265 OA
HETATM   16  H   UNL     1       7.215  30.221  55.618  1.00  0.00     0.163 HD
BRANCH  14  17
HETATM   17  C   UNL     1       7.163  29.794  58.008  1.00  0.00     0.142 A 
HETATM   18  O   UNL     1       6.464  30.898  58.432  1.00  0.00    -0.317 OA
HETATM   19  C   UNL     1       7.238  31.537  59.346  1.00  0.00     0.143 A 
HETATM   20  C   UNL     1       8.425  30.867  59.526  1.00  0.00     0.027 A 
HETATM   21  C   UNL     1       8.379  29.745  58.664  1.00  0.00     0.045 A 
ENDBRANCH  14  17
ENDBRANCH   1  13
BRANCH   1  22
HETATM   22  C   UNL     1       4.721  28.305  54.492  1.00  0.00     0.075 C 
BRANCH  22  23
HETATM   23  C   UNL     1       4.062  28.720  53.208  1.00  0.00    -0.028 A 
HETATM   24  C   UNL     1       4.192  28.100  51.921  1.00  0.00    -0.002 A 
HETATM   25  C   UNL     1       3.428  28.844  51.021  1.00  0.00     0.042 A 
HETATM   26  C   UNL     1       4.900  26.981  51.434  1.00  0.00     0.014 A 
HETATM   27  C   UNL     1       3.342  28.531  49.659  1.00  0.00     0.030 A 
HETATM   28  N   UNL     1       2.840  29.862  51.733  1.00  0.00    -0.365 N 
HETATM   29  C   UNL     1       4.059  27.424  49.201  1.00  0.00     0.002 A 
HETATM   30  C   UNL     1       4.827  26.656  50.074  1.00  0.00     0.001 A 
HETATM   31  H   UNL     1       2.227  30.562  51.336  1.00  0.00     0.165 HD
HETATM   32  C   UNL     1       3.210  29.796  53.047  1.00  0.00     0.096 A 
ENDBRANCH  22  23
ENDBRANCH   1  22
TORSDOF 6
ENDMDL
MODEL 10
REMARK VINA RESULT:      -8.7     10.262     15.116
REMARK  6 active torsions:
REMARK  status: ('A' for Active; 'I' for Inactive)
REMARK    1  A    between atoms: C_5  and  N_6 
REMARK       I    between atoms: N_6  and  C_7 
REMARK    2  A    between atoms: C_7  and  C_8 
REMARK    3  A    between atoms: C_8  and  N_9 
REMARK    4  A    between atoms: C_8  and  C_17 
REMARK       I    between atoms: N_9  and  C_10 
REMARK    5  A    between atoms: C_10  and  C_11 
REMARK    6  A    between atoms: C_17  and  C_18 
ROOT
HETATM    1  C   UNL     1       4.863  34.826  65.846  1.00  0.00     0.181 C 
ENDROOT
BRANCH   1   2
HETATM    2  C   UNL     1       5.097  34.441  67.333  1.00  0.00     0.245 C 
HETATM    3  N   UNL     1       6.264  34.983  67.858  1.00  0.00    -0.325 N 
HETATM    4  H   UNL     1       6.839  35.540  67.241  1.00  0.00     0.169 HD
HETATM    5  O   UNL     1       4.265  33.797  67.970  1.00  0.00    -0.271 OA
BRANCH   3   6
HETATM    6  C   UNL     1       6.731  34.901  69.188  1.00  0.00     0.034 A 
HETATM    7  C   UNL     1       5.909  34.932  70.315  1.00  0.00     0.030 A 
HETATM    8  C   UNL     1       6.461  34.873  71.600  1.00  0.00     0.009 A 
HETATM    9  C   UNL     1       7.843  34.781  71.782  1.00  0.00    -0.062 A 
HETATM   10  C   UNL     1       8.440  34.711  73.156  1.00  0.00     0.048 C 
HETATM   11  C   UNL     1       8.668  34.729  70.654  1.00  0.00     0.009 A 
HETATM   12  C   UNL     1       8.116  34.790  69.371  1.00  0.00     0.030 A 
ENDBRANCH   3   6
ENDBRANCH   1   2
BRANCH   1  13
HETATM   13  N   UNL     1       5.847  34.173  64.983  1.00  0.00    -0.342 N 
HETATM   14  C   UNL     1       5.576  33.096  64.169  1.00  0.00     0.276 C 
HETATM   15  O   UNL     1       4.502  32.502  64.171  1.00  0.00    -0.265 OA
HETATM   16  H   UNL     1       6.707  34.666  64.777  1.00  0.00     0.163 HD
BRANCH  14  17
HETATM   17  C   UNL     1       6.690  32.723  63.320  1.00  0.00     0.142 A 
HETATM   18  O   UNL     1       6.463  32.427  61.998  1.00  0.00    -0.317 OA
HETATM   19  C   UNL     1       7.664  32.120  61.444  1.00  0.00     0.143 A 
HETATM   20  C   UNL     1       8.666  32.215  62.380  1.00  0.00     0.027 A 
HETATM   21  C   UNL     1       8.041  32.600  63.590  1.00  0.00     0.045 A 
ENDBRANCH  14  17
ENDBRANCH   1  13
BRANCH   1  22
HETATM   22  C   UNL     1       4.718  36.345  65.635  1.00  0.00     0.075 C 
BRANCH  22  23
HETATM   23  C   UNL     1       4.459  36.722  64.204  1.00  0.00    -0.028 A 
HETATM   24  C   UNL     1       5.194  37.657  63.403  1.00  0.00    -0.002 A 
HETATM   25  C   UNL     1       4.577  37.709  62.152  1.00  0.00     0.042 A 
HETATM   26  C   UNL     1       6.321  38.475  63.628  1.00  0.00     0.014 A 
HETATM   27  C   UNL     1       5.023  38.543  61.120  1.00  0.00     0.030 A 
HETATM   28  N   UNL     1       3.523  36.827  62.183  1.00  0.00    -0.365 N 
HETATM   29  C   UNL     1       6.136  39.349  61.372  1.00  0.00     0.002 A 
HETATM   30  C   UNL     1       6.779  39.317  62.607  1.00  0.00     0.001 A 
HETATM   31  H   UNL     1       2.894  36.657  61.410  1.00  0.00     0.165 HD
HETATM   32  C   UNL     1       3.444  36.226  63.408  1.00  0.00     0.096 A 
ENDBRANCH  22  23
ENDBRANCH   1  22
TORSDOF 6
ENDMDL
