MODEL 1
REMARK VINA RESULT:     -10.4      0.000      0.000
REMARK  6 active torsions:
REMARK  status: ('A' for Active; 'I' for Inactive)
REMARK    1  A    between atoms: O_2  and  C_3 
REMARK    2  A    between atoms: C_6  and  N_7 
REMARK    3  A    between atoms: C_16  and  C_17 
REMARK    4  A    between atoms: C_17  and  C_18 
REMARK    5  A    between atoms: C_26  and  C_27 
REMARK    6  A    between atoms: C_26  and  C_31 
ROOT
HETATM    1  N   UNL     1       4.928  27.329  52.918  1.00  0.00    -0.249 N 
HETATM    2  C   UNL     1       3.975  28.169  53.516  1.00  0.00     0.335 C 
HETATM    3  O   UNL     1       3.134  28.840  52.924  1.00  0.00    -0.246 OA
HETATM    4  N   UNL     1       4.047  28.271  54.878  1.00  0.00    -0.274 N 
HETATM    5  C   UNL     1       5.079  27.833  55.636  1.00  0.00     0.262 C 
HETATM    6  O   UNL     1       5.282  28.211  56.776  1.00  0.00    -0.267 OA
HETATM    7  C   UNL     1       5.965  26.843  55.024  1.00  0.00     0.101 C 
HETATM    8  C   UNL     1       5.854  26.641  53.704  1.00  0.00     0.132 C 
HETATM    9  N   UNL     1       6.645  25.678  53.110  1.00  0.00    -0.331 N 
HETATM   10  C   UNL     1       7.590  25.025  53.753  1.00  0.00     0.084 C 
HETATM   11  N   UNL     1       7.794  25.194  55.041  1.00  0.00    -0.351 N 
HETATM   12  H   UNL     1       8.561  24.689  55.494  1.00  0.00     0.162 HD
HETATM   13  C   UNL     1       6.911  26.088  55.929  1.00  0.00     0.264 C 
HETATM   14  H   UNL     1       3.434  28.969  55.287  1.00  0.00     0.173 HD
HETATM   15  H   UNL     1       6.522  25.476  52.121  1.00  0.00     0.168 HD
ENDROOT
BRANCH   1  16
HETATM   16  C   UNL     1       4.899  27.222  51.485  1.00  0.00     0.045 A 
HETATM   17  C   UNL     1       4.454  26.048  50.860  1.00  0.00     0.033 A 
HETATM   18  C   UNL     1       4.349  25.984  49.468  1.00  0.00     0.039 A 
HETATM   19  C   UNL     1       4.692  27.081  48.676  1.00  0.00     0.068 A 
HETATM   20  C   UNL     1       5.175  28.236  49.287  1.00  0.00     0.039 A 
HETATM   21  C   UNL     1       5.284  28.303  50.681  1.00  0.00     0.033 A 
BRANCH  19  22
HETATM   22  O   UNL     1       4.514  26.893  47.335  1.00  0.00    -0.356 OA
HETATM   23  C   UNL     1       3.265  26.351  46.918  1.00  0.00     0.210 C 
ENDBRANCH  19  22
ENDBRANCH   1  16
BRANCH  13  24
HETATM   24  C   UNL     1       6.171  25.161  56.898  1.00  0.00     0.426 C 
HETATM   25  F   UNL     1       4.976  24.816  56.345  1.00  0.00    -0.168 F 
HETATM   26  F   UNL     1       6.857  24.008  57.068  1.00  0.00    -0.168 F 
HETATM   27  F   UNL     1       5.911  25.684  58.102  1.00  0.00    -0.168 F 
ENDBRANCH  13  24
BRANCH  13  28
HETATM   28  C   UNL     1       7.854  26.937  56.789  1.00  0.00     0.426 C 
HETATM   29  F   UNL     1       8.343  27.970  56.061  1.00  0.00    -0.168 F 
HETATM   30  F   UNL     1       7.341  27.416  57.927  1.00  0.00    -0.168 F 
HETATM   31  F   UNL     1       8.932  26.174  57.127  1.00  0.00    -0.168 F 
ENDBRANCH  13  28
BRANCH  10  32
HETATM   32  C   UNL     1       8.461  24.083  52.988  1.00  0.00     0.114 C 
BRANCH  32  33
HETATM   33  C   UNL     1       8.488  22.712  53.615  1.00  0.00    -0.051 A 
HETATM   34  C   UNL     1       7.843  21.635  52.988  1.00  0.00     0.007 A 
HETATM   35  C   UNL     1       7.830  20.375  53.586  1.00  0.00     0.001 A 
HETATM   36  C   UNL     1       8.458  20.178  54.814  1.00  0.00     0.000 A 
HETATM   37  C   UNL     1       9.102  21.239  55.444  1.00  0.00     0.001 A 
HETATM   38  C   UNL     1       9.119  22.502  54.849  1.00  0.00     0.007 A 
ENDBRANCH  32  33
ENDBRANCH  10  32
TORSDOF 6
ENDMDL
MODEL 2
REMARK VINA RESULT:      -9.6      4.077      6.757
REMARK  6 active torsions:
REMARK  status: ('A' for Active; 'I' for Inactive)
REMARK    1  A    between atoms: O_2  and  C_3 
REMARK    2  A    between atoms: C_6  and  N_7 
REMARK    3  A    between atoms: C_16  and  C_17 
REMARK    4  A    between atoms: C_17  and  C_18 
REMARK    5  A    between atoms: C_26  and  C_27 
REMARK    6  A    between atoms: C_26  and  C_31 
ROOT
HETATM    1  N   UNL     1       5.196  29.106  54.402  1.00  0.00    -0.249 N 
HETATM    2  C   UNL     1       4.907  30.401  54.861  1.00  0.00     0.335 C 
HETATM    3  O   UNL     1       5.149  30.838  55.982  1.00  0.00    -0.246 OA
HETATM    4  N   UNL     1       4.249  31.210  53.975  1.00  0.00    -0.274 N 
HETATM    5  C   UNL     1       3.665  30.793  52.828  1.00  0.00     0.262 C 
HETATM    6  O   UNL     1       2.825  31.439  52.229  1.00  0.00    -0.267 OA
HETATM    7  C   UNL     1       4.105  29.500  52.304  1.00  0.00     0.101 C 
HETATM    8  C   UNL     1       4.839  28.720  53.109  1.00  0.00     0.132 C 
HETATM    9  N   UNL     1       5.307  27.516  52.621  1.00  0.00    -0.331 N 
HETATM   10  C   UNL     1       4.972  27.037  51.442  1.00  0.00     0.084 C 
HETATM   11  N   UNL     1       4.221  27.720  50.606  1.00  0.00    -0.351 N 
HETATM   12  H   UNL     1       3.959  27.295  49.711  1.00  0.00     0.162 HD
HETATM   13  C   UNL     1       3.738  29.155  50.879  1.00  0.00     0.264 C 
HETATM   14  H   UNL     1       3.942  32.099  54.356  1.00  0.00     0.173 HD
HETATM   15  H   UNL     1       5.916  26.948  53.205  1.00  0.00     0.168 HD
ENDROOT
BRANCH   1  16
HETATM   16  C   UNL     1       5.859  28.219  55.318  1.00  0.00     0.045 A 
HETATM   17  C   UNL     1       7.259  28.203  55.416  1.00  0.00     0.033 A 
HETATM   18  C   UNL     1       7.890  27.400  56.370  1.00  0.00     0.039 A 
HETATM   19  C   UNL     1       7.144  26.596  57.233  1.00  0.00     0.068 A 
HETATM   20  C   UNL     1       5.757  26.575  57.113  1.00  0.00     0.039 A 
HETATM   21  C   UNL     1       5.119  27.376  56.157  1.00  0.00     0.033 A 
BRANCH  19  22
HETATM   22  O   UNL     1       7.886  25.887  58.134  1.00  0.00    -0.356 OA
HETATM   23  C   UNL     1       8.654  24.800  57.628  1.00  0.00     0.210 C 
ENDBRANCH  19  22
ENDBRANCH   1  16
BRANCH  13  24
HETATM   24  C   UNL     1       4.439  30.062  49.863  1.00  0.00     0.426 C 
HETATM   25  F   UNL     1       5.703  30.314  50.302  1.00  0.00    -0.168 F 
HETATM   26  F   UNL     1       4.570  29.430  48.675  1.00  0.00    -0.168 F 
HETATM   27  F   UNL     1       3.853  31.246  49.654  1.00  0.00    -0.168 F 
ENDBRANCH  13  24
BRANCH  13  28
HETATM   28  C   UNL     1       2.245  29.200  50.530  1.00  0.00     0.426 C 
HETATM   29  F   UNL     1       1.512  28.726  51.566  1.00  0.00    -0.168 F 
HETATM   30  F   UNL     1       1.762  30.393  50.168  1.00  0.00    -0.168 F 
HETATM   31  F   UNL     1       2.021  28.347  49.490  1.00  0.00    -0.168 F 
ENDBRANCH  13  28
BRANCH  10  32
HETATM   32  C   UNL     1       5.447  25.674  51.058  1.00  0.00     0.114 C 
BRANCH  32  33
HETATM   33  C   UNL     1       6.251  25.030  52.160  1.00  0.00    -0.051 A 
HETATM   34  C   UNL     1       7.594  24.685  51.947  1.00  0.00     0.007 A 
HETATM   35  C   UNL     1       8.328  24.052  52.950  1.00  0.00     0.001 A 
HETATM   36  C   UNL     1       7.728  23.756  54.172  1.00  0.00     0.000 A 
HETATM   37  C   UNL     1       6.396  24.094  54.395  1.00  0.00     0.001 A 
HETATM   38  C   UNL     1       5.658  24.729  53.395  1.00  0.00     0.007 A 
ENDBRANCH  32  33
ENDBRANCH  10  32
TORSDOF 6
ENDMDL
MODEL 3
REMARK VINA RESULT:      -9.5      1.112      1.676
REMARK  6 active torsions:
REMARK  status: ('A' for Active; 'I' for Inactive)
REMARK    1  A    between atoms: O_2  and  C_3 
REMARK    2  A    between atoms: C_6  and  N_7 
REMARK    3  A    between atoms: C_16  and  C_17 
REMARK    4  A    between atoms: C_17  and  C_18 
REMARK    5  A    between atoms: C_26  and  C_27 
REMARK    6  A    between atoms: C_26  and  C_31 
ROOT
HETATM    1  N   UNL     1       4.991  28.476  53.101  1.00  0.00    -0.249 N 
HETATM    2  C   UNL     1       4.159  29.389  53.767  1.00  0.00     0.335 C 
HETATM    3  O   UNL     1       3.435  30.225  53.234  1.00  0.00    -0.246 OA
HETATM    4  N   UNL     1       4.220  29.358  55.134  1.00  0.00    -0.274 N 
HETATM    5  C   UNL     1       5.164  28.709  55.854  1.00  0.00     0.262 C 
HETATM    6  O   UNL     1       5.398  28.950  57.025  1.00  0.00    -0.267 OA
HETATM    7  C   UNL     1       5.908  27.659  55.159  1.00  0.00     0.101 C 
HETATM    8  C   UNL     1       5.793  27.594  53.826  1.00  0.00     0.132 C 
HETATM    9  N   UNL     1       6.447  26.582  53.151  1.00  0.00    -0.331 N 
HETATM   10  C   UNL     1       7.277  25.744  53.737  1.00  0.00     0.084 C 
HETATM   11  N   UNL     1       7.479  25.766  55.036  1.00  0.00    -0.351 N 
HETATM   12  H   UNL     1       8.157  25.116  55.445  1.00  0.00     0.162 HD
HETATM   13  C   UNL     1       6.719  26.697  55.997  1.00  0.00     0.264 C 
HETATM   14  H   UNL     1       3.707  30.099  55.601  1.00  0.00     0.173 HD
HETATM   15  H   UNL     1       6.315  26.489  52.147  1.00  0.00     0.168 HD
ENDROOT
BRANCH   1  16
HETATM   16  C   UNL     1       4.973  28.502  51.664  1.00  0.00     0.045 A 
HETATM   17  C   UNL     1       5.647  29.508  50.955  1.00  0.00     0.033 A 
HETATM   18  C   UNL     1       5.696  29.477  49.559  1.00  0.00     0.039 A 
HETATM   19  C   UNL     1       5.070  28.453  48.846  1.00  0.00     0.068 A 
HETATM   20  C   UNL     1       4.363  27.474  49.540  1.00  0.00     0.039 A 
HETATM   21  C   UNL     1       4.309  27.503  50.940  1.00  0.00     0.033 A 
BRANCH  19  22
HETATM   22  O   UNL     1       5.222  28.528  47.491  1.00  0.00    -0.356 OA
HETATM   23  C   UNL     1       4.619  29.637  46.832  1.00  0.00     0.210 C 
ENDBRANCH  19  22
ENDBRANCH   1  16
BRANCH  13  24
HETATM   24  C   UNL     1       5.835  25.805  56.875  1.00  0.00     0.426 C 
HETATM   25  F   UNL     1       4.844  26.568  57.413  1.00  0.00    -0.168 F 
HETATM   26  F   UNL     1       5.222  24.861  56.125  1.00  0.00    -0.168 F 
HETATM   27  F   UNL     1       6.462  25.202  57.891  1.00  0.00    -0.168 F 
ENDBRANCH  13  24
BRANCH  13  28
HETATM   28  C   UNL     1       7.759  27.320  56.936  1.00  0.00     0.426 C 
HETATM   29  F   UNL     1       8.322  28.403  56.350  1.00  0.00    -0.168 F 
HETATM   30  F   UNL     1       7.323  27.664  58.152  1.00  0.00    -0.168 F 
HETATM   31  F   UNL     1       8.770  26.422  57.114  1.00  0.00    -0.168 F 
ENDBRANCH  13  28
BRANCH  10  32
HETATM   32  C   UNL     1       8.016  24.757  52.895  1.00  0.00     0.114 C 
BRANCH  32  33
HETATM   33  C   UNL     1       7.935  23.363  53.465  1.00  0.00    -0.051 A 
HETATM   34  C   UNL     1       7.836  23.170  54.851  1.00  0.00     0.007 A 
HETATM   35  C   UNL     1       7.803  21.881  55.384  1.00  0.00     0.001 A 
HETATM   36  C   UNL     1       7.871  20.775  54.540  1.00  0.00     0.000 A 
HETATM   37  C   UNL     1       7.968  20.954  53.163  1.00  0.00     0.001 A 
HETATM   38  C   UNL     1       8.000  22.242  52.624  1.00  0.00     0.007 A 
ENDBRANCH  32  33
ENDBRANCH  10  32
TORSDOF 6
ENDMDL
MODEL 4
REMARK VINA RESULT:      -9.4      4.415      7.127
REMARK  6 active torsions:
REMARK  status: ('A' for Active; 'I' for Inactive)
REMARK    1  A    between atoms: O_2  and  C_3 
REMARK    2  A    between atoms: C_6  and  N_7 
REMARK    3  A    between atoms: C_16  and  C_17 
REMARK    4  A    between atoms: C_17  and  C_18 
REMARK    5  A    between atoms: C_26  and  C_27 
REMARK    6  A    between atoms: C_26  and  C_31 
ROOT
HETATM    1  N   UNL     1       4.504  29.294  52.305  1.00  0.00    -0.249 N 
HETATM    2  C   UNL     1       4.316  30.634  51.928  1.00  0.00     0.335 C 
HETATM    3  O   UNL     1       4.390  31.608  52.671  1.00  0.00    -0.246 OA
HETATM    4  N   UNL     1       3.970  30.838  50.620  1.00  0.00    -0.274 N 
HETATM    5  C   UNL     1       3.573  29.870  49.761  1.00  0.00     0.262 C 
HETATM    6  O   UNL     1       2.969  30.096  48.728  1.00  0.00    -0.267 OA
HETATM    7  C   UNL     1       3.920  28.495  50.122  1.00  0.00     0.101 C 
HETATM    8  C   UNL     1       4.360  28.271  51.367  1.00  0.00     0.132 C 
HETATM    9  N   UNL     1       4.740  26.990  51.717  1.00  0.00    -0.331 N 
HETATM   10  C   UNL     1       4.582  25.950  50.925  1.00  0.00     0.084 C 
HETATM   11  N   UNL     1       4.117  26.077  49.702  1.00  0.00    -0.351 N 
HETATM   12  H   UNL     1       3.981  25.236  49.132  1.00  0.00     0.162 HD
HETATM   13  C   UNL     1       3.799  27.434  49.052  1.00  0.00     0.264 C 
HETATM   14  H   UNL     1       3.723  31.794  50.388  1.00  0.00     0.173 HD
HETATM   15  H   UNL     1       5.134  26.824  52.640  1.00  0.00     0.168 HD
ENDROOT
BRANCH   1  16
HETATM   16  C   UNL     1       4.839  29.042  53.680  1.00  0.00     0.045 A 
HETATM   17  C   UNL     1       6.171  28.845  54.070  1.00  0.00     0.033 A 
HETATM   18  C   UNL     1       6.496  28.686  55.420  1.00  0.00     0.039 A 
HETATM   19  C   UNL     1       5.502  28.711  56.400  1.00  0.00     0.068 A 
HETATM   20  C   UNL     1       4.172  28.864  56.017  1.00  0.00     0.039 A 
HETATM   21  C   UNL     1       3.842  29.021  54.664  1.00  0.00     0.033 A 
BRANCH  19  22
HETATM   22  O   UNL     1       5.961  28.574  57.679  1.00  0.00    -0.356 OA
HETATM   23  C   UNL     1       7.320  28.922  57.921  1.00  0.00     0.210 C 
ENDBRANCH  19  22
ENDBRANCH   1  16
BRANCH  13  24
HETATM   24  C   UNL     1       4.810  27.634  47.919  1.00  0.00     0.426 C 
HETATM   25  F   UNL     1       5.940  28.191  48.436  1.00  0.00    -0.168 F 
HETATM   26  F   UNL     1       5.179  26.443  47.398  1.00  0.00    -0.168 F 
HETATM   27  F   UNL     1       4.402  28.428  46.922  1.00  0.00    -0.168 F 
ENDBRANCH  13  24
BRANCH  13  28
HETATM   28  C   UNL     1       2.427  27.299  48.379  1.00  0.00     0.426 C 
HETATM   29  F   UNL     1       1.448  27.652  49.246  1.00  0.00    -0.168 F 
HETATM   30  F   UNL     1       2.262  27.979  47.240  1.00  0.00    -0.168 F 
HETATM   31  F   UNL     1       2.217  25.983  48.092  1.00  0.00    -0.168 F 
ENDBRANCH  13  28
BRANCH  10  32
HETATM   32  C   UNL     1       4.925  24.593  51.445  1.00  0.00     0.114 C 
BRANCH  32  33
HETATM   33  C   UNL     1       5.789  24.668  52.679  1.00  0.00    -0.051 A 
HETATM   34  C   UNL     1       5.218  24.968  53.925  1.00  0.00     0.007 A 
HETATM   35  C   UNL     1       6.019  25.079  55.061  1.00  0.00     0.001 A 
HETATM   36  C   UNL     1       7.397  24.895  54.964  1.00  0.00     0.000 A 
HETATM   37  C   UNL     1       7.974  24.595  53.733  1.00  0.00     0.001 A 
HETATM   38  C   UNL     1       7.176  24.481  52.593  1.00  0.00     0.007 A 
ENDBRANCH  32  33
ENDBRANCH  10  32
TORSDOF 6
ENDMDL
MODEL 5
REMARK VINA RESULT:      -9.2      3.087      5.811
REMARK  6 active torsions:
REMARK  status: ('A' for Active; 'I' for Inactive)
REMARK    1  A    between atoms: O_2  and  C_3 
REMARK    2  A    between atoms: C_6  and  N_7 
REMARK    3  A    between atoms: C_16  and  C_17 
REMARK    4  A    between atoms: C_17  and  C_18 
REMARK    5  A    between atoms: C_26  and  C_27 
REMARK    6  A    between atoms: C_26  and  C_31 
ROOT
HETATM    1  N   UNL     1       3.770  29.076  52.463  1.00  0.00    -0.249 N 
HETATM    2  C   UNL     1       3.703  29.477  53.806  1.00  0.00     0.335 C 
HETATM    3  O   UNL     1       3.120  30.469  54.234  1.00  0.00    -0.246 OA
HETATM    4  N   UNL     1       4.405  28.703  54.690  1.00  0.00    -0.274 N 
HETATM    5  C   UNL     1       5.317  27.764  54.347  1.00  0.00     0.262 C 
HETATM    6  O   UNL     1       6.151  27.326  55.118  1.00  0.00    -0.267 OA
HETATM    7  C   UNL     1       5.255  27.266  52.974  1.00  0.00     0.101 C 
HETATM    8  C   UNL     1       4.496  27.940  52.100  1.00  0.00     0.132 C 
HETATM    9  N   UNL     1       4.382  27.462  50.810  1.00  0.00    -0.331 N 
HETATM   10  C   UNL     1       5.076  26.439  50.357  1.00  0.00     0.084 C 
HETATM   11  N   UNL     1       5.877  25.747  51.137  1.00  0.00    -0.351 N 
HETATM   12  H   UNL     1       6.421  24.978  50.734  1.00  0.00     0.162 HD
HETATM   13  C   UNL     1       6.016  26.000  52.648  1.00  0.00     0.264 C 
HETATM   14  H   UNL     1       4.447  29.068  55.637  1.00  0.00     0.173 HD
HETATM   15  H   UNL     1       3.759  27.934  50.159  1.00  0.00     0.168 HD
ENDROOT
BRANCH   1  16
HETATM   16  C   UNL     1       3.069  29.884  51.503  1.00  0.00     0.045 A 
HETATM   17  C   UNL     1       3.649  31.052  50.986  1.00  0.00     0.033 A 
HETATM   18  C   UNL     1       2.997  31.785  49.991  1.00  0.00     0.039 A 
HETATM   19  C   UNL     1       1.756  31.375  49.501  1.00  0.00     0.068 A 
HETATM   20  C   UNL     1       1.154  30.240  50.039  1.00  0.00     0.039 A 
HETATM   21  C   UNL     1       1.803  29.504  51.039  1.00  0.00     0.033 A 
BRANCH  19  22
HETATM   22  O   UNL     1       1.245  32.165  48.511  1.00  0.00    -0.356 OA
HETATM   23  C   UNL     1       0.109  31.670  47.809  1.00  0.00     0.210 C 
ENDBRANCH  19  22
ENDBRANCH   1  16
BRANCH  13  24
HETATM   24  C   UNL     1       5.437  24.775  53.361  1.00  0.00     0.426 C 
HETATM   25  F   UNL     1       4.111  24.684  53.066  1.00  0.00    -0.168 F 
HETATM   26  F   UNL     1       6.008  23.641  52.894  1.00  0.00    -0.168 F 
HETATM   27  F   UNL     1       5.543  24.787  54.695  1.00  0.00    -0.168 F 
ENDBRANCH  13  24
BRANCH  13  28
HETATM   28  C   UNL     1       7.517  26.008  52.965  1.00  0.00     0.426 C 
HETATM   29  F   UNL     1       7.980  27.280  52.989  1.00  0.00    -0.168 F 
HETATM   30  F   UNL     1       7.882  25.393  54.095  1.00  0.00    -0.168 F 
HETATM   31  F   UNL     1       8.175  25.389  51.944  1.00  0.00    -0.168 F 
ENDBRANCH  13  28
BRANCH  10  32
HETATM   32  C   UNL     1       4.958  26.073  48.913  1.00  0.00     0.114 C 
BRANCH  32  33
HETATM   33  C   UNL     1       3.856  26.843  48.229  1.00  0.00    -0.051 A 
HETATM   34  C   UNL     1       4.090  28.143  47.756  1.00  0.00     0.007 A 
HETATM   35  C   UNL     1       3.062  28.873  47.160  1.00  0.00     0.001 A 
HETATM   36  C   UNL     1       1.792  28.315  47.034  1.00  0.00     0.000 A 
HETATM   37  C   UNL     1       1.549  27.025  47.499  1.00  0.00     0.001 A 
HETATM   38  C   UNL     1       2.575  26.289  48.095  1.00  0.00     0.007 A 
ENDBRANCH  32  33
ENDBRANCH  10  32
TORSDOF 6
ENDMDL
MODEL 6
REMARK VINA RESULT:      -9.1      3.041      5.505
REMARK  6 active torsions:
REMARK  status: ('A' for Active; 'I' for Inactive)
REMARK    1  A    between atoms: O_2  and  C_3 
REMARK    2  A    between atoms: C_6  and  N_7 
REMARK    3  A    between atoms: C_16  and  C_17 
REMARK    4  A    between atoms: C_17  and  C_18 
REMARK    5  A    between atoms: C_26  and  C_27 
REMARK    6  A    between atoms: C_26  and  C_31 
ROOT
HETATM    1  N   UNL     1       5.223  28.196  51.428  1.00  0.00    -0.249 N 
HETATM    2  C   UNL     1       4.388  27.404  50.624  1.00  0.00     0.335 C 
HETATM    3  O   UNL     1       3.609  27.815  49.769  1.00  0.00    -0.246 OA
HETATM    4  N   UNL     1       4.428  26.059  50.874  1.00  0.00    -0.274 N 
HETATM    5  C   UNL     1       5.005  25.487  51.957  1.00  0.00     0.262 C 
HETATM    6  O   UNL     1       4.757  24.354  52.329  1.00  0.00    -0.267 OA
HETATM    7  C   UNL     1       5.982  26.300  52.681  1.00  0.00     0.101 C 
HETATM    8  C   UNL     1       6.042  27.606  52.391  1.00  0.00     0.132 C 
HETATM    9  N   UNL     1       6.989  28.385  53.026  1.00  0.00    -0.331 N 
HETATM   10  C   UNL     1       7.762  27.935  53.992  1.00  0.00     0.084 C 
HETATM   11  N   UNL     1       7.737  26.676  54.368  1.00  0.00    -0.351 N 
HETATM   12  H   UNL     1       8.333  26.376  55.146  1.00  0.00     0.162 HD
HETATM   13  C   UNL     1       6.883  25.600  53.674  1.00  0.00     0.264 C 
HETATM   14  H   UNL     1       3.738  25.510  50.372  1.00  0.00     0.173 HD
HETATM   15  H   UNL     1       7.082  29.364  52.765  1.00  0.00     0.168 HD
ENDROOT
BRANCH   1  16
HETATM   16  C   UNL     1       5.182  29.617  51.212  1.00  0.00     0.045 A 
HETATM   17  C   UNL     1       5.900  30.204  50.160  1.00  0.00     0.033 A 
HETATM   18  C   UNL     1       5.787  31.574  49.905  1.00  0.00     0.039 A 
HETATM   19  C   UNL     1       4.968  32.381  50.696  1.00  0.00     0.068 A 
HETATM   20  C   UNL     1       4.284  31.812  51.768  1.00  0.00     0.039 A 
HETATM   21  C   UNL     1       4.397  30.441  52.029  1.00  0.00     0.033 A 
BRANCH  19  22
HETATM   22  O   UNL     1       4.926  33.693  50.319  1.00  0.00    -0.356 OA
HETATM   23  C   UNL     1       6.075  34.213  49.658  1.00  0.00     0.210 C 
ENDBRANCH  19  22
ENDBRANCH   1  16
BRANCH  13  24
HETATM   24  C   UNL     1       7.854  24.631  52.993  1.00  0.00     0.426 C 
HETATM   25  F   UNL     1       8.545  25.307  52.034  1.00  0.00    -0.168 F 
HETATM   26  F   UNL     1       8.773  24.182  53.877  1.00  0.00    -0.168 F 
HETATM   27  F   UNL     1       7.284  23.577  52.397  1.00  0.00    -0.168 F 
ENDBRANCH  13  24
BRANCH  13  28
HETATM   28  C   UNL     1       6.186  24.798  54.779  1.00  0.00     0.426 C 
HETATM   29  F   UNL     1       4.918  25.246  54.948  1.00  0.00    -0.168 F 
HETATM   30  F   UNL     1       6.157  23.472  54.614  1.00  0.00    -0.168 F 
HETATM   31  F   UNL     1       6.828  25.040  55.957  1.00  0.00    -0.168 F 
ENDBRANCH  13  28
BRANCH  10  32
HETATM   32  C   UNL     1       8.675  28.892  54.686  1.00  0.00     0.114 C 
BRANCH  32  33
HETATM   33  C   UNL     1       8.146  29.287  56.043  1.00  0.00    -0.051 A 
HETATM   34  C   UNL     1       6.809  29.684  56.192  1.00  0.00     0.007 A 
HETATM   35  C   UNL     1       6.328  30.089  57.437  1.00  0.00     0.001 A 
HETATM   36  C   UNL     1       7.177  30.105  58.542  1.00  0.00     0.000 A 
HETATM   37  C   UNL     1       8.505  29.711  58.405  1.00  0.00     0.001 A 
HETATM   38  C   UNL     1       8.991  29.303  57.162  1.00  0.00     0.007 A 
ENDBRANCH  32  33
ENDBRANCH  10  32
TORSDOF 6
ENDMDL
MODEL 7
REMARK VINA RESULT:      -8.8      7.121     10.260
REMARK  6 active torsions:
REMARK  status: ('A' for Active; 'I' for Inactive)
REMARK    1  A    between atoms: O_2  and  C_3 
REMARK    2  A    between atoms: C_6  and  N_7 
REMARK    3  A    between atoms: C_16  and  C_17 
REMARK    4  A    between atoms: C_17  and  C_18 
REMARK    5  A    between atoms: C_26  and  C_27 
REMARK    6  A    between atoms: C_26  and  C_31 
ROOT
HETATM    1  N   UNL     1       7.861  31.527  60.650  1.00  0.00    -0.249 N 
HETATM    2  C   UNL     1       8.387  31.267  61.925  1.00  0.00     0.335 C 
HETATM    3  O   UNL     1       9.380  30.588  62.171  1.00  0.00    -0.246 OA
HETATM    4  N   UNL     1       7.677  31.786  62.974  1.00  0.00    -0.274 N 
HETATM    5  C   UNL     1       6.429  32.300  62.889  1.00  0.00     0.262 C 
HETATM    6  O   UNL     1       5.698  32.452  63.852  1.00  0.00    -0.267 OA
HETATM    7  C   UNL     1       5.976  32.696  61.556  1.00  0.00     0.101 C 
HETATM    8  C   UNL     1       6.703  32.291  60.506  1.00  0.00     0.132 C 
HETATM    9  N   UNL     1       6.323  32.692  59.240  1.00  0.00    -0.331 N 
HETATM   10  C   UNL     1       5.213  33.357  58.998  1.00  0.00     0.084 C 
HETATM   11  N   UNL     1       4.421  33.757  59.968  1.00  0.00    -0.351 N 
HETATM   12  H   UNL     1       3.551  34.245  59.731  1.00  0.00     0.162 HD
HETATM   13  C   UNL     1       4.745  33.570  61.460  1.00  0.00     0.264 C 
HETATM   14  H   UNL     1       7.998  31.494  63.892  1.00  0.00     0.173 HD
HETATM   15  H   UNL     1       6.905  32.441  58.445  1.00  0.00     0.168 HD
ENDROOT
BRANCH   1  16
HETATM   16  C   UNL     1       8.565  30.971  59.526  1.00  0.00     0.045 A 
HETATM   17  C   UNL     1       8.098  29.813  58.887  1.00  0.00     0.033 A 
HETATM   18  C   UNL     1       8.741  29.329  57.745  1.00  0.00     0.039 A 
HETATM   19  C   UNL     1       9.860  29.981  57.225  1.00  0.00     0.068 A 
HETATM   20  C   UNL     1      10.355  31.107  57.878  1.00  0.00     0.039 A 
HETATM   21  C   UNL     1       9.716  31.594  59.026  1.00  0.00     0.033 A 
BRANCH  19  22
HETATM   22  O   UNL     1      10.370  29.420  56.089  1.00  0.00    -0.356 OA
HETATM   23  C   UNL     1       9.453  29.138  55.038  1.00  0.00     0.210 C 
ENDBRANCH  19  22
ENDBRANCH   1  16
BRANCH  13  24
HETATM   24  C   UNL     1       4.978  34.966  62.045  1.00  0.00     0.426 C 
HETATM   25  F   UNL     1       4.405  35.886  61.221  1.00  0.00    -0.168 F 
HETATM   26  F   UNL     1       4.358  35.088  63.240  1.00  0.00    -0.168 F 
HETATM   27  F   UNL     1       6.261  35.317  62.192  1.00  0.00    -0.168 F 
ENDBRANCH  13  24
BRANCH  13  28
HETATM   28  C   UNL     1       3.475  33.034  62.132  1.00  0.00     0.426 C 
HETATM   29  F   UNL     1       3.419  31.686  62.008  1.00  0.00    -0.168 F 
HETATM   30  F   UNL     1       3.309  33.357  63.418  1.00  0.00    -0.168 F 
HETATM   31  F   UNL     1       2.395  33.517  61.456  1.00  0.00    -0.168 F 
ENDBRANCH  13  28
BRANCH  10  32
HETATM   32  C   UNL     1       4.843  33.646  57.580  1.00  0.00     0.114 C 
BRANCH  32  33
HETATM   33  C   UNL     1       4.411  32.398  56.849  1.00  0.00    -0.051 A 
HETATM   34  C   UNL     1       3.546  31.482  57.465  1.00  0.00     0.007 A 
HETATM   35  C   UNL     1       3.178  30.308  56.809  1.00  0.00     0.001 A 
HETATM   36  C   UNL     1       3.672  30.036  55.535  1.00  0.00     0.000 A 
HETATM   37  C   UNL     1       4.530  30.939  54.914  1.00  0.00     0.001 A 
HETATM   38  C   UNL     1       4.900  32.117  55.566  1.00  0.00     0.007 A 
ENDBRANCH  32  33
ENDBRANCH  10  32
TORSDOF 6
ENDMDL
MODEL 8
REMARK VINA RESULT:      -8.6      3.284      6.338
REMARK  6 active torsions:
REMARK  status: ('A' for Active; 'I' for Inactive)
REMARK    1  A    between atoms: O_2  and  C_3 
REMARK    2  A    between atoms: C_6  and  N_7 
REMARK    3  A    between atoms: C_16  and  C_17 
REMARK    4  A    between atoms: C_17  and  C_18 
REMARK    5  A    between atoms: C_26  and  C_27 
REMARK    6  A    between atoms: C_26  and  C_31 
ROOT
HETATM    1  N   UNL     1       4.111  29.101  54.169  1.00  0.00    -0.249 N 
HETATM    2  C   UNL     1       3.620  28.398  53.057  1.00  0.00     0.335 C 
HETATM    3  O   UNL     1       2.823  28.826  52.228  1.00  0.00    -0.246 OA
HETATM    4  N   UNL     1       4.045  27.102  52.942  1.00  0.00    -0.274 N 
HETATM    5  C   UNL     1       4.680  26.404  53.912  1.00  0.00     0.262 C 
HETATM    6  O   UNL     1       4.757  25.188  53.923  1.00  0.00    -0.267 OA
HETATM    7  C   UNL     1       5.306  27.187  54.977  1.00  0.00     0.101 C 
HETATM    8  C   UNL     1       4.993  28.487  55.059  1.00  0.00     0.132 C 
HETATM    9  N   UNL     1       5.607  29.259  56.025  1.00  0.00    -0.331 N 
HETATM   10  C   UNL     1       6.401  28.760  56.949  1.00  0.00     0.084 C 
HETATM   11  N   UNL     1       6.728  27.486  56.965  1.00  0.00    -0.351 N 
HETATM   12  H   UNL     1       7.324  27.135  57.721  1.00  0.00     0.162 HD
HETATM   13  C   UNL     1       6.296  26.486  55.879  1.00  0.00     0.264 C 
HETATM   14  H   UNL     1       3.593  26.569  52.206  1.00  0.00     0.173 HD
HETATM   15  H   UNL     1       5.421  30.258  56.054  1.00  0.00     0.168 HD
ENDROOT
BRANCH   1  16
HETATM   16  C   UNL     1       3.661  30.456  54.336  1.00  0.00     0.045 A 
HETATM   17  C   UNL     1       2.794  30.801  55.383  1.00  0.00     0.033 A 
HETATM   18  C   UNL     1       2.430  32.134  55.589  1.00  0.00     0.039 A 
HETATM   19  C   UNL     1       2.914  33.143  54.754  1.00  0.00     0.068 A 
HETATM   20  C   UNL     1       3.742  32.803  53.687  1.00  0.00     0.039 A 
HETATM   21  C   UNL     1       4.107  31.467  53.475  1.00  0.00     0.033 A 
BRANCH  19  22
HETATM   22  O   UNL     1       2.505  34.403  55.086  1.00  0.00    -0.356 OA
HETATM   23  C   UNL     1       2.698  34.812  56.436  1.00  0.00     0.210 C 
ENDBRANCH  19  22
ENDBRANCH   1  16
BRANCH  13  24
HETATM   24  C   UNL     1       7.564  26.062  55.132  1.00  0.00     0.426 C 
HETATM   25  F   UNL     1       7.974  27.097  54.347  1.00  0.00    -0.168 F 
HETATM   26  F   UNL     1       8.570  25.827  56.004  1.00  0.00    -0.168 F 
HETATM   27  F   UNL     1       7.429  24.995  54.337  1.00  0.00    -0.168 F 
ENDBRANCH  13  24
BRANCH  13  28
HETATM   28  C   UNL     1       5.788  25.231  56.601  1.00  0.00     0.426 C 
HETATM   29  F   UNL     1       4.474  25.367  56.899  1.00  0.00    -0.168 F 
HETATM   30  F   UNL     1       5.969  24.071  55.961  1.00  0.00    -0.168 F 
HETATM   31  F   UNL     1       6.435  25.132  57.797  1.00  0.00    -0.168 F 
ENDBRANCH  13  28
BRANCH  10  32
HETATM   32  C   UNL     1       6.926  29.667  58.013  1.00  0.00     0.114 C 
BRANCH  32  33
HETATM   33  C   UNL     1       8.398  29.944  57.836  1.00  0.00    -0.051 A 
HETATM   34  C   UNL     1       8.999  31.026  58.497  1.00  0.00     0.007 A 
HETATM   35  C   UNL     1      10.351  31.309  58.303  1.00  0.00     0.001 A 
HETATM   36  C   UNL     1      11.114  30.518  57.447  1.00  0.00     0.000 A 
HETATM   37  C   UNL     1      10.529  29.441  56.787  1.00  0.00     0.001 A 
HETATM   38  C   UNL     1       9.176  29.152  56.979  1.00  0.00     0.007 A 
ENDBRANCH  32  33
ENDBRANCH  10  32
TORSDOF 6
ENDMDL
MODEL 9
REMARK VINA RESULT:      -8.4      4.678      8.288
REMARK  6 active torsions:
REMARK  status: ('A' for Active; 'I' for Inactive)
REMARK    1  A    between atoms: O_2  and  C_3 
REMARK    2  A    between atoms: C_6  and  N_7 
REMARK    3  A    between atoms: C_16  and  C_17 
REMARK    4  A    between atoms: C_17  and  C_18 
REMARK    5  A    between atoms: C_26  and  C_27 
REMARK    6  A    between atoms: C_26  and  C_31 
ROOT
HETATM    1  N   UNL     1       5.361  27.321  53.032  1.00  0.00    -0.249 N 
HETATM    2  C   UNL     1       5.496  26.099  52.355  1.00  0.00     0.335 C 
HETATM    3  O   UNL     1       6.103  25.112  52.763  1.00  0.00    -0.246 OA
HETATM    4  N   UNL     1       4.938  26.048  51.107  1.00  0.00    -0.274 N 
HETATM    5  C   UNL     1       4.497  27.121  50.410  1.00  0.00     0.262 C 
HETATM    6  O   UNL     1       4.311  27.108  49.206  1.00  0.00    -0.267 OA
HETATM    7  C   UNL     1       4.226  28.334  51.180  1.00  0.00     0.101 C 
HETATM    8  C   UNL     1       4.671  28.381  52.443  1.00  0.00     0.132 C 
HETATM    9  N   UNL     1       4.386  29.495  53.207  1.00  0.00    -0.331 N 
HETATM   10  C   UNL     1       3.799  30.570  52.723  1.00  0.00     0.084 C 
HETATM   11  N   UNL     1       3.369  30.623  51.482  1.00  0.00    -0.351 N 
HETATM   12  H   UNL     1       2.946  31.491  51.139  1.00  0.00     0.162 HD
HETATM   13  C   UNL     1       3.427  29.430  50.512  1.00  0.00     0.264 C 
HETATM   14  H   UNL     1       5.143  25.205  50.581  1.00  0.00     0.173 HD
HETATM   15  H   UNL     1       4.666  29.512  54.185  1.00  0.00     0.168 HD
ENDROOT
BRANCH   1  16
HETATM   16  C   UNL     1       5.963  27.418  54.334  1.00  0.00     0.045 A 
HETATM   17  C   UNL     1       7.295  27.832  54.481  1.00  0.00     0.033 A 
HETATM   18  C   UNL     1       7.844  28.005  55.754  1.00  0.00     0.039 A 
HETATM   19  C   UNL     1       7.084  27.762  56.899  1.00  0.00     0.068 A 
HETATM   20  C   UNL     1       5.773  27.310  56.761  1.00  0.00     0.039 A 
HETATM   21  C   UNL     1       5.219  27.132  55.487  1.00  0.00     0.033 A 
BRANCH  19  22
HETATM   22  O   UNL     1       7.734  27.999  58.076  1.00  0.00    -0.356 OA
HETATM   23  C   UNL     1       8.189  29.329  58.307  1.00  0.00     0.210 C 
ENDBRANCH  19  22
ENDBRANCH   1  16
BRANCH  13  24
HETATM   24  C   UNL     1       1.980  29.008  50.238  1.00  0.00     0.426 C 
HETATM   25  F   UNL     1       1.418  28.590  51.405  1.00  0.00    -0.168 F 
HETATM   26  F   UNL     1       1.249  30.067  49.823  1.00  0.00    -0.168 F 
HETATM   27  F   UNL     1       1.833  28.015  49.353  1.00  0.00    -0.168 F 
ENDBRANCH  13  24
BRANCH  13  28
HETATM   28  C   UNL     1       3.976  29.959  49.182  1.00  0.00     0.426 C 
HETATM   29  F   UNL     1       5.326  29.852  49.162  1.00  0.00    -0.168 F 
HETATM   30  F   UNL     1       3.481  29.394  48.076  1.00  0.00    -0.168 F 
HETATM   31  F   UNL     1       3.705  31.293  49.105  1.00  0.00    -0.168 F 
ENDBRANCH  13  28
BRANCH  10  32
HETATM   32  C   UNL     1       3.638  31.762  53.609  1.00  0.00     0.114 C 
BRANCH  32  33
HETATM   33  C   UNL     1       3.895  31.422  55.056  1.00  0.00    -0.051 A 
HETATM   34  C   UNL     1       5.169  31.610  55.612  1.00  0.00     0.007 A 
HETATM   35  C   UNL     1       5.420  31.258  56.938  1.00  0.00     0.001 A 
HETATM   36  C   UNL     1       4.404  30.713  57.720  1.00  0.00     0.000 A 
HETATM   37  C   UNL     1       3.135  30.523  57.179  1.00  0.00     0.001 A 
HETATM   38  C   UNL     1       2.878  30.875  55.853  1.00  0.00     0.007 A 
ENDBRANCH  32  33
ENDBRANCH  10  32
TORSDOF 6
ENDMDL
MODEL 10
REMARK VINA RESULT:      -8.3      3.255      6.208
REMARK  6 active torsions:
REMARK  status: ('A' for Active; 'I' for Inactive)
REMARK    1  A    between atoms: O_2  and  C_3 
REMARK    2  A    between atoms: C_6  and  N_7 
REMARK    3  A    between atoms: C_16  and  C_17 
REMARK    4  A    between atoms: C_17  and  C_18 
REMARK    5  A    between atoms: C_26  and  C_27 
REMARK    6  A    between atoms: C_26  and  C_31 
ROOT
HETATM    1  N   UNL     1       4.348  29.083  54.054  1.00  0.00    -0.249 N 
HETATM    2  C   UNL     1       4.239  28.722  55.407  1.00  0.00     0.335 C 
HETATM    3  O   UNL     1       3.816  29.436  56.311  1.00  0.00    -0.246 OA
HETATM    4  N   UNL     1       4.702  27.474  55.725  1.00  0.00    -0.274 N 
HETATM    5  C   UNL     1       5.449  26.692  54.912  1.00  0.00     0.262 C 
HETATM    6  O   UNL     1       6.114  25.753  55.310  1.00  0.00    -0.267 OA
HETATM    7  C   UNL     1       5.417  27.014  53.486  1.00  0.00     0.101 C 
HETATM    8  C   UNL     1       4.877  28.187  53.125  1.00  0.00     0.132 C 
HETATM    9  N   UNL     1       4.791  28.493  51.782  1.00  0.00    -0.331 N 
HETATM   10  C   UNL     1       5.318  27.744  50.836  1.00  0.00     0.084 C 
HETATM   11  N   UNL     1       5.903  26.598  51.108  1.00  0.00    -0.351 N 
HETATM   12  H   UNL     1       6.327  26.062  50.344  1.00  0.00     0.162 HD
HETATM   13  C   UNL     1       5.953  25.984  52.518  1.00  0.00     0.264 C 
HETATM   14  H   UNL     1       4.728  27.269  56.719  1.00  0.00     0.173 HD
HETATM   15  H   UNL     1       4.327  29.352  51.498  1.00  0.00     0.168 HD
ENDROOT
BRANCH   1  16
HETATM   16  C   UNL     1       3.898  30.399  53.690  1.00  0.00     0.045 A 
HETATM   17  C   UNL     1       4.396  31.535  54.345  1.00  0.00     0.033 A 
HETATM   18  C   UNL     1       4.018  32.814  53.927  1.00  0.00     0.039 A 
HETATM   19  C   UNL     1       3.134  32.983  52.860  1.00  0.00     0.068 A 
HETATM   20  C   UNL     1       2.603  31.859  52.232  1.00  0.00     0.039 A 
HETATM   21  C   UNL     1       2.977  30.576  52.650  1.00  0.00     0.033 A 
BRANCH  19  22
HETATM   22  O   UNL     1       2.874  34.285  52.538  1.00  0.00    -0.356 OA
HETATM   23  C   UNL     1       2.477  34.552  51.197  1.00  0.00     0.210 C 
ENDBRANCH  19  22
ENDBRANCH   1  16
BRANCH  13  24
HETATM   24  C   UNL     1       5.094  24.717  52.484  1.00  0.00     0.426 C 
HETATM   25  F   UNL     1       4.555  24.588  51.240  1.00  0.00    -0.168 F 
HETATM   26  F   UNL     1       5.860  23.620  52.680  1.00  0.00    -0.168 F 
HETATM   27  F   UNL     1       4.079  24.691  53.356  1.00  0.00    -0.168 F 
ENDBRANCH  13  24
BRANCH  13  28
HETATM   28  C   UNL     1       7.394  25.515  52.752  1.00  0.00     0.426 C 
HETATM   29  F   UNL     1       7.908  25.007  51.606  1.00  0.00    -0.168 F 
HETATM   30  F   UNL     1       8.239  26.431  53.236  1.00  0.00    -0.168 F 
HETATM   31  F   UNL     1       7.371  24.483  53.642  1.00  0.00    -0.168 F 
ENDBRANCH  13  28
BRANCH  10  32
HETATM   32  C   UNL     1       5.262  28.224  49.423  1.00  0.00     0.114 C 
BRANCH  32  33
HETATM   33  C   UNL     1       4.091  27.635  48.677  1.00  0.00    -0.051 A 
HETATM   34  C   UNL     1       2.811  28.195  48.814  1.00  0.00     0.007 A 
HETATM   35  C   UNL     1       1.719  27.627  48.159  1.00  0.00     0.001 A 
HETATM   36  C   UNL     1       1.892  26.495  47.364  1.00  0.00     0.000 A 
HETATM   37  C   UNL     1       3.157  25.932  47.221  1.00  0.00     0.001 A 
HETATM   38  C   UNL     1       4.255  26.498  47.873  1.00  0.00     0.007 A 
ENDBRANCH  32  33
ENDBRANCH  10  32
TORSDOF 6
ENDMDL
