MODEL 1
REMARK VINA RESULT:      -9.7      0.000      0.000
REMARK  8 active torsions:
REMARK  status: ('A' for Active; 'I' for Inactive)
REMARK    1  A    between atoms: O_2  and  C_3 
REMARK    2  A    between atoms: C_5  and  N_6 
REMARK       I    between atoms: N_6  and  C_7 
REMARK    3  A    between atoms: C_7  and  C_8 
REMARK    4  A    between atoms: C_8  and  N_9 
REMARK    5  A    between atoms: C_8  and  C_25 
REMARK    6  A    between atoms: N_9  and  C_12 
REMARK    7  A    between atoms: C_12  and  C_13 
REMARK    8  A    between atoms: C_16  and  N_17 
ROOT
HETATM    1  C   UNL     1       7.101  30.504  58.512  1.00  0.00     0.310 C 
ENDROOT
BRANCH   1   2
HETATM    2  C   UNL     1       6.941  31.540  59.654  1.00  0.00     0.257 C 
HETATM    3  N   UNL     1       7.021  31.052  60.940  1.00  0.00    -0.325 N 
HETATM    4  H   UNL     1       7.188  30.059  61.074  1.00  0.00     0.169 HD
HETATM    5  O   UNL     1       6.700  32.702  59.313  1.00  0.00    -0.270 OA
BRANCH   3   6
HETATM    6  C   UNL     1       6.933  31.802  62.136  1.00  0.00     0.037 A 
HETATM    7  C   UNL     1       5.733  32.113  62.780  1.00  0.00     0.066 A 
HETATM    8  C   UNL     1       5.718  32.881  63.952  1.00  0.00     0.070 A 
HETATM    9  C   UNL     1       6.919  33.328  64.496  1.00  0.00     0.037 A 
HETATM   10  C   UNL     1       8.125  33.020  63.864  1.00  0.00     0.005 A 
HETATM   11  C   UNL     1       8.132  32.267  62.688  1.00  0.00     0.029 A 
BRANCH   8  12
HETATM   12  O   UNL     1       4.470  33.118  64.458  1.00  0.00    -0.356 OA
HETATM   13  C   UNL     1       4.391  33.894  65.648  1.00  0.00     0.210 C 
ENDBRANCH   8  12
ENDBRANCH   3   6
ENDBRANCH   1   2
BRANCH   1  14
HETATM   14  N   UNL     1       6.223  30.952  57.366  1.00  0.00    -0.054 N 
HETATM   15  H   UNL     1       6.013  31.950  57.551  1.00  0.00     0.278 HD
HETATM   16  H   UNL     1       6.781  30.996  56.505  1.00  0.00     0.278 HD
BRANCH  14  17
HETATM   17  C   UNL     1       4.969  30.210  57.118  1.00  0.00     0.272 C 
BRANCH  17  18
HETATM   18  C   UNL     1       5.288  28.942  56.381  1.00  0.00    -0.033 A 
HETATM   19  C   UNL     1       5.150  27.701  57.007  1.00  0.00     0.011 A 
HETATM   20  C   UNL     1       5.597  26.533  56.375  1.00  0.00     0.030 A 
HETATM   21  C   UNL     1       6.199  26.567  55.111  1.00  0.00     0.037 A 
HETATM   22  C   UNL     1       6.291  27.813  54.475  1.00  0.00     0.030 A 
HETATM   23  C   UNL     1       5.849  28.986  55.100  1.00  0.00     0.011 A 
BRANCH  21  24
HETATM   24  N   UNL     1       6.718  25.396  54.496  1.00  0.00    -0.318 N 
HETATM   25  C   UNL     1       6.139  24.699  53.421  1.00  0.00     0.224 C 
HETATM   26  O   UNL     1       5.136  24.973  52.781  1.00  0.00    -0.273 OA
HETATM   27  C   UNL     1       6.930  23.429  53.211  1.00  0.00     0.105 C 
HETATM   28  C   UNL     1       8.235  23.709  53.928  1.00  0.00     0.029 C 
HETATM   29  C   UNL     1       7.830  24.650  55.041  1.00  0.00     0.133 C 
ENDBRANCH  21  24
ENDBRANCH  17  18
ENDBRANCH  14  17
ENDBRANCH   1  14
BRANCH   1  30
HETATM   30  C   UNL     1       8.527  30.299  58.060  1.00  0.00    -0.019 A 
HETATM   31  C   UNL     1       8.862  29.183  57.277  1.00  0.00     0.010 A 
HETATM   32  C   UNL     1      10.174  28.996  56.836  1.00  0.00     0.001 A 
HETATM   33  C   UNL     1      11.160  29.920  57.167  1.00  0.00     0.000 A 
HETATM   34  C   UNL     1      10.842  31.034  57.939  1.00  0.00     0.001 A 
HETATM   35  C   UNL     1       9.534  31.227  58.384  1.00  0.00     0.010 A 
ENDBRANCH   1  30
TORSDOF 8
ENDMDL
MODEL 2
REMARK VINA RESULT:      -9.5      3.835     10.301
REMARK  8 active torsions:
REMARK  status: ('A' for Active; 'I' for Inactive)
REMARK    1  A    between atoms: O_2  and  C_3 
REMARK    2  A    between atoms: C_5  and  N_6 
REMARK       I    between atoms: N_6  and  C_7 
REMARK    3  A    between atoms: C_7  and  C_8 
REMARK    4  A    between atoms: C_8  and  N_9 
REMARK    5  A    between atoms: C_8  and  C_25 
REMARK    6  A    between atoms: N_9  and  C_12 
REMARK    7  A    between atoms: C_12  and  C_13 
REMARK    8  A    between atoms: C_16  and  N_17 
ROOT
HETATM    1  C   UNL     1       7.046  24.960  53.899  1.00  0.00     0.310 C 
ENDROOT
BRANCH   1   2
HETATM    2  C   UNL     1       6.939  25.549  52.469  1.00  0.00     0.257 C 
HETATM    3  N   UNL     1       5.713  26.063  52.108  1.00  0.00    -0.325 N 
HETATM    4  H   UNL     1       4.958  26.042  52.787  1.00  0.00     0.169 HD
HETATM    5  O   UNL     1       7.945  25.455  51.759  1.00  0.00    -0.270 OA
BRANCH   3   6
HETATM    6  C   UNL     1       5.382  26.674  50.875  1.00  0.00     0.037 A 
HETATM    7  C   UNL     1       4.854  25.989  49.779  1.00  0.00     0.066 A 
HETATM    8  C   UNL     1       4.570  26.654  48.578  1.00  0.00     0.070 A 
HETATM    9  C   UNL     1       4.800  28.024  48.480  1.00  0.00     0.037 A 
HETATM   10  C   UNL     1       5.323  28.720  49.572  1.00  0.00     0.005 A 
HETATM   11  C   UNL     1       5.618  28.049  50.760  1.00  0.00     0.029 A 
BRANCH   8  12
HETATM   12  O   UNL     1       4.074  25.850  47.589  1.00  0.00    -0.356 OA
HETATM   13  C   UNL     1       3.031  24.951  47.948  1.00  0.00     0.210 C 
ENDBRANCH   8  12
ENDBRANCH   3   6
ENDBRANCH   1   2
BRANCH   1  14
HETATM   14  N   UNL     1       5.654  24.937  54.485  1.00  0.00    -0.054 N 
HETATM   15  H   UNL     1       5.088  25.563  53.884  1.00  0.00     0.278 HD
HETATM   16  H   UNL     1       5.227  24.018  54.316  1.00  0.00     0.278 HD
BRANCH  14  17
HETATM   17  C   UNL     1       5.489  25.316  55.904  1.00  0.00     0.272 C 
BRANCH  17  18
HETATM   18  C   UNL     1       6.449  26.423  56.230  1.00  0.00    -0.033 A 
HETATM   19  C   UNL     1       7.564  26.184  57.036  1.00  0.00     0.011 A 
HETATM   20  C   UNL     1       8.369  27.246  57.468  1.00  0.00     0.030 A 
HETATM   21  C   UNL     1       8.083  28.572  57.119  1.00  0.00     0.037 A 
HETATM   22  C   UNL     1       6.987  28.794  56.274  1.00  0.00     0.030 A 
HETATM   23  C   UNL     1       6.176  27.738  55.838  1.00  0.00     0.011 A 
BRANCH  21  24
HETATM   24  N   UNL     1       8.853  29.660  57.612  1.00  0.00    -0.318 N 
HETATM   25  C   UNL     1      10.048  30.148  57.056  1.00  0.00     0.224 C 
HETATM   26  O   UNL     1      10.625  29.788  56.042  1.00  0.00    -0.273 OA
HETATM   27  C   UNL     1      10.608  31.188  57.998  1.00  0.00     0.105 C 
HETATM   28  C   UNL     1       9.416  31.559  58.857  1.00  0.00     0.029 C 
HETATM   29  C   UNL     1       8.598  30.287  58.890  1.00  0.00     0.133 C 
ENDBRANCH  21  24
ENDBRANCH  17  18
ENDBRANCH  14  17
ENDBRANCH   1  14
BRANCH   1  30
HETATM   30  C   UNL     1       7.687  23.594  53.958  1.00  0.00    -0.019 A 
HETATM   31  C   UNL     1       8.594  23.287  54.985  1.00  0.00     0.010 A 
HETATM   32  C   UNL     1       9.175  22.020  55.060  1.00  0.00     0.001 A 
HETATM   33  C   UNL     1       8.855  21.047  54.117  1.00  0.00     0.000 A 
HETATM   34  C   UNL     1       7.955  21.336  53.095  1.00  0.00     0.001 A 
HETATM   35  C   UNL     1       7.371  22.600  53.013  1.00  0.00     0.010 A 
ENDBRANCH   1  30
TORSDOF 8
ENDMDL
MODEL 3
REMARK VINA RESULT:      -9.5      3.163     10.578
REMARK  8 active torsions:
REMARK  status: ('A' for Active; 'I' for Inactive)
REMARK    1  A    between atoms: O_2  and  C_3 
REMARK    2  A    between atoms: C_5  and  N_6 
REMARK       I    between atoms: N_6  and  C_7 
REMARK    3  A    between atoms: C_7  and  C_8 
REMARK    4  A    between atoms: C_8  and  N_9 
REMARK    5  A    between atoms: C_8  and  C_25 
REMARK    6  A    between atoms: N_9  and  C_12 
REMARK    7  A    between atoms: C_12  and  C_13 
REMARK    8  A    between atoms: C_16  and  N_17 
ROOT
HETATM    1  C   UNL     1       6.933  25.838  53.675  1.00  0.00     0.310 C 
ENDROOT
BRANCH   1   2
HETATM    2  C   UNL     1       5.709  26.051  52.748  1.00  0.00     0.257 C 
HETATM    3  N   UNL     1       5.911  26.846  51.640  1.00  0.00    -0.325 N 
HETATM    4  H   UNL     1       6.836  27.235  51.483  1.00  0.00     0.169 HD
HETATM    5  O   UNL     1       4.647  25.538  53.112  1.00  0.00    -0.270 OA
BRANCH   3   6
HETATM    6  C   UNL     1       4.960  27.161  50.642  1.00  0.00     0.037 A 
HETATM    7  C   UNL     1       4.830  26.469  49.436  1.00  0.00     0.066 A 
HETATM    8  C   UNL     1       3.879  26.850  48.480  1.00  0.00     0.070 A 
HETATM    9  C   UNL     1       3.036  27.927  48.742  1.00  0.00     0.037 A 
HETATM   10  C   UNL     1       3.153  28.624  49.946  1.00  0.00     0.005 A 
HETATM   11  C   UNL     1       4.112  28.248  50.887  1.00  0.00     0.029 A 
BRANCH   8  12
HETATM   12  O   UNL     1       3.882  26.090  47.343  1.00  0.00    -0.356 OA
HETATM   13  C   UNL     1       2.624  25.608  46.884  1.00  0.00     0.210 C 
ENDBRANCH   8  12
ENDBRANCH   3   6
ENDBRANCH   1   2
BRANCH   1  14
HETATM   14  N   UNL     1       6.652  26.561  54.972  1.00  0.00    -0.054 N 
HETATM   15  H   UNL     1       5.849  26.064  55.398  1.00  0.00     0.278 HD
HETATM   16  H   UNL     1       7.411  26.373  55.639  1.00  0.00     0.278 HD
BRANCH  14  17
HETATM   17  C   UNL     1       6.377  28.011  54.915  1.00  0.00     0.272 C 
BRANCH  17  18
HETATM   18  C   UNL     1       6.869  28.653  56.180  1.00  0.00    -0.033 A 
HETATM   19  C   UNL     1       6.167  29.713  56.759  1.00  0.00     0.011 A 
HETATM   20  C   UNL     1       6.709  30.413  57.846  1.00  0.00     0.030 A 
HETATM   21  C   UNL     1       7.961  30.085  58.379  1.00  0.00     0.037 A 
HETATM   22  C   UNL     1       8.635  28.991  57.817  1.00  0.00     0.030 A 
HETATM   23  C   UNL     1       8.103  28.287  56.730  1.00  0.00     0.011 A 
BRANCH  21  24
HETATM   24  N   UNL     1       8.547  30.835  59.435  1.00  0.00    -0.318 N 
HETATM   25  C   UNL     1       9.617  31.739  59.313  1.00  0.00     0.224 C 
HETATM   26  O   UNL     1      10.209  32.096  58.307  1.00  0.00    -0.273 OA
HETATM   27  C   UNL     1      10.022  32.169  60.704  1.00  0.00     0.105 C 
HETATM   28  C   UNL     1       8.817  31.803  61.546  1.00  0.00     0.029 C 
HETATM   29  C   UNL     1       8.235  30.606  60.828  1.00  0.00     0.133 C 
ENDBRANCH  21  24
ENDBRANCH  17  18
ENDBRANCH  14  17
ENDBRANCH   1  14
BRANCH   1  30
HETATM   30  C   UNL     1       7.276  24.387  53.921  1.00  0.00    -0.019 A 
HETATM   31  C   UNL     1       7.216  23.862  55.222  1.00  0.00     0.010 A 
HETATM   32  C   UNL     1       7.509  22.518  55.456  1.00  0.00     0.001 A 
HETATM   33  C   UNL     1       7.860  21.684  54.397  1.00  0.00     0.000 A 
HETATM   34  C   UNL     1       7.920  22.190  53.102  1.00  0.00     0.001 A 
HETATM   35  C   UNL     1       7.629  23.533  52.860  1.00  0.00     0.010 A 
ENDBRANCH   1  30
TORSDOF 8
ENDMDL
MODEL 4
REMARK VINA RESULT:      -9.2      3.176     10.371
REMARK  8 active torsions:
REMARK  status: ('A' for Active; 'I' for Inactive)
REMARK    1  A    between atoms: O_2  and  C_3 
REMARK    2  A    between atoms: C_5  and  N_6 
REMARK       I    between atoms: N_6  and  C_7 
REMARK    3  A    between atoms: C_7  and  C_8 
REMARK    4  A    between atoms: C_8  and  N_9 
REMARK    5  A    between atoms: C_8  and  C_25 
REMARK    6  A    between atoms: N_9  and  C_12 
REMARK    7  A    between atoms: C_12  and  C_13 
REMARK    8  A    between atoms: C_16  and  N_17 
ROOT
HETATM    1  C   UNL     1       7.187  26.026  53.232  1.00  0.00     0.310 C 
ENDROOT
BRANCH   1   2
HETATM    2  C   UNL     1       5.858  26.275  52.473  1.00  0.00     0.257 C 
HETATM    3  N   UNL     1       5.970  26.685  51.162  1.00  0.00    -0.325 N 
HETATM    4  H   UNL     1       6.897  26.791  50.763  1.00  0.00     0.169 HD
HETATM    5  O   UNL     1       4.818  26.138  53.124  1.00  0.00    -0.270 OA
BRANCH   3   6
HETATM    6  C   UNL     1       4.907  26.946  50.265  1.00  0.00     0.037 A 
HETATM    7  C   UNL     1       4.199  28.149  50.219  1.00  0.00     0.066 A 
HETATM    8  C   UNL     1       3.141  28.332  49.318  1.00  0.00     0.070 A 
HETATM    9  C   UNL     1       2.799  27.306  48.441  1.00  0.00     0.037 A 
HETATM   10  C   UNL     1       3.503  26.101  48.475  1.00  0.00     0.005 A 
HETATM   11  C   UNL     1       4.547  25.919  49.385  1.00  0.00     0.029 A 
BRANCH   8  12
HETATM   12  O   UNL     1       2.531  29.554  49.401  1.00  0.00    -0.356 OA
HETATM   13  C   UNL     1       3.228  30.664  48.845  1.00  0.00     0.210 C 
ENDBRANCH   8  12
ENDBRANCH   3   6
ENDBRANCH   1   2
BRANCH   1  14
HETATM   14  N   UNL     1       7.180  26.908  54.459  1.00  0.00    -0.054 N 
HETATM   15  H   UNL     1       6.182  27.106  54.653  1.00  0.00     0.278 HD
HETATM   16  H   UNL     1       7.462  26.356  55.278  1.00  0.00     0.278 HD
BRANCH  14  17
HETATM   17  C   UNL     1       7.946  28.171  54.414  1.00  0.00     0.272 C 
BRANCH  17  18
HETATM   18  C   UNL     1       8.041  28.737  55.800  1.00  0.00    -0.033 A 
HETATM   19  C   UNL     1       6.909  28.818  56.615  1.00  0.00     0.011 A 
HETATM   20  C   UNL     1       6.966  29.489  57.844  1.00  0.00     0.030 A 
HETATM   21  C   UNL     1       8.142  30.102  58.292  1.00  0.00     0.037 A 
HETATM   22  C   UNL     1       9.282  29.975  57.486  1.00  0.00     0.030 A 
HETATM   23  C   UNL     1       9.235  29.308  56.255  1.00  0.00     0.011 A 
BRANCH  21  24
HETATM   24  N   UNL     1       8.188  30.844  59.503  1.00  0.00    -0.318 N 
HETATM   25  C   UNL     1       7.481  32.028  59.775  1.00  0.00     0.224 C 
HETATM   26  O   UNL     1       6.670  32.616  59.076  1.00  0.00    -0.273 OA
HETATM   27  C   UNL     1       7.962  32.561  61.105  1.00  0.00     0.105 C 
HETATM   28  C   UNL     1       8.628  31.359  61.741  1.00  0.00     0.029 C 
HETATM   29  C   UNL     1       9.140  30.571  60.555  1.00  0.00     0.133 C 
ENDBRANCH  21  24
ENDBRANCH  17  18
ENDBRANCH  14  17
ENDBRANCH   1  14
BRANCH   1  30
HETATM   30  C   UNL     1       7.427  24.581  53.599  1.00  0.00    -0.019 A 
HETATM   31  C   UNL     1       7.307  24.166  54.935  1.00  0.00     0.010 A 
HETATM   32  C   UNL     1       7.506  22.828  55.281  1.00  0.00     0.001 A 
HETATM   33  C   UNL     1       7.821  21.892  54.300  1.00  0.00     0.000 A 
HETATM   34  C   UNL     1       7.940  22.288  52.970  1.00  0.00     0.001 A 
HETATM   35  C   UNL     1       7.743  23.623  52.618  1.00  0.00     0.010 A 
ENDBRANCH   1  30
TORSDOF 8
ENDMDL
MODEL 5
REMARK VINA RESULT:      -9.1      3.333      9.896
REMARK  8 active torsions:
REMARK  status: ('A' for Active; 'I' for Inactive)
REMARK    1  A    between atoms: O_2  and  C_3 
REMARK    2  A    between atoms: C_5  and  N_6 
REMARK       I    between atoms: N_6  and  C_7 
REMARK    3  A    between atoms: C_7  and  C_8 
REMARK    4  A    between atoms: C_8  and  N_9 
REMARK    5  A    between atoms: C_8  and  C_25 
REMARK    6  A    between atoms: N_9  and  C_12 
REMARK    7  A    between atoms: C_12  and  C_13 
REMARK    8  A    between atoms: C_16  and  N_17 
ROOT
HETATM    1  C   UNL     1       7.666  24.519  54.856  1.00  0.00     0.310 C 
ENDROOT
BRANCH   1   2
HETATM    2  C   UNL     1       6.544  25.229  54.055  1.00  0.00     0.257 C 
HETATM    3  N   UNL     1       6.949  26.019  53.002  1.00  0.00    -0.325 N 
HETATM    4  H   UNL     1       7.942  26.089  52.800  1.00  0.00     0.169 HD
HETATM    5  O   UNL     1       5.390  25.068  54.464  1.00  0.00    -0.270 OA
BRANCH   3   6
HETATM    6  C   UNL     1       6.114  26.740  52.116  1.00  0.00     0.037 A 
HETATM    7  C   UNL     1       5.534  26.194  50.968  1.00  0.00     0.066 A 
HETATM    8  C   UNL     1       4.734  26.972  50.121  1.00  0.00     0.070 A 
HETATM    9  C   UNL     1       4.497  28.308  50.435  1.00  0.00     0.037 A 
HETATM   10  C   UNL     1       5.068  28.863  51.582  1.00  0.00     0.005 A 
HETATM   11  C   UNL     1       5.876  28.086  52.414  1.00  0.00     0.029 A 
BRANCH   8  12
HETATM   12  O   UNL     1       4.251  26.306  49.029  1.00  0.00    -0.356 OA
HETATM   13  C   UNL     1       4.728  26.722  47.754  1.00  0.00     0.210 C 
ENDBRANCH   8  12
ENDBRANCH   3   6
ENDBRANCH   1   2
BRANCH   1  14
HETATM   14  N   UNL     1       7.399  24.762  56.324  1.00  0.00    -0.054 N 
HETATM   15  H   UNL     1       6.430  25.125  56.373  1.00  0.00     0.278 HD
HETATM   16  H   UNL     1       7.326  23.861  56.811  1.00  0.00     0.278 HD
BRANCH  14  17
HETATM   17  C   UNL     1       8.313  25.661  57.058  1.00  0.00     0.272 C 
BRANCH  17  18
HETATM   18  C   UNL     1       7.727  27.043  57.082  1.00  0.00    -0.033 A 
HETATM   19  C   UNL     1       8.554  28.166  57.163  1.00  0.00     0.011 A 
HETATM   20  C   UNL     1       8.003  29.441  57.344  1.00  0.00     0.030 A 
HETATM   21  C   UNL     1       6.621  29.634  57.459  1.00  0.00     0.037 A 
HETATM   22  C   UNL     1       5.800  28.505  57.333  1.00  0.00     0.030 A 
HETATM   23  C   UNL     1       6.341  27.226  57.153  1.00  0.00     0.011 A 
BRANCH  21  24
HETATM   24  N   UNL     1       6.061  30.915  57.714  1.00  0.00    -0.318 N 
HETATM   25  C   UNL     1       5.312  31.686  56.810  1.00  0.00     0.224 C 
HETATM   26  O   UNL     1       4.952  31.406  55.676  1.00  0.00    -0.273 OA
HETATM   27  C   UNL     1       5.072  33.039  57.439  1.00  0.00     0.105 C 
HETATM   28  C   UNL     1       5.337  32.790  58.910  1.00  0.00     0.029 C 
HETATM   29  C   UNL     1       6.369  31.684  58.899  1.00  0.00     0.133 C 
ENDBRANCH  21  24
ENDBRANCH  17  18
ENDBRANCH  14  17
ENDBRANCH   1  14
BRANCH   1  30
HETATM   30  C   UNL     1       7.797  23.044  54.561  1.00  0.00    -0.019 A 
HETATM   31  C   UNL     1       7.998  22.607  53.242  1.00  0.00     0.010 A 
HETATM   32  C   UNL     1       8.141  21.247  52.962  1.00  0.00     0.001 A 
HETATM   33  C   UNL     1       8.092  20.312  53.992  1.00  0.00     0.000 A 
HETATM   34  C   UNL     1       7.898  20.731  55.306  1.00  0.00     0.001 A 
HETATM   35  C   UNL     1       7.753  22.088  55.593  1.00  0.00     0.010 A 
ENDBRANCH   1  30
TORSDOF 8
ENDMDL
MODEL 6
REMARK VINA RESULT:      -9.0      2.709      9.675
REMARK  8 active torsions:
REMARK  status: ('A' for Active; 'I' for Inactive)
REMARK    1  A    between atoms: O_2  and  C_3 
REMARK    2  A    between atoms: C_5  and  N_6 
REMARK       I    between atoms: N_6  and  C_7 
REMARK    3  A    between atoms: C_7  and  C_8 
REMARK    4  A    between atoms: C_8  and  N_9 
REMARK    5  A    between atoms: C_8  and  C_25 
REMARK    6  A    between atoms: N_9  and  C_12 
REMARK    7  A    between atoms: C_12  and  C_13 
REMARK    8  A    between atoms: C_16  and  N_17 
ROOT
HETATM    1  C   UNL     1       4.852  27.336  53.342  1.00  0.00     0.310 C 
ENDROOT
BRANCH   1   2
HETATM    2  C   UNL     1       5.298  25.860  53.501  1.00  0.00     0.257 C 
HETATM    3  N   UNL     1       6.635  25.648  53.757  1.00  0.00    -0.325 N 
HETATM    4  H   UNL     1       7.248  26.453  53.838  1.00  0.00     0.169 HD
HETATM    5  O   UNL     1       4.428  25.001  53.329  1.00  0.00    -0.270 OA
BRANCH   3   6
HETATM    6  C   UNL     1       7.268  24.400  53.966  1.00  0.00     0.037 A 
HETATM    7  C   UNL     1       7.561  23.871  55.225  1.00  0.00     0.066 A 
HETATM    8  C   UNL     1       8.212  22.637  55.358  1.00  0.00     0.070 A 
HETATM    9  C   UNL     1       8.557  21.915  54.218  1.00  0.00     0.037 A 
HETATM   10  C   UNL     1       8.265  22.432  52.955  1.00  0.00     0.005 A 
HETATM   11  C   UNL     1       7.630  23.669  52.829  1.00  0.00     0.029 A 
BRANCH   8  12
HETATM   12  O   UNL     1       8.447  22.257  56.651  1.00  0.00    -0.356 OA
HETATM   13  C   UNL     1       8.457  20.860  56.924  1.00  0.00     0.210 C 
ENDBRANCH   8  12
ENDBRANCH   3   6
ENDBRANCH   1   2
BRANCH   1  14
HETATM   14  N   UNL     1       5.589  28.148  54.382  1.00  0.00    -0.054 N 
HETATM   15  H   UNL     1       6.540  27.739  54.431  1.00  0.00     0.278 HD
HETATM   16  H   UNL     1       5.769  29.090  54.016  1.00  0.00     0.278 HD
BRANCH  14  17
HETATM   17  C   UNL     1       5.008  28.236  55.738  1.00  0.00     0.272 C 
BRANCH  17  18
HETATM   18  C   UNL     1       5.933  29.024  56.618  1.00  0.00    -0.033 A 
HETATM   19  C   UNL     1       7.085  28.436  57.147  1.00  0.00     0.011 A 
HETATM   20  C   UNL     1       7.861  29.121  58.092  1.00  0.00     0.030 A 
HETATM   21  C   UNL     1       7.511  30.400  58.541  1.00  0.00     0.037 A 
HETATM   22  C   UNL     1       6.378  30.995  57.970  1.00  0.00     0.030 A 
HETATM   23  C   UNL     1       5.595  30.319  57.026  1.00  0.00     0.011 A 
BRANCH  21  24
HETATM   24  N   UNL     1       8.253  31.070  59.551  1.00  0.00    -0.318 N 
HETATM   25  C   UNL     1       9.461  31.765  59.367  1.00  0.00     0.224 C 
HETATM   26  O   UNL     1      10.074  31.977  58.332  1.00  0.00    -0.273 OA
HETATM   27  C   UNL     1       9.980  32.163  60.729  1.00  0.00     0.105 C 
HETATM   28  C   UNL     1       8.757  32.046  61.616  1.00  0.00     0.029 C 
HETATM   29  C   UNL     1       7.950  30.947  60.959  1.00  0.00     0.133 C 
ENDBRANCH  21  24
ENDBRANCH  17  18
ENDBRANCH  14  17
ENDBRANCH   1  14
BRANCH   1  30
HETATM   30  C   UNL     1       5.065  27.899  51.957  1.00  0.00    -0.019 A 
HETATM   31  C   UNL     1       5.367  29.261  51.791  1.00  0.00     0.010 A 
HETATM   32  C   UNL     1       5.587  29.787  50.517  1.00  0.00     0.001 A 
HETATM   33  C   UNL     1       5.512  28.961  49.398  1.00  0.00     0.000 A 
HETATM   34  C   UNL     1       5.218  27.609  49.547  1.00  0.00     0.001 A 
HETATM   35  C   UNL     1       4.997  27.077  50.818  1.00  0.00     0.010 A 
ENDBRANCH   1  30
TORSDOF 8
ENDMDL
MODEL 7
REMARK VINA RESULT:      -8.9      3.507      6.814
REMARK  8 active torsions:
REMARK  status: ('A' for Active; 'I' for Inactive)
REMARK    1  A    between atoms: O_2  and  C_3 
REMARK    2  A    between atoms: C_5  and  N_6 
REMARK       I    between atoms: N_6  and  C_7 
REMARK    3  A    between atoms: C_7  and  C_8 
REMARK    4  A    between atoms: C_8  and  N_9 
REMARK    5  A    between atoms: C_8  and  C_25 
REMARK    6  A    between atoms: N_9  and  C_12 
REMARK    7  A    between atoms: C_12  and  C_13 
REMARK    8  A    between atoms: C_16  and  N_17 
ROOT
HETATM    1  C   UNL     1       6.655  25.006  56.189  1.00  0.00     0.310 C 
ENDROOT
BRANCH   1   2
HETATM    2  C   UNL     1       7.615  25.977  56.924  1.00  0.00     0.257 C 
HETATM    3  N   UNL     1       7.550  27.301  56.551  1.00  0.00    -0.325 N 
HETATM    4  H   UNL     1       6.883  27.573  55.835  1.00  0.00     0.169 HD
HETATM    5  O   UNL     1       8.392  25.470  57.739  1.00  0.00    -0.270 OA
BRANCH   3   6
HETATM    6  C   UNL     1       8.302  28.370  57.094  1.00  0.00     0.037 A 
HETATM    7  C   UNL     1       7.946  29.072  58.247  1.00  0.00     0.066 A 
HETATM    8  C   UNL     1       8.726  30.137  58.717  1.00  0.00     0.070 A 
HETATM    9  C   UNL     1       9.887  30.492  58.034  1.00  0.00     0.037 A 
HETATM   10  C   UNL     1      10.255  29.795  56.883  1.00  0.00     0.005 A 
HETATM   11  C   UNL     1       9.465  28.744  56.412  1.00  0.00     0.029 A 
BRANCH   8  12
HETATM   12  O   UNL     1       8.243  30.739  59.846  1.00  0.00    -0.356 OA
HETATM   13  C   UNL     1       8.999  30.575  61.041  1.00  0.00     0.210 C 
ENDBRANCH   8  12
ENDBRANCH   3   6
ENDBRANCH   1   2
BRANCH   1  14
HETATM   14  N   UNL     1       5.673  25.845  55.405  1.00  0.00    -0.054 N 
HETATM   15  H   UNL     1       5.006  26.218  56.104  1.00  0.00     0.278 HD
HETATM   16  H   UNL     1       6.142  26.695  55.068  1.00  0.00     0.278 HD
BRANCH  14  17
HETATM   17  C   UNL     1       4.937  25.202  54.297  1.00  0.00     0.272 C 
BRANCH  17  18
HETATM   18  C   UNL     1       4.981  26.098  53.094  1.00  0.00    -0.033 A 
HETATM   19  C   UNL     1       4.590  27.436  53.187  1.00  0.00     0.011 A 
HETATM   20  C   UNL     1       4.481  28.226  52.035  1.00  0.00     0.030 A 
HETATM   21  C   UNL     1       4.749  27.708  50.762  1.00  0.00     0.037 A 
HETATM   22  C   UNL     1       5.183  26.378  50.687  1.00  0.00     0.030 A 
HETATM   23  C   UNL     1       5.294  25.579  51.832  1.00  0.00     0.011 A 
BRANCH  21  24
HETATM   24  N   UNL     1       4.572  28.484  49.584  1.00  0.00    -0.318 N 
HETATM   25  C   UNL     1       5.328  29.608  49.212  1.00  0.00     0.224 C 
HETATM   26  O   UNL     1       6.293  30.105  49.773  1.00  0.00    -0.273 OA
HETATM   27  C   UNL     1       4.684  30.216  47.987  1.00  0.00     0.105 C 
HETATM   28  C   UNL     1       3.816  29.094  47.457  1.00  0.00     0.029 C 
HETATM   29  C   UNL     1       3.438  28.323  48.702  1.00  0.00     0.133 C 
ENDBRANCH  21  24
ENDBRANCH  17  18
ENDBRANCH  14  17
ENDBRANCH   1  14
BRANCH   1  30
HETATM   30  C   UNL     1       7.352  24.005  55.299  1.00  0.00    -0.019 A 
HETATM   31  C   UNL     1       7.380  22.647  55.655  1.00  0.00     0.010 A 
HETATM   32  C   UNL     1       8.004  21.712  54.828  1.00  0.00     0.001 A 
HETATM   33  C   UNL     1       8.600  22.119  53.637  1.00  0.00     0.000 A 
HETATM   34  C   UNL     1       8.576  23.461  53.269  1.00  0.00     0.001 A 
HETATM   35  C   UNL     1       7.956  24.402  54.091  1.00  0.00     0.010 A 
ENDBRANCH   1  30
TORSDOF 8
ENDMDL
MODEL 8
REMARK VINA RESULT:      -8.8      4.011      7.537
REMARK  8 active torsions:
REMARK  status: ('A' for Active; 'I' for Inactive)
REMARK    1  A    between atoms: O_2  and  C_3 
REMARK    2  A    between atoms: C_5  and  N_6 
REMARK       I    between atoms: N_6  and  C_7 
REMARK    3  A    between atoms: C_7  and  C_8 
REMARK    4  A    between atoms: C_8  and  N_9 
REMARK    5  A    between atoms: C_8  and  C_25 
REMARK    6  A    between atoms: N_9  and  C_12 
REMARK    7  A    between atoms: C_12  and  C_13 
REMARK    8  A    between atoms: C_16  and  N_17 
ROOT
HETATM    1  C   UNL     1       6.522  29.181  57.047  1.00  0.00     0.310 C 
ENDROOT
BRANCH   1   2
HETATM    2  C   UNL     1       5.801  29.499  55.712  1.00  0.00     0.257 C 
HETATM    3  N   UNL     1       5.647  28.449  54.834  1.00  0.00    -0.325 N 
HETATM    4  H   UNL     1       5.996  27.534  55.103  1.00  0.00     0.169 HD
HETATM    5  O   UNL     1       5.478  30.676  55.528  1.00  0.00    -0.270 OA
BRANCH   3   6
HETATM    6  C   UNL     1       5.002  28.488  53.574  1.00  0.00     0.037 A 
HETATM    7  C   UNL     1       5.473  27.835  52.433  1.00  0.00     0.066 A 
HETATM    8  C   UNL     1       4.796  27.935  51.210  1.00  0.00     0.070 A 
HETATM    9  C   UNL     1       3.623  28.682  51.133  1.00  0.00     0.037 A 
HETATM   10  C   UNL     1       3.140  29.334  52.269  1.00  0.00     0.005 A 
HETATM   11  C   UNL     1       3.828  29.243  53.481  1.00  0.00     0.029 A 
BRANCH   8  12
HETATM   12  O   UNL     1       5.385  27.258  50.179  1.00  0.00    -0.356 OA
HETATM   13  C   UNL     1       4.553  26.899  49.081  1.00  0.00     0.210 C 
ENDBRANCH   8  12
ENDBRANCH   3   6
ENDBRANCH   1   2
BRANCH   1  14
HETATM   14  N   UNL     1       6.329  27.708  57.327  1.00  0.00    -0.054 N 
HETATM   15  H   UNL     1       5.517  27.652  57.968  1.00  0.00     0.278 HD
HETATM   16  H   UNL     1       5.980  27.242  56.482  1.00  0.00     0.278 HD
BRANCH  14  17
HETATM   17  C   UNL     1       7.467  26.951  57.889  1.00  0.00     0.272 C 
BRANCH  17  18
HETATM   18  C   UNL     1       7.563  25.624  57.194  1.00  0.00    -0.033 A 
HETATM   19  C   UNL     1       8.662  24.788  57.405  1.00  0.00     0.011 A 
HETATM   20  C   UNL     1       8.828  23.626  56.639  1.00  0.00     0.030 A 
HETATM   21  C   UNL     1       7.915  23.270  55.640  1.00  0.00     0.037 A 
HETATM   22  C   UNL     1       6.794  24.094  55.468  1.00  0.00     0.030 A 
HETATM   23  C   UNL     1       6.620  25.258  56.227  1.00  0.00     0.011 A 
BRANCH  21  24
HETATM   24  N   UNL     1       8.114  22.132  54.812  1.00  0.00    -0.318 N 
HETATM   25  C   UNL     1       8.200  20.798  55.244  1.00  0.00     0.224 C 
HETATM   26  O   UNL     1       8.072  20.347  56.373  1.00  0.00    -0.273 OA
HETATM   27  C   UNL     1       8.589  19.948  54.057  1.00  0.00     0.105 C 
HETATM   28  C   UNL     1       8.257  20.833  52.872  1.00  0.00     0.029 C 
HETATM   29  C   UNL     1       8.459  22.232  53.411  1.00  0.00     0.133 C 
ENDBRANCH  21  24
ENDBRANCH  17  18
ENDBRANCH  14  17
ENDBRANCH   1  14
BRANCH   1  30
HETATM   30  C   UNL     1       7.985  29.553  57.062  1.00  0.00    -0.019 A 
HETATM   31  C   UNL     1       8.547  30.148  58.203  1.00  0.00     0.010 A 
HETATM   32  C   UNL     1       9.904  30.476  58.234  1.00  0.00     0.001 A 
HETATM   33  C   UNL     1      10.713  30.210  57.133  1.00  0.00     0.000 A 
HETATM   34  C   UNL     1      10.171  29.616  55.997  1.00  0.00     0.001 A 
HETATM   35  C   UNL     1       8.816  29.286  55.958  1.00  0.00     0.010 A 
ENDBRANCH   1  30
TORSDOF 8
ENDMDL
MODEL 9
REMARK VINA RESULT:      -8.8      3.651      9.659
REMARK  8 active torsions:
REMARK  status: ('A' for Active; 'I' for Inactive)
REMARK    1  A    between atoms: O_2  and  C_3 
REMARK    2  A    between atoms: C_5  and  N_6 
REMARK       I    between atoms: N_6  and  C_7 
REMARK    3  A    between atoms: C_7  and  C_8 
REMARK    4  A    between atoms: C_8  and  N_9 
REMARK    5  A    between atoms: C_8  and  C_25 
REMARK    6  A    between atoms: N_9  and  C_12 
REMARK    7  A    between atoms: C_12  and  C_13 
REMARK    8  A    between atoms: C_16  and  N_17 
ROOT
HETATM    1  C   UNL     1       5.985  25.069  54.565  1.00  0.00     0.310 C 
ENDROOT
BRANCH   1   2
HETATM    2  C   UNL     1       5.142  25.417  53.312  1.00  0.00     0.257 C 
HETATM    3  N   UNL     1       5.525  26.538  52.608  1.00  0.00    -0.325 N 
HETATM    4  H   UNL     1       6.332  27.064  52.932  1.00  0.00     0.169 HD
HETATM    5  O   UNL     1       4.168  24.694  53.085  1.00  0.00    -0.270 OA
BRANCH   3   6
HETATM    6  C   UNL     1       4.932  27.038  51.425  1.00  0.00     0.037 A 
HETATM    7  C   UNL     1       4.217  28.235  51.352  1.00  0.00     0.066 A 
HETATM    8  C   UNL     1       3.635  28.659  50.150  1.00  0.00     0.070 A 
HETATM    9  C   UNL     1       3.786  27.885  49.002  1.00  0.00     0.037 A 
HETATM   10  C   UNL     1       4.503  26.688  49.062  1.00  0.00     0.005 A 
HETATM   11  C   UNL     1       5.067  26.264  50.267  1.00  0.00     0.029 A 
BRANCH   8  12
HETATM   12  O   UNL     1       2.952  29.841  50.237  1.00  0.00    -0.356 OA
HETATM   13  C   UNL     1       1.530  29.769  50.216  1.00  0.00     0.210 C 
ENDBRANCH   8  12
ENDBRANCH   3   6
ENDBRANCH   1   2
BRANCH   1  14
HETATM   14  N   UNL     1       5.025  24.849  55.711  1.00  0.00    -0.054 N 
HETATM   15  H   UNL     1       4.145  24.517  55.276  1.00  0.00     0.278 HD
HETATM   16  H   UNL     1       5.326  24.033  56.257  1.00  0.00     0.278 HD
BRANCH  14  17
HETATM   17  C   UNL     1       4.745  25.985  56.614  1.00  0.00     0.272 C 
BRANCH  17  18
HETATM   18  C   UNL     1       5.967  26.851  56.705  1.00  0.00    -0.033 A 
HETATM   19  C   UNL     1       7.097  26.416  57.402  1.00  0.00     0.011 A 
HETATM   20  C   UNL     1       8.175  27.284  57.621  1.00  0.00     0.030 A 
HETATM   21  C   UNL     1       8.155  28.607  57.162  1.00  0.00     0.037 A 
HETATM   22  C   UNL     1       7.035  29.017  56.426  1.00  0.00     0.030 A 
HETATM   23  C   UNL     1       5.952  28.157  56.204  1.00  0.00     0.011 A 
BRANCH  21  24
HETATM   24  N   UNL     1       9.213  29.514  57.442  1.00  0.00    -0.318 N 
HETATM   25  C   UNL     1       9.178  30.564  58.375  1.00  0.00     0.224 C 
HETATM   26  O   UNL     1       8.286  30.872  59.151  1.00  0.00    -0.273 OA
HETATM   27  C   UNL     1      10.446  31.371  58.215  1.00  0.00     0.105 C 
HETATM   28  C   UNL     1      11.366  30.429  57.465  1.00  0.00     0.029 C 
HETATM   29  C   UNL     1      10.414  29.591  56.640  1.00  0.00     0.133 C 
ENDBRANCH  21  24
ENDBRANCH  17  18
ENDBRANCH  14  17
ENDBRANCH   1  14
BRANCH   1  30
HETATM   30  C   UNL     1       6.900  23.881  54.383  1.00  0.00    -0.019 A 
HETATM   31  C   UNL     1       7.290  23.118  55.495  1.00  0.00     0.010 A 
HETATM   32  C   UNL     1       8.118  22.006  55.334  1.00  0.00     0.001 A 
HETATM   33  C   UNL     1       8.561  21.642  54.066  1.00  0.00     0.000 A 
HETATM   34  C   UNL     1       8.179  22.387  52.953  1.00  0.00     0.001 A 
HETATM   35  C   UNL     1       7.353  23.500  53.107  1.00  0.00     0.010 A 
ENDBRANCH   1  30
TORSDOF 8
ENDMDL
MODEL 10
REMARK VINA RESULT:      -8.7      2.027      9.644
REMARK  8 active torsions:
REMARK  status: ('A' for Active; 'I' for Inactive)
REMARK    1  A    between atoms: O_2  and  C_3 
REMARK    2  A    between atoms: C_5  and  N_6 
REMARK       I    between atoms: N_6  and  C_7 
REMARK    3  A    between atoms: C_7  and  C_8 
REMARK    4  A    between atoms: C_8  and  N_9 
REMARK    5  A    between atoms: C_8  and  C_25 
REMARK    6  A    between atoms: N_9  and  C_12 
REMARK    7  A    between atoms: C_12  and  C_13 
REMARK    8  A    between atoms: C_16  and  N_17 
ROOT
HETATM    1  C   UNL     1       7.285  29.801  57.804  1.00  0.00     0.310 C 
ENDROOT
BRANCH   1   2
HETATM    2  C   UNL     1       7.888  28.609  57.017  1.00  0.00     0.257 C 
HETATM    3  N   UNL     1       7.363  27.365  57.291  1.00  0.00    -0.325 N 
HETATM    4  H   UNL     1       6.614  27.293  57.973  1.00  0.00     0.169 HD
HETATM    5  O   UNL     1       8.824  28.870  56.254  1.00  0.00    -0.270 OA
BRANCH   3   6
HETATM    6  C   UNL     1       7.730  26.140  56.684  1.00  0.00     0.037 A 
HETATM    7  C   UNL     1       7.383  25.776  55.382  1.00  0.00     0.066 A 
HETATM    8  C   UNL     1       7.762  24.535  54.851  1.00  0.00     0.070 A 
HETATM    9  C   UNL     1       8.511  23.656  55.628  1.00  0.00     0.037 A 
HETATM   10  C   UNL     1       8.868  24.011  56.930  1.00  0.00     0.005 A 
HETATM   11  C   UNL     1       8.475  25.243  57.458  1.00  0.00     0.029 A 
BRANCH   8  12
HETATM   12  O   UNL     1       7.335  24.313  53.571  1.00  0.00    -0.356 OA
HETATM   13  C   UNL     1       7.903  25.125  52.549  1.00  0.00     0.210 C 
ENDBRANCH   8  12
ENDBRANCH   3   6
ENDBRANCH   1   2
BRANCH   1  14
HETATM   14  N   UNL     1       8.418  30.743  58.140  1.00  0.00    -0.054 N 
HETATM   15  H   UNL     1       8.996  30.799  57.282  1.00  0.00     0.278 HD
HETATM   16  H   UNL     1       8.052  31.699  58.227  1.00  0.00     0.278 HD
BRANCH  14  17
HETATM   17  C   UNL     1       9.270  30.420  59.303  1.00  0.00     0.272 C 
BRANCH  17  18
HETATM   18  C   UNL     1       8.749  31.146  60.509  1.00  0.00    -0.033 A 
HETATM   19  C   UNL     1       8.912  30.609  61.788  1.00  0.00     0.011 A 
HETATM   20  C   UNL     1       8.290  31.206  62.893  1.00  0.00     0.030 A 
HETATM   21  C   UNL     1       7.484  32.343  62.756  1.00  0.00     0.037 A 
HETATM   22  C   UNL     1       7.364  32.897  61.474  1.00  0.00     0.030 A 
HETATM   23  C   UNL     1       7.981  32.307  60.363  1.00  0.00     0.011 A 
BRANCH  21  24
HETATM   24  N   UNL     1       6.793  32.910  63.860  1.00  0.00    -0.318 N 
HETATM   25  C   UNL     1       5.411  32.829  64.102  1.00  0.00     0.224 C 
HETATM   26  O   UNL     1       4.554  32.231  63.468  1.00  0.00    -0.273 OA
HETATM   27  C   UNL     1       5.092  33.717  65.283  1.00  0.00     0.105 C 
HETATM   28  C   UNL     1       6.442  33.915  65.943  1.00  0.00     0.029 C 
HETATM   29  C   UNL     1       7.415  33.829  64.787  1.00  0.00     0.133 C 
ENDBRANCH  21  24
ENDBRANCH  17  18
ENDBRANCH  14  17
ENDBRANCH   1  14
BRANCH   1  30
HETATM   30  C   UNL     1       6.173  30.520  57.078  1.00  0.00    -0.019 A 
HETATM   31  C   UNL     1       5.648  29.985  55.891  1.00  0.00     0.010 A 
HETATM   32  C   UNL     1       4.605  30.631  55.225  1.00  0.00     0.001 A 
HETATM   33  C   UNL     1       4.074  31.812  55.737  1.00  0.00     0.000 A 
HETATM   34  C   UNL     1       4.581  32.352  56.915  1.00  0.00     0.001 A 
HETATM   35  C   UNL     1       5.624  31.712  57.586  1.00  0.00     0.010 A 
ENDBRANCH   1  30
TORSDOF 8
ENDMDL
