MODEL 1
REMARK VINA RESULT:     -10.8      0.000      0.000
REMARK  10 active torsions:
REMARK  status: ('A' for Active; 'I' for Inactive)
REMARK    1  A    between atoms: C_2  and  C_5 
REMARK    2  A    between atoms: C_5  and  C_6 
REMARK    3  A    between atoms: C_6  and  N_7 
REMARK    4  A    between atoms: N_7  and  C_10 
REMARK    5  A    between atoms: C_16  and  N_17 
REMARK       I    between atoms: N_17  and  C_18 
REMARK    6  A    between atoms: C_18  and  C_20 
REMARK    7  A    between atoms: C_24  and  C_25 
REMARK    8  A    between atoms: C_25  and  O_26 
REMARK    9  A    between atoms: O_26  and  C_27 
REMARK       I    between atoms: C_27  and  N_29 
REMARK   10  A    between atoms: N_29  and  C_30 
ROOT
HETATM    1  C   UNL     1       7.755  24.597  55.282  1.00  0.00     0.036 A 
HETATM    2  C   UNL     1       8.618  23.653  55.843  1.00  0.00     0.031 A 
HETATM    3  C   UNL     1       8.847  22.432  55.198  1.00  0.00     0.025 A 
HETATM    4  C   UNL     1       8.221  22.147  53.982  1.00  0.00     0.044 A 
HETATM    5  C   UNL     1       7.362  23.090  53.414  1.00  0.00     0.025 A 
HETATM    6  C   UNL     1       7.129  24.307  54.063  1.00  0.00     0.031 A 
HETATM    7  C   UNL     1       8.456  20.892  53.330  1.00  0.00     0.099 C 
HETATM    8  N   UNL     1       8.649  19.867  52.821  1.00  0.00    -0.191 NA
ENDROOT
BRANCH   1   9
HETATM    9  N   UNL     1       7.462  25.835  55.877  1.00  0.00    -0.303 N 
HETATM   10  C   UNL     1       6.498  26.129  56.798  1.00  0.00     0.365 C 
HETATM   11  O   UNL     1       5.702  25.364  57.324  1.00  0.00    -0.238 OA
HETATM   12  H   UNL     1       8.044  26.626  55.632  1.00  0.00     0.171 HD
BRANCH  10  13
HETATM   13  O   UNL     1       6.556  27.463  57.056  1.00  0.00    -0.299 OA
BRANCH  13  14
HETATM   14  C   UNL     1       7.230  28.258  56.071  1.00  0.00     0.219 C 
BRANCH  14  15
HETATM   15  C   UNL     1       8.310  29.113  56.691  1.00  0.00    -0.033 A 
HETATM   16  C   UNL     1       9.600  29.146  56.148  1.00  0.00     0.009 A 
HETATM   17  C   UNL     1      10.586  29.959  56.711  1.00  0.00     0.002 A 
HETATM   18  C   UNL     1      10.293  30.760  57.817  1.00  0.00     0.017 A 
HETATM   19  C   UNL     1       9.003  30.747  58.358  1.00  0.00     0.033 A 
HETATM   20  C   UNL     1       8.023  29.913  57.805  1.00  0.00     0.026 A 
BRANCH  19  21
HETATM   21  C   UNL     1       8.623  31.570  59.530  1.00  0.00     0.257 C 
HETATM   22  N   UNL     1       7.696  31.006  60.456  1.00  0.00    -0.303 N 
HETATM   23  H   UNL     1       7.309  30.090  60.309  1.00  0.00     0.171 HD
HETATM   24  O   UNL     1       9.051  32.695  59.699  1.00  0.00    -0.267 OA
BRANCH  22  25
HETATM   25  C   UNL     1       7.312  31.624  61.568  1.00  0.00     0.152 A 
HETATM   26  N   UNL     1       6.024  31.980  61.757  1.00  0.00    -0.339 N 
HETATM   27  C   UNL     1       5.808  32.656  62.939  1.00  0.00     0.024 A 
HETATM   28  H   UNL     1       5.315  31.767  61.059  1.00  0.00     0.168 HD
HETATM   29  C   UNL     1       4.477  33.222  63.272  1.00  0.00     0.060 C 
HETATM   30  C   UNL     1       6.929  32.794  63.711  1.00  0.00     0.011 A 
HETATM   31  C   UNL     1       4.438  33.710  64.738  1.00  0.00     0.039 C 
HETATM   32  C   UNL     1       5.740  34.383  65.245  1.00  0.00     0.191 C 
HETATM   33  C   UNL     1       6.971  33.447  65.059  1.00  0.00     0.081 C 
HETATM   34  S   UNL     1       8.277  32.086  62.953  1.00  0.00    -0.056 SA
BRANCH  32  35
HETATM   35  N   UNL     1       6.014  35.701  64.533  1.00  0.00    -0.070 N 
HETATM   36  H   UNL     1       6.369  35.549  63.579  1.00  0.00     0.277 HD
HETATM   37  H   UNL     1       6.793  36.159  65.037  1.00  0.00     0.277 HD
BRANCH  35  38
HETATM   38  C   UNL     1       4.873  36.695  64.500  1.00  0.00     0.241 C 
BRANCH  38  39
HETATM   39  C   UNL     1       5.047  37.617  63.307  1.00  0.00     0.144 C 
BRANCH  39  40
HETATM   40  C   UNL     1       4.697  36.856  62.050  1.00  0.00     0.389 C 
HETATM   41  F   UNL     1       5.663  35.962  61.768  1.00  0.00    -0.171 F 
HETATM   42  F   UNL     1       4.601  37.715  61.015  1.00  0.00    -0.171 F 
HETATM   43  F   UNL     1       3.528  36.212  62.189  1.00  0.00    -0.171 F 
ENDBRANCH  39  40
ENDBRANCH  38  39
ENDBRANCH  35  38
ENDBRANCH  32  35
ENDBRANCH  22  25
ENDBRANCH  19  21
ENDBRANCH  14  15
ENDBRANCH  13  14
ENDBRANCH  10  13
ENDBRANCH   1   9
TORSDOF 10
ENDMDL
MODEL 2
REMARK VINA RESULT:     -10.7      2.678      3.318
REMARK  10 active torsions:
REMARK  status: ('A' for Active; 'I' for Inactive)
REMARK    1  A    between atoms: C_2  and  C_5 
REMARK    2  A    between atoms: C_5  and  C_6 
REMARK    3  A    between atoms: C_6  and  N_7 
REMARK    4  A    between atoms: N_7  and  C_10 
REMARK    5  A    between atoms: C_16  and  N_17 
REMARK       I    between atoms: N_17  and  C_18 
REMARK    6  A    between atoms: C_18  and  C_20 
REMARK    7  A    between atoms: C_24  and  C_25 
REMARK    8  A    between atoms: C_25  and  O_26 
REMARK    9  A    between atoms: O_26  and  C_27 
REMARK       I    between atoms: C_27  and  N_29 
REMARK   10  A    between atoms: N_29  and  C_30 
ROOT
HETATM    1  C   UNL     1       7.700  24.777  54.891  1.00  0.00     0.036 A 
HETATM    2  C   UNL     1       7.929  24.660  53.518  1.00  0.00     0.031 A 
HETATM    3  C   UNL     1       8.081  23.398  52.931  1.00  0.00     0.025 A 
HETATM    4  C   UNL     1       7.999  22.241  53.711  1.00  0.00     0.044 A 
HETATM    5  C   UNL     1       7.763  22.353  55.082  1.00  0.00     0.025 A 
HETATM    6  C   UNL     1       7.618  23.615  55.669  1.00  0.00     0.031 A 
HETATM    7  C   UNL     1       8.161  20.953  53.103  1.00  0.00     0.099 C 
HETATM    8  N   UNL     1       8.306  19.918  52.598  1.00  0.00    -0.191 NA
ENDROOT
BRANCH   1   9
HETATM    9  N   UNL     1       7.554  26.007  55.554  1.00  0.00    -0.303 N 
HETATM   10  C   UNL     1       6.489  26.860  55.538  1.00  0.00     0.365 C 
HETATM   11  O   UNL     1       5.419  26.716  54.964  1.00  0.00    -0.238 OA
HETATM   12  H   UNL     1       8.310  26.313  56.152  1.00  0.00     0.171 HD
BRANCH  10  13
HETATM   13  O   UNL     1       6.809  27.946  56.290  1.00  0.00    -0.299 OA
BRANCH  13  14
HETATM   14  C   UNL     1       7.732  27.710  57.361  1.00  0.00     0.219 C 
BRANCH  14  15
HETATM   15  C   UNL     1       8.530  28.950  57.691  1.00  0.00    -0.033 A 
HETATM   16  C   UNL     1       9.687  29.273  56.973  1.00  0.00     0.009 A 
HETATM   17  C   UNL     1      10.404  30.434  57.267  1.00  0.00     0.002 A 
HETATM   18  C   UNL     1       9.968  31.297  58.275  1.00  0.00     0.017 A 
HETATM   19  C   UNL     1       8.803  30.992  58.989  1.00  0.00     0.033 A 
HETATM   20  C   UNL     1       8.099  29.815  58.707  1.00  0.00     0.026 A 
BRANCH  19  21
HETATM   21  C   UNL     1       8.284  31.861  60.072  1.00  0.00     0.257 C 
HETATM   22  N   UNL     1       6.931  31.666  60.478  1.00  0.00    -0.303 N 
HETATM   23  H   UNL     1       6.352  30.973  60.037  1.00  0.00     0.171 HD
HETATM   24  O   UNL     1       8.960  32.731  60.585  1.00  0.00    -0.267 OA
BRANCH  22  25
HETATM   25  C   UNL     1       6.363  32.349  61.466  1.00  0.00     0.152 A 
HETATM   26  N   UNL     1       6.347  33.699  61.461  1.00  0.00    -0.339 N 
HETATM   27  C   UNL     1       5.764  34.247  62.584  1.00  0.00     0.024 A 
HETATM   28  H   UNL     1       6.755  34.222  60.690  1.00  0.00     0.168 HD
HETATM   29  C   UNL     1       5.751  35.714  62.807  1.00  0.00     0.060 C 
HETATM   30  C   UNL     1       5.276  33.319  63.463  1.00  0.00     0.011 A 
HETATM   31  C   UNL     1       4.838  36.079  64.000  1.00  0.00     0.039 C 
HETATM   32  C   UNL     1       4.883  35.091  65.194  1.00  0.00     0.191 C 
HETATM   33  C   UNL     1       4.558  33.637  64.739  1.00  0.00     0.081 C 
HETATM   34  S   UNL     1       5.554  31.741  62.894  1.00  0.00    -0.056 SA
BRANCH  32  35
HETATM   35  N   UNL     1       6.239  35.096  65.887  1.00  0.00    -0.070 N 
HETATM   36  H   UNL     1       6.453  36.017  66.295  1.00  0.00     0.277 HD
HETATM   37  H   UNL     1       6.954  34.960  65.151  1.00  0.00     0.277 HD
BRANCH  35  38
HETATM   38  C   UNL     1       6.469  34.015  66.921  1.00  0.00     0.241 C 
BRANCH  38  39
HETATM   39  C   UNL     1       6.740  34.660  68.268  1.00  0.00     0.144 C 
BRANCH  39  40
HETATM   40  C   UNL     1       5.847  34.016  69.303  1.00  0.00     0.389 C 
HETATM   41  F   UNL     1       6.526  33.064  69.970  1.00  0.00    -0.171 F 
HETATM   42  F   UNL     1       4.796  33.435  68.691  1.00  0.00    -0.171 F 
HETATM   43  F   UNL     1       5.392  34.927  70.176  1.00  0.00    -0.171 F 
ENDBRANCH  39  40
ENDBRANCH  38  39
ENDBRANCH  35  38
ENDBRANCH  32  35
ENDBRANCH  22  25
ENDBRANCH  19  21
ENDBRANCH  14  15
ENDBRANCH  13  14
ENDBRANCH  10  13
ENDBRANCH   1   9
TORSDOF 10
ENDMDL
MODEL 3
REMARK VINA RESULT:     -10.5      4.788      6.978
REMARK  10 active torsions:
REMARK  status: ('A' for Active; 'I' for Inactive)
REMARK    1  A    between atoms: C_2  and  C_5 
REMARK    2  A    between atoms: C_5  and  C_6 
REMARK    3  A    between atoms: C_6  and  N_7 
REMARK    4  A    between atoms: N_7  and  C_10 
REMARK    5  A    between atoms: C_16  and  N_17 
REMARK       I    between atoms: N_17  and  C_18 
REMARK    6  A    between atoms: C_18  and  C_20 
REMARK    7  A    between atoms: C_24  and  C_25 
REMARK    8  A    between atoms: C_25  and  O_26 
REMARK    9  A    between atoms: O_26  and  C_27 
REMARK       I    between atoms: C_27  and  N_29 
REMARK   10  A    between atoms: N_29  and  C_30 
ROOT
HETATM    1  C   UNL     1       3.911  27.200  49.524  1.00  0.00     0.036 A 
HETATM    2  C   UNL     1       2.936  28.174  49.753  1.00  0.00     0.031 A 
HETATM    3  C   UNL     1       1.842  28.298  48.888  1.00  0.00     0.025 A 
HETATM    4  C   UNL     1       1.710  27.444  47.790  1.00  0.00     0.044 A 
HETATM    5  C   UNL     1       2.678  26.465  47.560  1.00  0.00     0.025 A 
HETATM    6  C   UNL     1       3.775  26.347  48.422  1.00  0.00     0.031 A 
HETATM    7  C   UNL     1       0.591  27.580  46.906  1.00  0.00     0.099 C 
HETATM    8  N   UNL     1      -0.316  27.711  46.193  1.00  0.00    -0.191 NA
ENDROOT
BRANCH   1   9
HETATM    9  N   UNL     1       5.044  27.026  50.337  1.00  0.00    -0.303 N 
HETATM   10  C   UNL     1       5.323  26.006  51.199  1.00  0.00     0.365 C 
HETATM   11  O   UNL     1       4.655  25.006  51.422  1.00  0.00    -0.238 OA
HETATM   12  H   UNL     1       5.779  27.718  50.275  1.00  0.00     0.171 HD
BRANCH  10  13
HETATM   13  O   UNL     1       6.511  26.278  51.802  1.00  0.00    -0.299 OA
BRANCH  13  14
HETATM   14  C   UNL     1       7.418  25.174  51.915  1.00  0.00     0.219 C 
BRANCH  14  15
HETATM   15  C   UNL     1       7.604  24.751  53.353  1.00  0.00    -0.033 A 
HETATM   16  C   UNL     1       7.818  23.408  53.685  1.00  0.00     0.009 A 
HETATM   17  C   UNL     1       8.015  23.029  55.015  1.00  0.00     0.002 A 
HETATM   18  C   UNL     1       8.014  23.989  56.030  1.00  0.00     0.017 A 
HETATM   19  C   UNL     1       7.818  25.336  55.707  1.00  0.00     0.033 A 
HETATM   20  C   UNL     1       7.597  25.710  54.375  1.00  0.00     0.026 A 
BRANCH  19  21
HETATM   21  C   UNL     1       7.803  26.406  56.732  1.00  0.00     0.257 C 
HETATM   22  N   UNL     1       7.725  27.754  56.274  1.00  0.00    -0.303 N 
HETATM   23  H   UNL     1       7.692  27.966  55.292  1.00  0.00     0.171 HD
HETATM   24  O   UNL     1       7.884  26.165  57.921  1.00  0.00    -0.267 OA
BRANCH  22  25
HETATM   25  C   UNL     1       7.659  28.798  57.094  1.00  0.00     0.152 A 
HETATM   26  N   UNL     1       8.728  29.177  57.826  1.00  0.00    -0.339 N 
HETATM   27  C   UNL     1       8.473  30.245  58.660  1.00  0.00     0.024 A 
HETATM   28  H   UNL     1       9.613  28.681  57.753  1.00  0.00     0.168 HD
HETATM   29  C   UNL     1       9.493  30.734  59.620  1.00  0.00     0.060 C 
HETATM   30  C   UNL     1       7.203  30.741  58.551  1.00  0.00     0.011 A 
HETATM   31  C   UNL     1       9.053  32.073  60.254  1.00  0.00     0.039 C 
HETATM   32  C   UNL     1       7.539  32.188  60.572  1.00  0.00     0.191 C 
HETATM   33  C   UNL     1       6.673  31.923  59.306  1.00  0.00     0.081 C 
HETATM   34  S   UNL     1       6.305  29.862  57.405  1.00  0.00    -0.056 SA
BRANCH  32  35
HETATM   35  N   UNL     1       7.113  31.221  61.669  1.00  0.00    -0.070 N 
HETATM   36  H   UNL     1       7.894  30.620  61.968  1.00  0.00     0.277 HD
HETATM   37  H   UNL     1       6.425  30.573  61.248  1.00  0.00     0.277 HD
BRANCH  35  38
HETATM   38  C   UNL     1       6.448  31.834  62.882  1.00  0.00     0.241 C 
BRANCH  38  39
HETATM   39  C   UNL     1       7.409  32.802  63.546  1.00  0.00     0.144 C 
BRANCH  39  40
HETATM   40  C   UNL     1       6.669  33.562  64.621  1.00  0.00     0.389 C 
HETATM   41  F   UNL     1       7.277  33.391  65.810  1.00  0.00    -0.171 F 
HETATM   42  F   UNL     1       5.409  33.092  64.719  1.00  0.00    -0.171 F 
HETATM   43  F   UNL     1       6.621  34.872  64.335  1.00  0.00    -0.171 F 
ENDBRANCH  39  40
ENDBRANCH  38  39
ENDBRANCH  35  38
ENDBRANCH  32  35
ENDBRANCH  22  25
ENDBRANCH  19  21
ENDBRANCH  14  15
ENDBRANCH  13  14
ENDBRANCH  10  13
ENDBRANCH   1   9
TORSDOF 10
ENDMDL
MODEL 4
REMARK VINA RESULT:     -10.2      5.030     12.535
REMARK  10 active torsions:
REMARK  status: ('A' for Active; 'I' for Inactive)
REMARK    1  A    between atoms: C_2  and  C_5 
REMARK    2  A    between atoms: C_5  and  C_6 
REMARK    3  A    between atoms: C_6  and  N_7 
REMARK    4  A    between atoms: N_7  and  C_10 
REMARK    5  A    between atoms: C_16  and  N_17 
REMARK       I    between atoms: N_17  and  C_18 
REMARK    6  A    between atoms: C_18  and  C_20 
REMARK    7  A    between atoms: C_24  and  C_25 
REMARK    8  A    between atoms: C_25  and  O_26 
REMARK    9  A    between atoms: O_26  and  C_27 
REMARK       I    between atoms: C_27  and  N_29 
REMARK   10  A    between atoms: N_29  and  C_30 
ROOT
HETATM    1  C   UNL     1       5.373  33.586  64.128  1.00  0.00     0.036 A 
HETATM    2  C   UNL     1       4.309  33.917  64.971  1.00  0.00     0.031 A 
HETATM    3  C   UNL     1       4.543  34.238  66.314  1.00  0.00     0.025 A 
HETATM    4  C   UNL     1       5.844  34.238  66.823  1.00  0.00     0.044 A 
HETATM    5  C   UNL     1       6.911  33.915  65.984  1.00  0.00     0.025 A 
HETATM    6  C   UNL     1       6.675  33.588  64.644  1.00  0.00     0.031 A 
HETATM    7  C   UNL     1       6.075  34.563  68.200  1.00  0.00     0.099 C 
HETATM    8  N   UNL     1       6.244  34.817  69.320  1.00  0.00    -0.191 NA
ENDROOT
BRANCH   1   9
HETATM    9  N   UNL     1       5.216  33.237  62.777  1.00  0.00    -0.303 N 
HETATM   10  C   UNL     1       4.652  32.111  62.250  1.00  0.00     0.365 C 
HETATM   11  O   UNL     1       4.133  31.179  62.848  1.00  0.00    -0.238 OA
HETATM   12  H   UNL     1       5.526  33.900  62.079  1.00  0.00     0.171 HD
BRANCH  10  13
HETATM   13  O   UNL     1       4.757  32.182  60.896  1.00  0.00    -0.299 OA
BRANCH  13  14
HETATM   14  C   UNL     1       5.804  33.025  60.397  1.00  0.00     0.219 C 
BRANCH  14  15
HETATM   15  C   UNL     1       7.096  32.262  60.222  1.00  0.00    -0.033 A 
HETATM   16  C   UNL     1       8.179  32.474  61.084  1.00  0.00     0.009 A 
HETATM   17  C   UNL     1       9.360  31.746  60.931  1.00  0.00     0.002 A 
HETATM   18  C   UNL     1       9.472  30.785  59.922  1.00  0.00     0.017 A 
HETATM   19  C   UNL     1       8.390  30.554  59.066  1.00  0.00     0.033 A 
HETATM   20  C   UNL     1       7.215  31.302  59.207  1.00  0.00     0.026 A 
BRANCH  19  21
HETATM   21  C   UNL     1       8.440  29.553  57.974  1.00  0.00     0.257 C 
HETATM   22  N   UNL     1       7.199  29.133  57.411  1.00  0.00    -0.303 N 
HETATM   23  H   UNL     1       6.326  29.496  57.751  1.00  0.00     0.171 HD
HETATM   24  O   UNL     1       9.486  29.074  57.582  1.00  0.00    -0.267 OA
BRANCH  22  25
HETATM   25  C   UNL     1       7.113  28.276  56.399  1.00  0.00     0.152 A 
HETATM   26  N   UNL     1       6.409  27.130  56.515  1.00  0.00    -0.339 N 
HETATM   27  C   UNL     1       6.466  26.333  55.391  1.00  0.00     0.024 A 
HETATM   28  H   UNL     1       5.915  26.906  57.376  1.00  0.00     0.168 HD
HETATM   29  C   UNL     1       5.845  24.986  55.369  1.00  0.00     0.060 C 
HETATM   30  C   UNL     1       7.185  26.878  54.362  1.00  0.00     0.011 A 
HETATM   31  C   UNL     1       5.838  24.407  53.936  1.00  0.00     0.039 C 
HETATM   32  C   UNL     1       7.102  24.716  53.093  1.00  0.00     0.191 C 
HETATM   33  C   UNL     1       7.372  26.248  53.015  1.00  0.00     0.081 C 
HETATM   34  S   UNL     1       7.812  28.397  54.799  1.00  0.00    -0.056 SA
BRANCH  32  35
HETATM   35  N   UNL     1       8.341  24.028  53.651  1.00  0.00    -0.070 N 
HETATM   36  H   UNL     1       8.563  24.360  54.600  1.00  0.00     0.277 HD
HETATM   37  H   UNL     1       9.141  24.331  53.069  1.00  0.00     0.277 HD
BRANCH  35  38
HETATM   38  C   UNL     1       8.336  22.515  53.629  1.00  0.00     0.241 C 
BRANCH  38  39
HETATM   39  C   UNL     1       9.276  21.995  54.701  1.00  0.00     0.144 C 
BRANCH  39  40
HETATM   40  C   UNL     1       8.529  21.926  56.011  1.00  0.00     0.389 C 
HETATM   41  F   UNL     1       8.763  23.038  56.734  1.00  0.00    -0.171 F 
HETATM   42  F   UNL     1       8.958  20.863  56.720  1.00  0.00    -0.171 F 
HETATM   43  F   UNL     1       7.209  21.805  55.804  1.00  0.00    -0.171 F 
ENDBRANCH  39  40
ENDBRANCH  38  39
ENDBRANCH  35  38
ENDBRANCH  32  35
ENDBRANCH  22  25
ENDBRANCH  19  21
ENDBRANCH  14  15
ENDBRANCH  13  14
ENDBRANCH  10  13
ENDBRANCH   1   9
TORSDOF 10
ENDMDL
MODEL 5
REMARK VINA RESULT:     -10.0      5.130     12.391
REMARK  10 active torsions:
REMARK  status: ('A' for Active; 'I' for Inactive)
REMARK    1  A    between atoms: C_2  and  C_5 
REMARK    2  A    between atoms: C_5  and  C_6 
REMARK    3  A    between atoms: C_6  and  N_7 
REMARK    4  A    between atoms: N_7  and  C_10 
REMARK    5  A    between atoms: C_16  and  N_17 
REMARK       I    between atoms: N_17  and  C_18 
REMARK    6  A    between atoms: C_18  and  C_20 
REMARK    7  A    between atoms: C_24  and  C_25 
REMARK    8  A    between atoms: C_25  and  O_26 
REMARK    9  A    between atoms: O_26  and  C_27 
REMARK       I    between atoms: C_27  and  N_29 
REMARK   10  A    between atoms: N_29  and  C_30 
ROOT
HETATM    1  C   UNL     1       5.462  33.608  64.668  1.00  0.00     0.036 A 
HETATM    2  C   UNL     1       4.348  33.837  65.480  1.00  0.00     0.031 A 
HETATM    3  C   UNL     1       4.513  34.170  66.831  1.00  0.00     0.025 A 
HETATM    4  C   UNL     1       5.793  34.284  67.379  1.00  0.00     0.044 A 
HETATM    5  C   UNL     1       6.909  34.063  66.570  1.00  0.00     0.025 A 
HETATM    6  C   UNL     1       6.743  33.723  65.223  1.00  0.00     0.031 A 
HETATM    7  C   UNL     1       5.953  34.619  68.763  1.00  0.00     0.099 C 
HETATM    8  N   UNL     1       6.066  34.881  69.888  1.00  0.00    -0.191 NA
ENDROOT
BRANCH   1   9
HETATM    9  N   UNL     1       5.376  33.255  63.312  1.00  0.00    -0.303 N 
HETATM   10  C   UNL     1       5.035  32.051  62.768  1.00  0.00     0.365 C 
HETATM   11  O   UNL     1       4.698  31.030  63.351  1.00  0.00    -0.238 OA
HETATM   12  H   UNL     1       5.559  33.974  62.624  1.00  0.00     0.171 HD
BRANCH  10  13
HETATM   13  O   UNL     1       5.128  32.159  61.415  1.00  0.00    -0.299 OA
BRANCH  13  14
HETATM   14  C   UNL     1       6.125  33.069  60.932  1.00  0.00     0.219 C 
BRANCH  14  15
HETATM   15  C   UNL     1       7.348  32.339  60.429  1.00  0.00    -0.033 A 
HETATM   16  C   UNL     1       8.617  32.617  60.952  1.00  0.00     0.009 A 
HETATM   17  C   UNL     1       9.738  31.919  60.500  1.00  0.00     0.002 A 
HETATM   18  C   UNL     1       9.607  30.924  59.527  1.00  0.00     0.017 A 
HETATM   19  C   UNL     1       8.341  30.628  59.009  1.00  0.00     0.033 A 
HETATM   20  C   UNL     1       7.222  31.346  59.448  1.00  0.00     0.026 A 
BRANCH  19  21
HETATM   21  C   UNL     1       8.129  29.588  57.975  1.00  0.00     0.257 C 
HETATM   22  N   UNL     1       6.968  28.769  58.095  1.00  0.00    -0.303 N 
HETATM   23  H   UNL     1       6.326  28.889  58.860  1.00  0.00     0.171 HD
HETATM   24  O   UNL     1       8.918  29.404  57.069  1.00  0.00    -0.267 OA
BRANCH  22  25
HETATM   25  C   UNL     1       6.642  27.834  57.210  1.00  0.00     0.152 A 
HETATM   26  N   UNL     1       7.473  26.801  56.951  1.00  0.00    -0.339 N 
HETATM   27  C   UNL     1       7.005  25.952  55.971  1.00  0.00     0.024 A 
HETATM   28  H   UNL     1       8.359  26.708  57.443  1.00  0.00     0.168 HD
HETATM   29  C   UNL     1       7.828  24.821  55.474  1.00  0.00     0.060 C 
HETATM   30  C   UNL     1       5.773  26.293  55.484  1.00  0.00     0.011 A 
HETATM   31  C   UNL     1       6.992  23.891  54.566  1.00  0.00     0.039 C 
HETATM   32  C   UNL     1       5.981  24.611  53.636  1.00  0.00     0.191 C 
HETATM   33  C   UNL     1       5.014  25.522  54.447  1.00  0.00     0.081 C 
HETATM   34  S   UNL     1       5.190  27.698  56.244  1.00  0.00    -0.056 SA
BRANCH  32  35
HETATM   35  N   UNL     1       6.680  25.455  52.579  1.00  0.00    -0.070 N 
HETATM   36  H   UNL     1       7.630  25.109  52.386  1.00  0.00     0.277 HD
HETATM   37  H   UNL     1       6.818  26.396  52.988  1.00  0.00     0.277 HD
BRANCH  35  38
HETATM   38  C   UNL     1       5.935  25.653  51.277  1.00  0.00     0.241 C 
BRANCH  38  39
HETATM   39  C   UNL     1       5.493  27.101  51.167  1.00  0.00     0.144 C 
BRANCH  39  40
HETATM   40  C   UNL     1       4.864  27.315  49.810  1.00  0.00     0.389 C 
HETATM   41  F   UNL     1       5.667  28.078  49.045  1.00  0.00    -0.171 F 
HETATM   42  F   UNL     1       3.687  27.955  49.956  1.00  0.00    -0.171 F 
HETATM   43  F   UNL     1       4.649  26.145  49.192  1.00  0.00    -0.171 F 
ENDBRANCH  39  40
ENDBRANCH  38  39
ENDBRANCH  35  38
ENDBRANCH  32  35
ENDBRANCH  22  25
ENDBRANCH  19  21
ENDBRANCH  14  15
ENDBRANCH  13  14
ENDBRANCH  10  13
ENDBRANCH   1   9
TORSDOF 10
ENDMDL
MODEL 6
REMARK VINA RESULT:      -9.8      5.934     13.453
REMARK  10 active torsions:
REMARK  status: ('A' for Active; 'I' for Inactive)
REMARK    1  A    between atoms: C_2  and  C_5 
REMARK    2  A    between atoms: C_5  and  C_6 
REMARK    3  A    between atoms: C_6  and  N_7 
REMARK    4  A    between atoms: N_7  and  C_10 
REMARK    5  A    between atoms: C_16  and  N_17 
REMARK       I    between atoms: N_17  and  C_18 
REMARK    6  A    between atoms: C_18  and  C_20 
REMARK    7  A    between atoms: C_24  and  C_25 
REMARK    8  A    between atoms: C_25  and  O_26 
REMARK    9  A    between atoms: O_26  and  C_27 
REMARK       I    between atoms: C_27  and  N_29 
REMARK   10  A    between atoms: N_29  and  C_30 
ROOT
HETATM    1  C   UNL     1       5.334  34.335  64.852  1.00  0.00     0.036 A 
HETATM    2  C   UNL     1       4.200  34.596  65.624  1.00  0.00     0.031 A 
HETATM    3  C   UNL     1       4.284  34.617  67.022  1.00  0.00     0.025 A 
HETATM    4  C   UNL     1       5.505  34.383  67.659  1.00  0.00     0.044 A 
HETATM    5  C   UNL     1       6.643  34.128  66.891  1.00  0.00     0.025 A 
HETATM    6  C   UNL     1       6.556  34.101  65.495  1.00  0.00     0.031 A 
HETATM    7  C   UNL     1       5.583  34.400  69.090  1.00  0.00     0.099 C 
HETATM    8  N   UNL     1       5.627  34.406  70.250  1.00  0.00    -0.191 NA
ENDROOT
BRANCH   1   9
HETATM    9  N   UNL     1       5.324  34.281  63.448  1.00  0.00    -0.303 N 
HETATM   10  C   UNL     1       4.860  33.285  62.639  1.00  0.00     0.365 C 
HETATM   11  O   UNL     1       4.322  32.237  62.969  1.00  0.00    -0.238 OA
HETATM   12  H   UNL     1       5.676  35.084  62.943  1.00  0.00     0.171 HD
BRANCH  10  13
HETATM   13  O   UNL     1       5.095  33.647  61.349  1.00  0.00    -0.299 OA
BRANCH  13  14
HETATM   14  C   UNL     1       5.989  32.797  60.619  1.00  0.00     0.219 C 
BRANCH  14  15
HETATM   15  C   UNL     1       5.512  32.574  59.203  1.00  0.00    -0.033 A 
HETATM   16  C   UNL     1       4.900  33.605  58.480  1.00  0.00     0.009 A 
HETATM   17  C   UNL     1       4.486  33.398  57.162  1.00  0.00     0.002 A 
HETATM   18  C   UNL     1       4.689  32.162  56.544  1.00  0.00     0.017 A 
HETATM   19  C   UNL     1       5.315  31.130  57.253  1.00  0.00     0.033 A 
HETATM   20  C   UNL     1       5.708  31.333  58.581  1.00  0.00     0.026 A 
BRANCH  19  21
HETATM   21  C   UNL     1       5.560  29.794  56.660  1.00  0.00     0.257 C 
HETATM   22  N   UNL     1       5.928  29.743  55.283  1.00  0.00    -0.303 N 
HETATM   23  H   UNL     1       6.005  30.583  54.737  1.00  0.00     0.171 HD
HETATM   24  O   UNL     1       5.429  28.767  57.298  1.00  0.00    -0.267 OA
BRANCH  22  25
HETATM   25  C   UNL     1       6.217  28.612  54.648  1.00  0.00     0.152 A 
HETATM   26  N   UNL     1       5.241  27.774  54.239  1.00  0.00    -0.339 N 
HETATM   27  C   UNL     1       5.717  26.625  53.644  1.00  0.00     0.024 A 
HETATM   28  H   UNL     1       4.261  27.999  54.393  1.00  0.00     0.168 HD
HETATM   29  C   UNL     1       4.800  25.536  53.228  1.00  0.00     0.060 C 
HETATM   30  C   UNL     1       7.081  26.578  53.544  1.00  0.00     0.011 A 
HETATM   31  C   UNL     1       5.547  24.482  52.379  1.00  0.00     0.039 C 
HETATM   32  C   UNL     1       6.996  24.173  52.837  1.00  0.00     0.191 C 
HETATM   33  C   UNL     1       7.858  25.468  52.903  1.00  0.00     0.081 C 
HETATM   34  S   UNL     1       7.786  27.975  54.208  1.00  0.00    -0.056 SA
BRANCH  32  35
HETATM   35  N   UNL     1       7.031  23.490  54.197  1.00  0.00    -0.070 N 
HETATM   36  H   UNL     1       6.341  22.728  54.257  1.00  0.00     0.277 HD
HETATM   37  H   UNL     1       6.715  24.189  54.893  1.00  0.00     0.277 HD
BRANCH  35  38
HETATM   38  C   UNL     1       8.381  22.992  54.665  1.00  0.00     0.241 C 
BRANCH  38  39
HETATM   39  C   UNL     1       8.921  21.990  53.661  1.00  0.00     0.144 C 
BRANCH  39  40
HETATM   40  C   UNL     1       8.238  20.661  53.886  1.00  0.00     0.389 C 
HETATM   41  F   UNL     1       9.137  19.662  53.810  1.00  0.00    -0.171 F 
HETATM   42  F   UNL     1       7.307  20.466  52.931  1.00  0.00    -0.171 F 
HETATM   43  F   UNL     1       7.641  20.627  55.087  1.00  0.00    -0.171 F 
ENDBRANCH  39  40
ENDBRANCH  38  39
ENDBRANCH  35  38
ENDBRANCH  32  35
ENDBRANCH  22  25
ENDBRANCH  19  21
ENDBRANCH  14  15
ENDBRANCH  13  14
ENDBRANCH  10  13
ENDBRANCH   1   9
TORSDOF 10
ENDMDL
MODEL 7
REMARK VINA RESULT:      -9.6      1.687      1.994
REMARK  10 active torsions:
REMARK  status: ('A' for Active; 'I' for Inactive)
REMARK    1  A    between atoms: C_2  and  C_5 
REMARK    2  A    between atoms: C_5  and  C_6 
REMARK    3  A    between atoms: C_6  and  N_7 
REMARK    4  A    between atoms: N_7  and  C_10 
REMARK    5  A    between atoms: C_16  and  N_17 
REMARK       I    between atoms: N_17  and  C_18 
REMARK    6  A    between atoms: C_18  and  C_20 
REMARK    7  A    between atoms: C_24  and  C_25 
REMARK    8  A    between atoms: C_25  and  O_26 
REMARK    9  A    between atoms: O_26  and  C_27 
REMARK       I    between atoms: C_27  and  N_29 
REMARK   10  A    between atoms: N_29  and  C_30 
ROOT
HETATM    1  C   UNL     1       7.132  24.499  54.942  1.00  0.00     0.036 A 
HETATM    2  C   UNL     1       7.467  24.427  53.588  1.00  0.00     0.031 A 
HETATM    3  C   UNL     1       7.862  23.209  53.020  1.00  0.00     0.025 A 
HETATM    4  C   UNL     1       7.919  22.052  53.801  1.00  0.00     0.044 A 
HETATM    5  C   UNL     1       7.579  22.117  55.153  1.00  0.00     0.025 A 
HETATM    6  C   UNL     1       7.191  23.336  55.720  1.00  0.00     0.031 A 
HETATM    7  C   UNL     1       8.331  20.811  53.214  1.00  0.00     0.099 C 
HETATM    8  N   UNL     1       8.676  19.816  52.726  1.00  0.00    -0.191 NA
ENDROOT
BRANCH   1   9
HETATM    9  N   UNL     1       6.743  25.685  55.586  1.00  0.00    -0.303 N 
HETATM   10  C   UNL     1       7.169  26.181  56.784  1.00  0.00     0.365 C 
HETATM   11  O   UNL     1       8.008  25.709  57.537  1.00  0.00    -0.238 OA
HETATM   12  H   UNL     1       6.082  26.285  55.110  1.00  0.00     0.171 HD
BRANCH  10  13
HETATM   13  O   UNL     1       6.490  27.334  57.027  1.00  0.00    -0.299 OA
BRANCH  13  14
HETATM   14  C   UNL     1       6.904  28.473  56.262  1.00  0.00     0.219 C 
BRANCH  14  15
HETATM   15  C   UNL     1       7.962  29.274  56.984  1.00  0.00    -0.033 A 
HETATM   16  C   UNL     1       9.313  29.155  56.639  1.00  0.00     0.009 A 
HETATM   17  C   UNL     1      10.282  29.918  57.294  1.00  0.00     0.002 A 
HETATM   18  C   UNL     1       9.912  30.822  58.293  1.00  0.00     0.017 A 
HETATM   19  C   UNL     1       8.562  30.961  58.634  1.00  0.00     0.033 A 
HETATM   20  C   UNL     1       7.596  30.177  57.991  1.00  0.00     0.026 A 
BRANCH  19  21
HETATM   21  C   UNL     1       8.099  31.898  59.684  1.00  0.00     0.257 C 
HETATM   22  N   UNL     1       6.873  31.591  60.345  1.00  0.00    -0.303 N 
HETATM   23  H   UNL     1       6.341  30.775  60.097  1.00  0.00     0.171 HD
HETATM   24  O   UNL     1       8.711  32.910  59.966  1.00  0.00    -0.267 OA
BRANCH  22  25
HETATM   25  C   UNL     1       6.375  32.326  61.334  1.00  0.00     0.152 A 
HETATM   26  N   UNL     1       5.045  32.524  61.452  1.00  0.00    -0.339 N 
HETATM   27  C   UNL     1       4.704  33.352  62.501  1.00  0.00     0.024 A 
HETATM   28  H   UNL     1       4.394  32.100  60.796  1.00  0.00     0.168 HD
HETATM   29  C   UNL     1       3.299  33.773  62.724  1.00  0.00     0.060 C 
HETATM   30  C   UNL     1       5.773  33.774  63.243  1.00  0.00     0.011 A 
HETATM   31  C   UNL     1       3.150  34.490  64.086  1.00  0.00     0.039 C 
HETATM   32  C   UNL     1       4.332  35.415  64.478  1.00  0.00     0.191 C 
HETATM   33  C   UNL     1       5.685  34.643  64.461  1.00  0.00     0.081 C 
HETATM   34  S   UNL     1       7.226  33.145  62.624  1.00  0.00    -0.056 SA
BRANCH  32  35
HETATM   35  N   UNL     1       4.443  36.620  63.554  1.00  0.00    -0.070 N 
HETATM   36  H   UNL     1       3.736  37.334  63.777  1.00  0.00     0.277 HD
HETATM   37  H   UNL     1       4.201  36.293  62.602  1.00  0.00     0.277 HD
BRANCH  35  38
HETATM   38  C   UNL     1       5.808  37.267  63.457  1.00  0.00     0.241 C 
BRANCH  38  39
HETATM   39  C   UNL     1       5.643  38.734  63.103  1.00  0.00     0.144 C 
BRANCH  39  40
HETATM   40  C   UNL     1       6.141  39.571  64.257  1.00  0.00     0.389 C 
HETATM   41  F   UNL     1       5.826  38.980  65.425  1.00  0.00    -0.171 F 
HETATM   42  F   UNL     1       5.550  40.782  64.223  1.00  0.00    -0.171 F 
HETATM   43  F   UNL     1       7.471  39.735  64.191  1.00  0.00    -0.171 F 
ENDBRANCH  39  40
ENDBRANCH  38  39
ENDBRANCH  35  38
ENDBRANCH  32  35
ENDBRANCH  22  25
ENDBRANCH  19  21
ENDBRANCH  14  15
ENDBRANCH  13  14
ENDBRANCH  10  13
ENDBRANCH   1   9
TORSDOF 10
ENDMDL
MODEL 8
REMARK VINA RESULT:      -9.4      3.787      4.684
REMARK  10 active torsions:
REMARK  status: ('A' for Active; 'I' for Inactive)
REMARK    1  A    between atoms: C_2  and  C_5 
REMARK    2  A    between atoms: C_5  and  C_6 
REMARK    3  A    between atoms: C_6  and  N_7 
REMARK    4  A    between atoms: N_7  and  C_10 
REMARK    5  A    between atoms: C_16  and  N_17 
REMARK       I    between atoms: N_17  and  C_18 
REMARK    6  A    between atoms: C_18  and  C_20 
REMARK    7  A    between atoms: C_24  and  C_25 
REMARK    8  A    between atoms: C_25  and  O_26 
REMARK    9  A    between atoms: O_26  and  C_27 
REMARK       I    between atoms: C_27  and  N_29 
REMARK   10  A    between atoms: N_29  and  C_30 
ROOT
HETATM    1  C   UNL     1       5.328  27.354  52.846  1.00  0.00     0.036 A 
HETATM    2  C   UNL     1       4.954  28.385  51.980  1.00  0.00     0.031 A 
HETATM    3  C   UNL     1       4.695  28.116  50.630  1.00  0.00     0.025 A 
HETATM    4  C   UNL     1       4.802  26.814  50.136  1.00  0.00     0.044 A 
HETATM    5  C   UNL     1       5.170  25.780  50.998  1.00  0.00     0.025 A 
HETATM    6  C   UNL     1       5.435  26.051  52.345  1.00  0.00     0.031 A 
HETATM    7  C   UNL     1       4.541  26.548  48.752  1.00  0.00     0.099 C 
HETATM    8  N   UNL     1       4.337  26.351  47.627  1.00  0.00    -0.191 NA
ENDROOT
BRANCH   1   9
HETATM    9  N   UNL     1       5.620  27.548  54.206  1.00  0.00    -0.303 N 
HETATM   10  C   UNL     1       6.822  27.836  54.785  1.00  0.00     0.365 C 
HETATM   11  O   UNL     1       7.898  28.019  54.233  1.00  0.00    -0.238 OA
HETATM   12  H   UNL     1       4.853  27.502  54.864  1.00  0.00     0.171 HD
BRANCH  10  13
HETATM   13  O   UNL     1       6.638  27.893  56.131  1.00  0.00    -0.299 OA
BRANCH  13  14
HETATM   14  C   UNL     1       7.790  27.593  56.929  1.00  0.00     0.219 C 
BRANCH  14  15
HETATM   15  C   UNL     1       8.400  28.843  57.518  1.00  0.00    -0.033 A 
HETATM   16  C   UNL     1       9.743  29.164  57.287  1.00  0.00     0.009 A 
HETATM   17  C   UNL     1      10.293  30.335  57.813  1.00  0.00     0.002 A 
HETATM   18  C   UNL     1       9.505  31.209  58.566  1.00  0.00     0.017 A 
HETATM   19  C   UNL     1       8.157  30.906  58.789  1.00  0.00     0.033 A 
HETATM   20  C   UNL     1       7.615  29.719  58.279  1.00  0.00     0.026 A 
BRANCH  19  21
HETATM   21  C   UNL     1       7.264  31.786  59.579  1.00  0.00     0.257 C 
HETATM   22  N   UNL     1       7.245  31.603  60.993  1.00  0.00    -0.303 N 
HETATM   23  H   UNL     1       7.810  30.896  61.432  1.00  0.00     0.171 HD
HETATM   24  O   UNL     1       6.545  32.616  59.058  1.00  0.00    -0.267 OA
BRANCH  22  25
HETATM   25  C   UNL     1       6.523  32.357  61.814  1.00  0.00     0.152 A 
HETATM   26  N   UNL     1       6.577  33.704  61.752  1.00  0.00    -0.339 N 
HETATM   27  C   UNL     1       5.806  34.331  62.707  1.00  0.00     0.024 A 
HETATM   28  H   UNL     1       7.160  34.172  61.061  1.00  0.00     0.168 HD
HETATM   29  C   UNL     1       5.822  35.807  62.865  1.00  0.00     0.060 C 
HETATM   30  C   UNL     1       5.101  33.469  63.503  1.00  0.00     0.011 A 
HETATM   31  C   UNL     1       4.704  36.268  63.827  1.00  0.00     0.039 C 
HETATM   32  C   UNL     1       4.453  35.339  65.043  1.00  0.00     0.191 C 
HETATM   33  C   UNL     1       4.155  33.880  64.590  1.00  0.00     0.081 C 
HETATM   34  S   UNL     1       5.409  31.855  63.067  1.00  0.00    -0.056 SA
BRANCH  32  35
HETATM   35  N   UNL     1       5.637  35.323  66.000  1.00  0.00    -0.070 N 
HETATM   36  H   UNL     1       5.982  36.273  66.193  1.00  0.00     0.277 HD
HETATM   37  H   UNL     1       6.417  34.852  65.508  1.00  0.00     0.277 HD
BRANCH  35  38
HETATM   38  C   UNL     1       5.436  34.580  67.304  1.00  0.00     0.241 C 
BRANCH  38  39
HETATM   39  C   UNL     1       6.774  34.425  68.004  1.00  0.00     0.144 C 
BRANCH  39  40
HETATM   40  C   UNL     1       6.532  34.290  69.489  1.00  0.00     0.389 C 
HETATM   41  F   UNL     1       5.466  35.028  69.852  1.00  0.00    -0.171 F 
HETATM   42  F   UNL     1       7.608  34.742  70.164  1.00  0.00    -0.171 F 
HETATM   43  F   UNL     1       6.316  33.009  69.824  1.00  0.00    -0.171 F 
ENDBRANCH  39  40
ENDBRANCH  38  39
ENDBRANCH  35  38
ENDBRANCH  32  35
ENDBRANCH  22  25
ENDBRANCH  19  21
ENDBRANCH  14  15
ENDBRANCH  13  14
ENDBRANCH  10  13
ENDBRANCH   1   9
TORSDOF 10
ENDMDL
MODEL 9
REMARK VINA RESULT:      -9.4      4.924     12.392
REMARK  10 active torsions:
REMARK  status: ('A' for Active; 'I' for Inactive)
REMARK    1  A    between atoms: C_2  and  C_5 
REMARK    2  A    between atoms: C_5  and  C_6 
REMARK    3  A    between atoms: C_6  and  N_7 
REMARK    4  A    between atoms: N_7  and  C_10 
REMARK    5  A    between atoms: C_16  and  N_17 
REMARK       I    between atoms: N_17  and  C_18 
REMARK    6  A    between atoms: C_18  and  C_20 
REMARK    7  A    between atoms: C_24  and  C_25 
REMARK    8  A    between atoms: C_25  and  O_26 
REMARK    9  A    between atoms: O_26  and  C_27 
REMARK       I    between atoms: C_27  and  N_29 
REMARK   10  A    between atoms: N_29  and  C_30 
ROOT
HETATM    1  C   UNL     1       5.133  33.694  64.475  1.00  0.00     0.036 A 
HETATM    2  C   UNL     1       4.188  34.107  65.418  1.00  0.00     0.031 A 
HETATM    3  C   UNL     1       4.583  34.431  66.722  1.00  0.00     0.025 A 
HETATM    4  C   UNL     1       5.928  34.349  67.093  1.00  0.00     0.044 A 
HETATM    5  C   UNL     1       6.877  33.942  66.153  1.00  0.00     0.025 A 
HETATM    6  C   UNL     1       6.479  33.613  64.853  1.00  0.00     0.031 A 
HETATM    7  C   UNL     1       6.324  34.676  68.431  1.00  0.00     0.099 C 
HETATM    8  N   UNL     1       6.626  34.934  69.521  1.00  0.00    -0.191 NA
ENDROOT
BRANCH   1   9
HETATM    9  N   UNL     1       4.812  33.337  63.156  1.00  0.00    -0.303 N 
HETATM   10  C   UNL     1       4.652  32.089  62.627  1.00  0.00     0.365 C 
HETATM   11  O   UNL     1       4.724  31.013  63.204  1.00  0.00    -0.238 OA
HETATM   12  H   UNL     1       4.643  34.083  62.493  1.00  0.00     0.171 HD
BRANCH  10  13
HETATM   13  O   UNL     1       4.387  32.225  61.300  1.00  0.00    -0.299 OA
BRANCH  13  14
HETATM   14  C   UNL     1       5.394  32.896  60.531  1.00  0.00     0.219 C 
BRANCH  14  15
HETATM   15  C   UNL     1       5.296  32.550  59.064  1.00  0.00    -0.033 A 
HETATM   16  C   UNL     1       4.740  33.451  58.148  1.00  0.00     0.009 A 
HETATM   17  C   UNL     1       4.678  33.134  56.790  1.00  0.00     0.002 A 
HETATM   18  C   UNL     1       5.182  31.917  56.325  1.00  0.00     0.017 A 
HETATM   19  C   UNL     1       5.754  31.015  57.230  1.00  0.00     0.033 A 
HETATM   20  C   UNL     1       5.794  31.327  58.594  1.00  0.00     0.026 A 
BRANCH  19  21
HETATM   21  C   UNL     1       6.306  29.707  56.806  1.00  0.00     0.257 C 
HETATM   22  N   UNL     1       5.735  28.535  57.385  1.00  0.00    -0.303 N 
HETATM   23  H   UNL     1       4.995  28.600  58.062  1.00  0.00     0.171 HD
HETATM   24  O   UNL     1       7.229  29.616  56.021  1.00  0.00    -0.267 OA
BRANCH  22  25
HETATM   25  C   UNL     1       6.111  27.304  57.056  1.00  0.00     0.152 A 
HETATM   26  N   UNL     1       7.322  26.826  57.413  1.00  0.00    -0.339 N 
HETATM   27  C   UNL     1       7.570  25.552  56.947  1.00  0.00     0.024 A 
HETATM   28  H   UNL     1       7.967  27.394  57.958  1.00  0.00     0.168 HD
HETATM   29  C   UNL     1       8.889  24.902  57.146  1.00  0.00     0.060 C 
HETATM   30  C   UNL     1       6.526  25.004  56.253  1.00  0.00     0.011 A 
HETATM   31  C   UNL     1       8.830  23.409  56.751  1.00  0.00     0.039 C 
HETATM   32  C   UNL     1       7.963  23.088  55.506  1.00  0.00     0.191 C 
HETATM   33  C   UNL     1       6.510  23.621  55.675  1.00  0.00     0.081 C 
HETATM   34  S   UNL     1       5.220  26.089  56.166  1.00  0.00    -0.056 SA
BRANCH  32  35
HETATM   35  N   UNL     1       8.556  23.677  54.233  1.00  0.00    -0.070 N 
HETATM   36  H   UNL     1       9.522  23.356  54.081  1.00  0.00     0.277 HD
HETATM   37  H   UNL     1       8.635  24.698  54.381  1.00  0.00     0.277 HD
BRANCH  35  38
HETATM   38  C   UNL     1       7.750  23.484  52.966  1.00  0.00     0.241 C 
BRANCH  38  39
HETATM   39  C   UNL     1       7.854  24.733  52.110  1.00  0.00     0.144 C 
BRANCH  39  40
HETATM   40  C   UNL     1       6.638  25.594  52.359  1.00  0.00     0.389 C 
HETATM   41  F   UNL     1       6.279  26.224  51.224  1.00  0.00    -0.171 F 
HETATM   42  F   UNL     1       6.930  26.528  53.286  1.00  0.00    -0.171 F 
HETATM   43  F   UNL     1       5.609  24.855  52.797  1.00  0.00    -0.171 F 
ENDBRANCH  39  40
ENDBRANCH  38  39
ENDBRANCH  35  38
ENDBRANCH  32  35
ENDBRANCH  22  25
ENDBRANCH  19  21
ENDBRANCH  14  15
ENDBRANCH  13  14
ENDBRANCH  10  13
ENDBRANCH   1   9
TORSDOF 10
ENDMDL
MODEL 10
REMARK VINA RESULT:      -9.4      3.444      4.192
REMARK  10 active torsions:
REMARK  status: ('A' for Active; 'I' for Inactive)
REMARK    1  A    between atoms: C_2  and  C_5 
REMARK    2  A    between atoms: C_5  and  C_6 
REMARK    3  A    between atoms: C_6  and  N_7 
REMARK    4  A    between atoms: N_7  and  C_10 
REMARK    5  A    between atoms: C_16  and  N_17 
REMARK       I    between atoms: N_17  and  C_18 
REMARK    6  A    between atoms: C_18  and  C_20 
REMARK    7  A    between atoms: C_24  and  C_25 
REMARK    8  A    between atoms: C_25  and  O_26 
REMARK    9  A    between atoms: O_26  and  C_27 
REMARK       I    between atoms: C_27  and  N_29 
REMARK   10  A    between atoms: N_29  and  C_30 
ROOT
HETATM    1  C   UNL     1       7.212  25.053  54.353  1.00  0.00     0.036 A 
HETATM    2  C   UNL     1       7.225  24.103  55.376  1.00  0.00     0.031 A 
HETATM    3  C   UNL     1       7.614  22.783  55.113  1.00  0.00     0.025 A 
HETATM    4  C   UNL     1       7.998  22.405  53.824  1.00  0.00     0.044 A 
HETATM    5  C   UNL     1       7.992  23.352  52.799  1.00  0.00     0.025 A 
HETATM    6  C   UNL     1       7.597  24.668  53.062  1.00  0.00     0.031 A 
HETATM    7  C   UNL     1       8.388  21.051  53.561  1.00  0.00     0.099 C 
HETATM    8  N   UNL     1       8.691  19.948  53.362  1.00  0.00    -0.191 NA
ENDROOT
BRANCH   1   9
HETATM    9  N   UNL     1       6.819  26.389  54.536  1.00  0.00    -0.303 N 
HETATM   10  C   UNL     1       5.635  26.980  54.203  1.00  0.00     0.365 C 
HETATM   11  O   UNL     1       4.649  26.458  53.702  1.00  0.00    -0.238 OA
HETATM   12  H   UNL     1       7.468  27.013  54.997  1.00  0.00     0.171 HD
BRANCH  10  13
HETATM   13  O   UNL     1       5.717  28.298  54.528  1.00  0.00    -0.299 OA
BRANCH  13  14
HETATM   14  C   UNL     1       4.952  29.189  53.705  1.00  0.00     0.219 C 
BRANCH  14  15
HETATM   15  C   UNL     1       4.333  30.303  54.517  1.00  0.00    -0.033 A 
HETATM   16  C   UNL     1       3.152  30.927  54.098  1.00  0.00     0.009 A 
HETATM   17  C   UNL     1       2.572  31.937  54.868  1.00  0.00     0.002 A 
HETATM   18  C   UNL     1       3.158  32.330  56.075  1.00  0.00     0.017 A 
HETATM   19  C   UNL     1       4.329  31.701  56.511  1.00  0.00     0.033 A 
HETATM   20  C   UNL     1       4.921  30.704  55.725  1.00  0.00     0.026 A 
BRANCH  19  21
HETATM   21  C   UNL     1       5.004  32.067  57.778  1.00  0.00     0.257 C 
HETATM   22  N   UNL     1       4.254  32.826  58.726  1.00  0.00    -0.303 N 
HETATM   23  H   UNL     1       3.309  33.107  58.532  1.00  0.00     0.171 HD
HETATM   24  O   UNL     1       6.160  31.770  58.007  1.00  0.00    -0.267 OA
BRANCH  22  25
HETATM   25  C   UNL     1       4.730  33.177  59.916  1.00  0.00     0.152 A 
HETATM   26  N   UNL     1       5.491  32.330  60.640  1.00  0.00    -0.339 N 
HETATM   27  C   UNL     1       5.858  32.833  61.870  1.00  0.00     0.024 A 
HETATM   28  H   UNL     1       5.732  31.408  60.281  1.00  0.00     0.168 HD
HETATM   29  C   UNL     1       6.604  32.006  62.850  1.00  0.00     0.060 C 
HETATM   30  C   UNL     1       5.419  34.109  62.099  1.00  0.00     0.011 A 
HETATM   31  C   UNL     1       7.098  32.869  64.034  1.00  0.00     0.039 C 
HETATM   32  C   UNL     1       6.112  33.970  64.505  1.00  0.00     0.191 C 
HETATM   33  C   UNL     1       5.709  34.910  63.331  1.00  0.00     0.081 C 
HETATM   34  S   UNL     1       4.526  34.689  60.773  1.00  0.00    -0.056 SA
BRANCH  32  35
HETATM   35  N   UNL     1       4.849  33.379  65.116  1.00  0.00    -0.070 N 
HETATM   36  H   UNL     1       4.847  32.350  65.062  1.00  0.00     0.277 HD
HETATM   37  H   UNL     1       4.058  33.678  64.520  1.00  0.00     0.277 HD
BRANCH  35  38
HETATM   38  C   UNL     1       4.518  33.815  66.527  1.00  0.00     0.241 C 
BRANCH  38  39
HETATM   39  C   UNL     1       5.377  35.010  66.897  1.00  0.00     0.144 C 
BRANCH  39  40
HETATM   40  C   UNL     1       6.092  34.712  68.194  1.00  0.00     0.389 C 
HETATM   41  F   UNL     1       7.126  33.879  67.970  1.00  0.00    -0.171 F 
HETATM   42  F   UNL     1       5.241  34.109  69.049  1.00  0.00    -0.171 F 
HETATM   43  F   UNL     1       6.548  35.839  68.760  1.00  0.00    -0.171 F 
ENDBRANCH  39  40
ENDBRANCH  38  39
ENDBRANCH  35  38
ENDBRANCH  32  35
ENDBRANCH  22  25
ENDBRANCH  19  21
ENDBRANCH  14  15
ENDBRANCH  13  14
ENDBRANCH  10  13
ENDBRANCH   1   9
TORSDOF 10
ENDMDL
