MODEL 1
REMARK VINA RESULT:     -10.3      0.000      0.000
REMARK  5 active torsions:
REMARK  status: ('A' for Active; 'I' for Inactive)
REMARK    1  A    between atoms: C_2  and  C_3 
REMARK    2  A    between atoms: C_8  and  C_9 
REMARK       I    between atoms: C_9  and  N_10 
REMARK    3  A    between atoms: N_10  and  C_11 
REMARK    4  A    between atoms: C_11  and  C_12 
REMARK    5  A    between atoms: C_19  and  C_20 
ROOT
HETATM    1  C   UNL     1       6.535  26.187  54.699  1.00  0.00     0.118 C 
HETATM    2  N   UNL     1       7.677  27.059  54.967  1.00  0.00    -0.366 N 
HETATM    3  C   UNL     1       7.699  27.928  55.996  1.00  0.00     0.123 A 
HETATM    4  N   UNL     1       6.567  28.216  56.702  1.00  0.00    -0.240 N 
HETATM    5  N   UNL     1       6.776  28.975  57.790  1.00  0.00    -0.165 NA
HETATM    6  C   UNL     1       8.094  29.274  57.714  1.00  0.00     0.148 A 
HETATM    7  C   UNL     1       8.698  28.657  56.581  1.00  0.00     0.088 A 
HETATM    8  C   UNL     1       5.279  27.621  56.407  1.00  0.00     0.221 C 
HETATM    9  C   UNL     1       5.509  26.205  55.854  1.00  0.00     0.066 C 
HETATM   10  H   UNL     1       8.518  26.871  54.420  1.00  0.00     0.161 HD
ENDROOT
BRANCH   6  11
HETATM   11  C   UNL     1       8.779  30.082  58.734  1.00  0.00     0.272 C 
HETATM   12  N   UNL     1       8.049  30.242  59.888  1.00  0.00    -0.353 N 
HETATM   13  H   UNL     1       7.203  29.677  59.948  1.00  0.00     0.162 HD
HETATM   14  O   UNL     1       9.911  30.532  58.576  1.00  0.00    -0.266 OA
BRANCH  12  15
HETATM   15  C   UNL     1       8.650  30.717  61.116  1.00  0.00     0.155 C 
BRANCH  15  16
HETATM   16  C   UNL     1       7.905  31.927  61.671  1.00  0.00     0.139 C 
HETATM   17  O   UNL     1       6.495  31.637  61.793  1.00  0.00    -0.384 OA
HETATM   18  C   UNL     1       6.013  32.245  63.001  1.00  0.00     0.168 C 
HETATM   19  C   UNL     1       7.152  33.061  63.576  1.00  0.00     0.029 C 
HETATM   20  C   UNL     1       8.363  32.324  63.062  1.00  0.00     0.035 C 
ENDBRANCH  15  16
ENDBRANCH  12  15
ENDBRANCH   6  11
BRANCH   8  21
HETATM   21  C   UNL     1       4.502  28.502  55.457  1.00  0.00     0.409 C 
HETATM   22  F   UNL     1       5.267  29.464  54.897  1.00  0.00    -0.169 F 
HETATM   23  F   UNL     1       3.898  27.822  54.460  1.00  0.00    -0.169 F 
HETATM   24  F   UNL     1       3.514  29.142  56.137  1.00  0.00    -0.169 F 
ENDBRANCH   8  21
BRANCH   1  25
HETATM   25  C   UNL     1       7.055  24.777  54.455  1.00  0.00    -0.034 A 
HETATM   26  C   UNL     1       7.173  24.267  53.150  1.00  0.00     0.011 A 
HETATM   27  C   UNL     1       7.637  22.968  52.927  1.00  0.00     0.026 A 
HETATM   28  C   UNL     1       7.987  22.156  54.004  1.00  0.00     0.055 A 
HETATM   29  C   UNL     1       7.874  22.646  55.309  1.00  0.00     0.056 A 
HETATM   30 CL   UNL     1       8.547  20.559  53.658  1.00  0.00    -0.083 Cl
HETATM   31  C   UNL     1       7.411  23.951  55.532  1.00  0.00     0.034 A 
HETATM   32 CL   UNL     1       8.283  21.696  56.693  1.00  0.00    -0.083 Cl
ENDBRANCH   1  25
TORSDOF 5
ENDMDL
MODEL 2
REMARK VINA RESULT:     -10.3      0.819      1.462
REMARK  5 active torsions:
REMARK  status: ('A' for Active; 'I' for Inactive)
REMARK    1  A    between atoms: C_2  and  C_3 
REMARK    2  A    between atoms: C_8  and  C_9 
REMARK       I    between atoms: C_9  and  N_10 
REMARK    3  A    between atoms: N_10  and  C_11 
REMARK    4  A    between atoms: C_11  and  C_12 
REMARK    5  A    between atoms: C_19  and  C_20 
ROOT
HETATM    1  C   UNL     1       6.806  26.031  55.453  1.00  0.00     0.118 C 
HETATM    2  N   UNL     1       7.892  26.960  55.759  1.00  0.00    -0.366 N 
HETATM    3  C   UNL     1       7.729  28.021  56.574  1.00  0.00     0.123 A 
HETATM    4  N   UNL     1       6.486  28.425  56.968  1.00  0.00    -0.240 N 
HETATM    5  N   UNL     1       6.493  29.393  57.899  1.00  0.00    -0.165 NA
HETATM    6  C   UNL     1       7.806  29.694  58.027  1.00  0.00     0.148 A 
HETATM    7  C   UNL     1       8.609  28.871  57.186  1.00  0.00     0.088 A 
HETATM    8  C   UNL     1       5.269  27.758  56.551  1.00  0.00     0.221 C 
HETATM    9  C   UNL     1       5.572  26.264  56.353  1.00  0.00     0.066 C 
HETATM   10  H   UNL     1       8.820  26.681  55.440  1.00  0.00     0.161 HD
ENDROOT
BRANCH   6  11
HETATM   11  C   UNL     1       8.294  30.706  58.977  1.00  0.00     0.272 C 
HETATM   12  N   UNL     1       8.017  30.403  60.290  1.00  0.00    -0.353 N 
HETATM   13  H   UNL     1       7.643  29.469  60.450  1.00  0.00     0.162 HD
HETATM   14  O   UNL     1       8.922  31.701  58.625  1.00  0.00    -0.266 OA
BRANCH  12  15
HETATM   15  C   UNL     1       8.674  31.081  61.387  1.00  0.00     0.155 C 
BRANCH  15  16
HETATM   16  C   UNL     1       7.788  32.173  61.978  1.00  0.00     0.139 C 
HETATM   17  O   UNL     1       6.402  31.763  61.959  1.00  0.00    -0.384 OA
HETATM   18  C   UNL     1       5.780  32.219  63.170  1.00  0.00     0.168 C 
HETATM   19  C   UNL     1       6.799  33.067  63.903  1.00  0.00     0.029 C 
HETATM   20  C   UNL     1       8.104  32.477  63.432  1.00  0.00     0.035 C 
ENDBRANCH  15  16
ENDBRANCH  12  15
ENDBRANCH   6  11
BRANCH   8  21
HETATM   21  C   UNL     1       4.716  28.414  55.307  1.00  0.00     0.409 C 
HETATM   22  F   UNL     1       5.609  29.230  54.709  1.00  0.00    -0.169 F 
HETATM   23  F   UNL     1       4.276  27.533  54.383  1.00  0.00    -0.169 F 
HETATM   24  F   UNL     1       3.647  29.186  55.638  1.00  0.00    -0.169 F 
ENDBRANCH   8  21
BRANCH   1  25
HETATM   25  C   UNL     1       7.332  24.610  55.608  1.00  0.00    -0.034 A 
HETATM   26  C   UNL     1       7.861  24.166  56.834  1.00  0.00     0.011 A 
HETATM   27  C   UNL     1       8.355  22.867  56.972  1.00  0.00     0.026 A 
HETATM   28  C   UNL     1       8.332  21.990  55.888  1.00  0.00     0.055 A 
HETATM   29  C   UNL     1       7.812  22.416  54.662  1.00  0.00     0.056 A 
HETATM   30 CL   UNL     1       8.965  20.401  56.127  1.00  0.00    -0.083 Cl
HETATM   31  C   UNL     1       7.313  23.720  54.525  1.00  0.00     0.034 A 
HETATM   32 CL   UNL     1       7.757  21.389  53.274  1.00  0.00    -0.083 Cl
ENDBRANCH   1  25
TORSDOF 5
ENDMDL
MODEL 3
REMARK VINA RESULT:     -10.0      2.343      3.442
REMARK  5 active torsions:
REMARK  status: ('A' for Active; 'I' for Inactive)
REMARK    1  A    between atoms: C_2  and  C_3 
REMARK    2  A    between atoms: C_8  and  C_9 
REMARK       I    between atoms: C_9  and  N_10 
REMARK    3  A    between atoms: N_10  and  C_11 
REMARK    4  A    between atoms: C_11  and  C_12 
REMARK    5  A    between atoms: C_19  and  C_20 
ROOT
HETATM    1  C   UNL     1       6.739  25.191  53.238  1.00  0.00     0.118 C 
HETATM    2  N   UNL     1       7.403  26.294  53.930  1.00  0.00    -0.366 N 
HETATM    3  C   UNL     1       6.740  27.390  54.350  1.00  0.00     0.123 A 
HETATM    4  N   UNL     1       5.462  27.641  53.943  1.00  0.00    -0.240 N 
HETATM    5  N   UNL     1       4.882  28.682  54.565  1.00  0.00    -0.165 NA
HETATM    6  C   UNL     1       5.880  29.183  55.330  1.00  0.00     0.148 A 
HETATM    7  C   UNL     1       7.070  28.413  55.195  1.00  0.00     0.088 A 
HETATM    8  C   UNL     1       4.731  26.768  53.047  1.00  0.00     0.221 C 
HETATM    9  C   UNL     1       5.200  25.323  53.282  1.00  0.00     0.066 C 
HETATM   10  H   UNL     1       8.370  26.126  54.209  1.00  0.00     0.161 HD
ENDROOT
BRANCH   6  11
HETATM   11  C   UNL     1       5.686  30.338  56.220  1.00  0.00     0.272 C 
HETATM   12  N   UNL     1       6.197  30.148  57.483  1.00  0.00    -0.353 N 
HETATM   13  H   UNL     1       6.759  29.307  57.602  1.00  0.00     0.162 HD
HETATM   14  O   UNL     1       5.154  31.380  55.850  1.00  0.00    -0.266 OA
BRANCH  12  15
HETATM   15  C   UNL     1       6.400  31.249  58.400  1.00  0.00     0.155 C 
BRANCH  15  16
HETATM   16  C   UNL     1       7.683  31.073  59.207  1.00  0.00     0.139 C 
HETATM   17  O   UNL     1       8.812  30.888  58.325  1.00  0.00    -0.384 OA
HETATM   18  C   UNL     1       9.936  31.589  58.878  1.00  0.00     0.168 C 
HETATM   19  C   UNL     1       9.511  32.114  60.234  1.00  0.00     0.029 C 
HETATM   20  C   UNL     1       8.023  32.282  60.059  1.00  0.00     0.035 C 
ENDBRANCH  15  16
ENDBRANCH  12  15
ENDBRANCH   6  11
BRANCH   8  21
HETATM   21  C   UNL     1       4.913  27.218  51.616  1.00  0.00     0.409 C 
HETATM   22  F   UNL     1       5.127  26.188  50.771  1.00  0.00    -0.169 F 
HETATM   23  F   UNL     1       3.873  27.935  51.140  1.00  0.00    -0.169 F 
HETATM   24  F   UNL     1       6.005  28.023  51.529  1.00  0.00    -0.169 F 
ENDBRANCH   8  21
BRANCH   1  25
HETATM   25  C   UNL     1       7.191  23.884  53.873  1.00  0.00    -0.034 A 
HETATM   26  C   UNL     1       7.272  23.750  55.271  1.00  0.00     0.011 A 
HETATM   27  C   UNL     1       7.700  22.555  55.853  1.00  0.00     0.026 A 
HETATM   28  C   UNL     1       8.057  21.473  55.049  1.00  0.00     0.055 A 
HETATM   29  C   UNL     1       7.984  21.590  53.657  1.00  0.00     0.056 A 
HETATM   30 CL   UNL     1       8.583  20.027  55.834  1.00  0.00    -0.083 Cl
HETATM   31  C   UNL     1       7.552  22.789  53.074  1.00  0.00     0.034 A 
HETATM   32 CL   UNL     1       8.417  20.296  52.597  1.00  0.00    -0.083 Cl
ENDBRANCH   1  25
TORSDOF 5
ENDMDL
MODEL 4
REMARK VINA RESULT:      -9.8      4.969      8.374
REMARK  5 active torsions:
REMARK  status: ('A' for Active; 'I' for Inactive)
REMARK    1  A    between atoms: C_2  and  C_3 
REMARK    2  A    between atoms: C_8  and  C_9 
REMARK       I    between atoms: C_9  and  N_10 
REMARK    3  A    between atoms: N_10  and  C_11 
REMARK    4  A    between atoms: C_11  and  C_12 
REMARK    5  A    between atoms: C_19  and  C_20 
ROOT
HETATM    1  C   UNL     1       6.071  25.357  55.162  1.00  0.00     0.118 C 
HETATM    2  N   UNL     1       5.524  25.360  53.807  1.00  0.00    -0.366 N 
HETATM    3  C   UNL     1       5.563  26.448  53.013  1.00  0.00     0.123 A 
HETATM    4  N   UNL     1       5.897  27.675  53.510  1.00  0.00    -0.240 N 
HETATM    5  N   UNL     1       6.044  28.626  52.573  1.00  0.00    -0.165 NA
HETATM    6  C   UNL     1       5.681  27.997  51.430  1.00  0.00     0.148 A 
HETATM    7  C   UNL     1       5.342  26.635  51.676  1.00  0.00     0.088 A 
HETATM    8  C   UNL     1       6.231  27.899  54.902  1.00  0.00     0.221 C 
HETATM    9  C   UNL     1       6.898  26.629  55.456  1.00  0.00     0.066 C 
HETATM   10  H   UNL     1       5.241  24.452  53.439  1.00  0.00     0.161 HD
ENDROOT
BRANCH   6  11
HETATM   11  C   UNL     1       5.713  28.663  50.119  1.00  0.00     0.272 C 
HETATM   12  N   UNL     1       5.400  27.828  49.072  1.00  0.00    -0.353 N 
HETATM   13  H   UNL     1       5.055  26.908  49.340  1.00  0.00     0.162 HD
HETATM   14  O   UNL     1       5.958  29.859  49.987  1.00  0.00    -0.266 OA
BRANCH  12  15
HETATM   15  C   UNL     1       5.063  28.338  47.761  1.00  0.00     0.155 C 
BRANCH  15  16
HETATM   16  C   UNL     1       3.711  27.811  47.288  1.00  0.00     0.139 C 
HETATM   17  O   UNL     1       3.807  26.410  46.948  1.00  0.00    -0.384 OA
HETATM   18  C   UNL     1       2.604  25.757  47.381  1.00  0.00     0.168 C 
HETATM   19  C   UNL     1       1.669  26.835  47.888  1.00  0.00     0.029 C 
HETATM   20  C   UNL     1       2.631  27.900  48.350  1.00  0.00     0.035 C 
ENDBRANCH  15  16
ENDBRANCH  12  15
ENDBRANCH   6  11
BRANCH   8  21
HETATM   21  C   UNL     1       4.997  28.299  55.676  1.00  0.00     0.409 C 
HETATM   22  F   UNL     1       3.862  28.135  54.965  1.00  0.00    -0.169 F 
HETATM   23  F   UNL     1       4.853  27.635  56.843  1.00  0.00    -0.169 F 
HETATM   24  F   UNL     1       5.068  29.619  55.994  1.00  0.00    -0.169 F 
ENDBRANCH   8  21
BRANCH   1  25
HETATM   25  C   UNL     1       6.920  24.105  55.334  1.00  0.00    -0.034 A 
HETATM   26  C   UNL     1       7.561  23.830  56.555  1.00  0.00     0.011 A 
HETATM   27  C   UNL     1       8.350  22.688  56.709  1.00  0.00     0.026 A 
HETATM   28  C   UNL     1       8.515  21.803  55.645  1.00  0.00     0.055 A 
HETATM   29  C   UNL     1       7.887  22.062  54.422  1.00  0.00     0.056 A 
HETATM   30 CL   UNL     1       9.510  20.414  55.901  1.00  0.00    -0.083 Cl
HETATM   31  C   UNL     1       7.092  23.207  54.270  1.00  0.00     0.034 A 
HETATM   32 CL   UNL     1       8.051  21.016  53.057  1.00  0.00    -0.083 Cl
ENDBRANCH   1  25
TORSDOF 5
ENDMDL
MODEL 5
REMARK VINA RESULT:      -9.5      4.694      8.021
REMARK  5 active torsions:
REMARK  status: ('A' for Active; 'I' for Inactive)
REMARK    1  A    between atoms: C_2  and  C_3 
REMARK    2  A    between atoms: C_8  and  C_9 
REMARK       I    between atoms: C_9  and  N_10 
REMARK    3  A    between atoms: N_10  and  C_11 
REMARK    4  A    between atoms: C_11  and  C_12 
REMARK    5  A    between atoms: C_19  and  C_20 
ROOT
HETATM    1  C   UNL     1       6.489  25.473  55.199  1.00  0.00     0.118 C 
HETATM    2  N   UNL     1       5.185  25.684  54.572  1.00  0.00    -0.366 N 
HETATM    3  C   UNL     1       4.827  26.862  54.025  1.00  0.00     0.123 A 
HETATM    4  N   UNL     1       5.562  27.992  54.235  1.00  0.00    -0.240 N 
HETATM    5  N   UNL     1       5.171  29.047  53.502  1.00  0.00    -0.165 NA
HETATM    6  C   UNL     1       4.063  28.594  52.871  1.00  0.00     0.148 A 
HETATM    7  C   UNL     1       3.800  27.233  53.201  1.00  0.00     0.088 A 
HETATM    8  C   UNL     1       6.763  28.013  55.047  1.00  0.00     0.221 C 
HETATM    9  C   UNL     1       7.457  26.647  54.931  1.00  0.00     0.066 C 
HETATM   10  H   UNL     1       4.615  24.848  54.440  1.00  0.00     0.161 HD
ENDROOT
BRANCH   6  11
HETATM   11  C   UNL     1       3.301  29.423  51.923  1.00  0.00     0.272 C 
HETATM   12  N   UNL     1       2.577  28.688  51.013  1.00  0.00    -0.353 N 
HETATM   13  H   UNL     1       2.545  27.686  51.191  1.00  0.00     0.162 HD
HETATM   14  O   UNL     1       3.288  30.649  51.974  1.00  0.00    -0.266 OA
BRANCH  12  15
HETATM   15  C   UNL     1       1.526  29.281  50.214  1.00  0.00     0.155 C 
BRANCH  15  16
HETATM   16  C   UNL     1       1.708  28.968  48.732  1.00  0.00     0.139 C 
HETATM   17  O   UNL     1       3.109  28.996  48.379  1.00  0.00    -0.384 OA
HETATM   18  C   UNL     1       3.359  27.937  47.442  1.00  0.00     0.168 C 
HETATM   19  C   UNL     1       2.020  27.318  47.100  1.00  0.00     0.029 C 
HETATM   20  C   UNL     1       1.218  27.584  48.349  1.00  0.00     0.035 C 
ENDBRANCH  15  16
ENDBRANCH  12  15
ENDBRANCH   6  11
BRANCH   8  21
HETATM   21  C   UNL     1       6.423  28.379  56.472  1.00  0.00     0.409 C 
HETATM   22  F   UNL     1       5.145  28.084  56.793  1.00  0.00    -0.169 F 
HETATM   23  F   UNL     1       7.224  27.792  57.386  1.00  0.00    -0.169 F 
HETATM   24  F   UNL     1       6.565  29.720  56.644  1.00  0.00    -0.169 F 
ENDBRANCH   8  21
BRANCH   1  25
HETATM   25  C   UNL     1       7.065  24.163  54.680  1.00  0.00    -0.034 A 
HETATM   26  C   UNL     1       7.425  24.018  53.328  1.00  0.00     0.011 A 
HETATM   27  C   UNL     1       7.942  22.812  52.849  1.00  0.00     0.026 A 
HETATM   28  C   UNL     1       8.104  21.728  53.712  1.00  0.00     0.055 A 
HETATM   29  C   UNL     1       7.748  21.854  55.059  1.00  0.00     0.056 A 
HETATM   30 CL   UNL     1       8.742  20.265  53.053  1.00  0.00    -0.083 Cl
HETATM   31  C   UNL     1       7.233  23.067  55.539  1.00  0.00     0.034 A 
HETATM   32 CL   UNL     1       7.914  20.554  56.185  1.00  0.00    -0.083 Cl
ENDBRANCH   1  25
TORSDOF 5
ENDMDL
MODEL 6
REMARK VINA RESULT:      -9.3      1.984      2.289
REMARK  5 active torsions:
REMARK  status: ('A' for Active; 'I' for Inactive)
REMARK    1  A    between atoms: C_2  and  C_3 
REMARK    2  A    between atoms: C_8  and  C_9 
REMARK       I    between atoms: C_9  and  N_10 
REMARK    3  A    between atoms: N_10  and  C_11 
REMARK    4  A    between atoms: C_11  and  C_12 
REMARK    5  A    between atoms: C_19  and  C_20 
ROOT
HETATM    1  C   UNL     1       6.646  25.763  54.146  1.00  0.00     0.118 C 
HETATM    2  N   UNL     1       7.676  26.655  54.673  1.00  0.00    -0.366 N 
HETATM    3  C   UNL     1       7.416  27.591  55.607  1.00  0.00     0.123 A 
HETATM    4  N   UNL     1       6.134  27.921  55.939  1.00  0.00    -0.240 N 
HETATM    5  N   UNL     1       6.034  28.752  56.989  1.00  0.00    -0.165 NA
HETATM    6  C   UNL     1       7.323  29.049  57.275  1.00  0.00     0.148 A 
HETATM    7  C   UNL     1       8.217  28.361  56.405  1.00  0.00     0.088 A 
HETATM    8  C   UNL     1       4.975  27.303  55.326  1.00  0.00     0.221 C 
HETATM    9  C   UNL     1       5.332  25.854  54.955  1.00  0.00     0.066 C 
HETATM   10  H   UNL     1       8.635  26.435  54.403  1.00  0.00     0.161 HD
ENDROOT
BRANCH   6  11
HETATM   11  C   UNL     1       7.701  29.927  58.394  1.00  0.00     0.272 C 
HETATM   12  N   UNL     1       7.053  31.140  58.382  1.00  0.00    -0.353 N 
HETATM   13  H   UNL     1       6.304  31.225  57.696  1.00  0.00     0.162 HD
HETATM   14  O   UNL     1       8.489  29.584  59.271  1.00  0.00    -0.266 OA
BRANCH  12  15
HETATM   15  C   UNL     1       7.030  32.007  59.540  1.00  0.00     0.155 C 
BRANCH  15  16
HETATM   16  C   UNL     1       5.796  32.904  59.541  1.00  0.00     0.139 C 
HETATM   17  O   UNL     1       5.504  33.361  58.202  1.00  0.00    -0.384 OA
HETATM   18  C   UNL     1       4.078  33.368  58.029  1.00  0.00     0.168 C 
HETATM   19  C   UNL     1       3.464  33.030  59.372  1.00  0.00     0.029 C 
HETATM   20  C   UNL     1       4.541  32.192  60.013  1.00  0.00     0.035 C 
ENDBRANCH  15  16
ENDBRANCH  12  15
ENDBRANCH   6  11
BRANCH   8  21
HETATM   21  C   UNL     1       4.516  28.116  54.139  1.00  0.00     0.409 C 
HETATM   22  F   UNL     1       3.647  29.091  54.481  1.00  0.00    -0.169 F 
HETATM   23  F   UNL     1       5.528  28.687  53.452  1.00  0.00    -0.169 F 
HETATM   24  F   UNL     1       3.865  27.309  53.260  1.00  0.00    -0.169 F 
ENDBRANCH   8  21
BRANCH   1  25
HETATM   25  C   UNL     1       7.191  24.342  54.153  1.00  0.00    -0.034 A 
HETATM   26  C   UNL     1       7.369  23.631  52.953  1.00  0.00     0.011 A 
HETATM   27  C   UNL     1       7.857  22.323  52.960  1.00  0.00     0.026 A 
HETATM   28  C   UNL     1       8.173  21.700  54.168  1.00  0.00     0.055 A 
HETATM   29  C   UNL     1       8.000  22.392  55.371  1.00  0.00     0.056 A 
HETATM   30 CL   UNL     1       8.766  20.079  54.105  1.00  0.00    -0.083 Cl
HETATM   31  C   UNL     1       7.513  23.707  55.362  1.00  0.00     0.034 A 
HETATM   32 CL   UNL     1       8.363  21.684  56.905  1.00  0.00    -0.083 Cl
ENDBRANCH   1  25
TORSDOF 5
ENDMDL
MODEL 7
REMARK VINA RESULT:      -8.9      3.338      4.121
REMARK  5 active torsions:
REMARK  status: ('A' for Active; 'I' for Inactive)
REMARK    1  A    between atoms: C_2  and  C_3 
REMARK    2  A    between atoms: C_8  and  C_9 
REMARK       I    between atoms: C_9  and  N_10 
REMARK    3  A    between atoms: N_10  and  C_11 
REMARK    4  A    between atoms: C_11  and  C_12 
REMARK    5  A    between atoms: C_19  and  C_20 
ROOT
HETATM    1  C   UNL     1       6.810  25.252  53.513  1.00  0.00     0.118 C 
HETATM    2  N   UNL     1       7.565  26.311  54.180  1.00  0.00    -0.366 N 
HETATM    3  C   UNL     1       6.978  27.418  54.674  1.00  0.00     0.123 A 
HETATM    4  N   UNL     1       5.684  27.728  54.370  1.00  0.00    -0.240 N 
HETATM    5  N   UNL     1       5.192  28.772  55.057  1.00  0.00    -0.165 NA
HETATM    6  C   UNL     1       6.262  29.215  55.758  1.00  0.00     0.148 A 
HETATM    7  C   UNL     1       7.409  28.406  55.517  1.00  0.00     0.088 A 
HETATM    8  C   UNL     1       4.856  26.906  53.510  1.00  0.00     0.221 C 
HETATM    9  C   UNL     1       5.285  25.439  53.675  1.00  0.00     0.066 C 
HETATM   10  H   UNL     1       8.543  26.100  54.383  1.00  0.00     0.161 HD
ENDROOT
BRANCH   6  11
HETATM   11  C   UNL     1       6.179  30.353  56.688  1.00  0.00     0.272 C 
HETATM   12  N   UNL     1       5.279  31.316  56.295  1.00  0.00    -0.353 N 
HETATM   13  H   UNL     1       4.691  31.064  55.502  1.00  0.00     0.162 HD
HETATM   14  O   UNL     1       6.825  30.408  57.730  1.00  0.00    -0.266 OA
BRANCH  12  15
HETATM   15  C   UNL     1       4.810  32.341  57.202  1.00  0.00     0.155 C 
BRANCH  15  16
HETATM   16  C   UNL     1       4.105  33.469  56.454  1.00  0.00     0.139 C 
HETATM   17  O   UNL     1       2.685  33.437  56.718  1.00  0.00    -0.384 OA
HETATM   18  C   UNL     1       2.219  34.790  56.836  1.00  0.00     0.168 C 
HETATM   19  C   UNL     1       3.383  35.696  56.492  1.00  0.00     0.029 C 
HETATM   20  C   UNL     1       4.570  34.850  56.879  1.00  0.00     0.035 C 
ENDBRANCH  15  16
ENDBRANCH  12  15
ENDBRANCH   6  11
BRANCH   8  21
HETATM   21  C   UNL     1       4.950  27.387  52.081  1.00  0.00     0.409 C 
HETATM   22  F   UNL     1       6.045  28.145  51.858  1.00  0.00    -0.169 F 
HETATM   23  F   UNL     1       4.948  26.387  51.173  1.00  0.00    -0.169 F 
HETATM   24  F   UNL     1       3.874  28.167  51.793  1.00  0.00    -0.169 F 
ENDBRANCH   8  21
BRANCH   1  25
HETATM   25  C   UNL     1       7.257  23.912  54.082  1.00  0.00    -0.034 A 
HETATM   26  C   UNL     1       7.406  23.730  55.468  1.00  0.00     0.011 A 
HETATM   27  C   UNL     1       7.828  22.505  55.989  1.00  0.00     0.026 A 
HETATM   28  C   UNL     1       8.113  21.441  55.133  1.00  0.00     0.055 A 
HETATM   29  C   UNL     1       7.972  21.606  53.751  1.00  0.00     0.056 A 
HETATM   30 CL   UNL     1       8.637  19.956  55.843  1.00  0.00    -0.083 Cl
HETATM   31  C   UNL     1       7.545  22.835  53.230  1.00  0.00     0.034 A 
HETATM   32 CL   UNL     1       8.313  20.337  52.629  1.00  0.00    -0.083 Cl
ENDBRANCH   1  25
TORSDOF 5
ENDMDL
MODEL 8
REMARK VINA RESULT:      -8.9      4.528      8.670
REMARK  5 active torsions:
REMARK  status: ('A' for Active; 'I' for Inactive)
REMARK    1  A    between atoms: C_2  and  C_3 
REMARK    2  A    between atoms: C_8  and  C_9 
REMARK       I    between atoms: C_9  and  N_10 
REMARK    3  A    between atoms: N_10  and  C_11 
REMARK    4  A    between atoms: C_11  and  C_12 
REMARK    5  A    between atoms: C_19  and  C_20 
ROOT
HETATM    1  C   UNL     1       6.179  29.447  57.409  1.00  0.00     0.118 C 
HETATM    2  N   UNL     1       6.616  28.061  57.254  1.00  0.00    -0.366 N 
HETATM    3  C   UNL     1       6.742  27.472  56.048  1.00  0.00     0.123 A 
HETATM    4  N   UNL     1       6.241  28.056  54.921  1.00  0.00    -0.240 N 
HETATM    5  N   UNL     1       6.580  27.430  53.781  1.00  0.00    -0.165 NA
HETATM    6  C   UNL     1       7.242  26.331  54.213  1.00  0.00     0.148 A 
HETATM    7  C   UNL     1       7.335  26.311  55.635  1.00  0.00     0.088 A 
HETATM    8  C   UNL     1       5.550  29.329  54.931  1.00  0.00     0.221 C 
HETATM    9  C   UNL     1       6.135  30.195  56.058  1.00  0.00     0.066 C 
HETATM   10  H   UNL     1       6.962  27.606  58.099  1.00  0.00     0.161 HD
ENDROOT
BRANCH   6  11
HETATM   11  C   UNL     1       7.828  25.349  53.288  1.00  0.00     0.272 C 
HETATM   12  N   UNL     1       7.800  24.061  53.768  1.00  0.00    -0.353 N 
HETATM   13  H   UNL     1       7.263  23.927  54.623  1.00  0.00     0.162 HD
HETATM   14  O   UNL     1       8.261  25.655  52.180  1.00  0.00    -0.266 OA
BRANCH  12  15
HETATM   15  C   UNL     1       8.024  22.919  52.907  1.00  0.00     0.155 C 
BRANCH  15  16
HETATM   16  C   UNL     1       8.787  21.814  53.633  1.00  0.00     0.139 C 
HETATM   17  O   UNL     1       9.129  22.234  54.972  1.00  0.00    -0.384 OA
HETATM   18  C   UNL     1       8.978  21.109  55.850  1.00  0.00     0.168 C 
HETATM   19  C   UNL     1       8.660  19.907  54.985  1.00  0.00     0.029 C 
HETATM   20  C   UNL     1       7.979  20.540  53.799  1.00  0.00     0.035 C 
ENDBRANCH  15  16
ENDBRANCH  12  15
ENDBRANCH   6  11
BRANCH   8  21
HETATM   21  C   UNL     1       4.061  29.113  55.069  1.00  0.00     0.409 C 
HETATM   22  F   UNL     1       3.734  28.471  56.211  1.00  0.00    -0.169 F 
HETATM   23  F   UNL     1       3.342  30.254  55.016  1.00  0.00    -0.169 F 
HETATM   24  F   UNL     1       3.618  28.334  54.047  1.00  0.00    -0.169 F 
ENDBRANCH   8  21
BRANCH   1  25
HETATM   25  C   UNL     1       7.120  30.141  58.385  1.00  0.00    -0.034 A 
HETATM   26  C   UNL     1       8.481  29.792  58.446  1.00  0.00     0.011 A 
HETATM   27  C   UNL     1       9.341  30.419  59.350  1.00  0.00     0.026 A 
HETATM   28  C   UNL     1       8.855  31.403  60.211  1.00  0.00     0.055 A 
HETATM   29  C   UNL     1       7.504  31.761  60.164  1.00  0.00     0.056 A 
HETATM   30 CL   UNL     1       9.972  32.134  61.308  1.00  0.00    -0.083 Cl
HETATM   31  C   UNL     1       6.642  31.132  59.254  1.00  0.00     0.034 A 
HETATM   32 CL   UNL     1       6.829  32.965  61.203  1.00  0.00    -0.083 Cl
ENDBRANCH   1  25
TORSDOF 5
ENDMDL
MODEL 9
REMARK VINA RESULT:      -8.7      5.330      7.247
REMARK  5 active torsions:
REMARK  status: ('A' for Active; 'I' for Inactive)
REMARK    1  A    between atoms: C_2  and  C_3 
REMARK    2  A    between atoms: C_8  and  C_9 
REMARK       I    between atoms: C_9  and  N_10 
REMARK    3  A    between atoms: N_10  and  C_11 
REMARK    4  A    between atoms: C_11  and  C_12 
REMARK    5  A    between atoms: C_19  and  C_20 
ROOT
HETATM    1  C   UNL     1       6.224  25.228  54.393  1.00  0.00     0.118 C 
HETATM    2  N   UNL     1       5.435  25.391  53.173  1.00  0.00    -0.366 N 
HETATM    3  C   UNL     1       5.449  26.527  52.448  1.00  0.00     0.123 A 
HETATM    4  N   UNL     1       6.010  27.670  52.937  1.00  0.00    -0.240 N 
HETATM    5  N   UNL     1       6.087  28.670  52.043  1.00  0.00    -0.165 NA
HETATM    6  C   UNL     1       5.445  28.171  50.961  1.00  0.00     0.148 A 
HETATM    7  C   UNL     1       5.004  26.837  51.192  1.00  0.00     0.088 A 
HETATM    8  C   UNL     1       6.625  27.752  54.247  1.00  0.00     0.221 C 
HETATM    9  C   UNL     1       7.233  26.382  54.589  1.00  0.00     0.066 C 
HETATM   10  H   UNL     1       4.985  24.547  52.819  1.00  0.00     0.161 HD
ENDROOT
BRANCH   6  11
HETATM   11  C   UNL     1       5.306  28.929  49.708  1.00  0.00     0.272 C 
HETATM   12  N   UNL     1       5.201  30.288  49.898  1.00  0.00    -0.353 N 
HETATM   13  H   UNL     1       5.370  30.607  50.851  1.00  0.00     0.162 HD
HETATM   14  O   UNL     1       5.324  28.395  48.603  1.00  0.00    -0.266 OA
BRANCH  12  15
HETATM   15  C   UNL     1       5.378  31.229  48.813  1.00  0.00     0.155 C 
BRANCH  15  16
HETATM   16  C   UNL     1       6.082  32.497  49.284  1.00  0.00     0.139 C 
HETATM   17  O   UNL     1       5.773  33.601  48.405  1.00  0.00    -0.384 OA
HETATM   18  C   UNL     1       5.616  34.784  49.204  1.00  0.00     0.168 C 
HETATM   19  C   UNL     1       5.981  34.413  50.627  1.00  0.00     0.029 C 
HETATM   20  C   UNL     1       5.648  32.943  50.668  1.00  0.00     0.035 C 
ENDBRANCH  15  16
ENDBRANCH  12  15
ENDBRANCH   6  11
BRANCH   8  21
HETATM   21  C   UNL     1       5.614  28.216  55.269  1.00  0.00     0.409 C 
HETATM   22  F   UNL     1       5.729  27.566  56.446  1.00  0.00    -0.169 F 
HETATM   23  F   UNL     1       5.670  29.541  55.521  1.00  0.00    -0.169 F 
HETATM   24  F   UNL     1       4.358  27.967  54.811  1.00  0.00    -0.169 F 
ENDBRANCH   8  21
BRANCH   1  25
HETATM   25  C   UNL     1       6.940  23.886  54.326  1.00  0.00    -0.034 A 
HETATM   26  C   UNL     1       7.269  23.305  53.088  1.00  0.00     0.011 A 
HETATM   27  C   UNL     1       7.914  22.067  53.027  1.00  0.00     0.026 A 
HETATM   28  C   UNL     1       8.238  21.388  54.200  1.00  0.00     0.055 A 
HETATM   29  C   UNL     1       7.916  21.950  55.440  1.00  0.00     0.056 A 
HETATM   30 CL   UNL     1       9.029  19.859  54.052  1.00  0.00    -0.083 Cl
HETATM   31  C   UNL     1       7.271  23.194  55.500  1.00  0.00     0.034 A 
HETATM   32 CL   UNL     1       8.279  21.164  56.935  1.00  0.00    -0.083 Cl
ENDBRANCH   1  25
TORSDOF 5
ENDMDL
MODEL 10
REMARK VINA RESULT:      -8.6      4.225      5.551
REMARK  5 active torsions:
REMARK  status: ('A' for Active; 'I' for Inactive)
REMARK    1  A    between atoms: C_2  and  C_3 
REMARK    2  A    between atoms: C_8  and  C_9 
REMARK       I    between atoms: C_9  and  N_10 
REMARK    3  A    between atoms: N_10  and  C_11 
REMARK    4  A    between atoms: C_11  and  C_12 
REMARK    5  A    between atoms: C_19  and  C_20 
ROOT
HETATM    1  C   UNL     1       6.506  25.326  55.530  1.00  0.00     0.118 C 
HETATM    2  N   UNL     1       5.296  25.765  54.839  1.00  0.00    -0.366 N 
HETATM    3  C   UNL     1       5.092  27.048  54.479  1.00  0.00     0.123 A 
HETATM    4  N   UNL     1       5.892  28.049  54.949  1.00  0.00    -0.240 N 
HETATM    5  N   UNL     1       5.665  29.245  54.381  1.00  0.00    -0.165 NA
HETATM    6  C   UNL     1       4.594  29.015  53.586  1.00  0.00     0.148 A 
HETATM    7  C   UNL     1       4.189  27.651  53.647  1.00  0.00     0.088 A 
HETATM    8  C   UNL     1       7.001  27.817  55.852  1.00  0.00     0.221 C 
HETATM    9  C   UNL     1       7.589  26.428  55.558  1.00  0.00     0.066 C 
HETATM   10  H   UNL     1       4.676  25.023  54.513  1.00  0.00     0.161 HD
ENDROOT
BRANCH   6  11
HETATM   11  C   UNL     1       4.004  30.061  52.737  1.00  0.00     0.272 C 
HETATM   12  N   UNL     1       3.715  31.221  53.417  1.00  0.00    -0.353 N 
HETATM   13  H   UNL     1       4.067  31.263  54.372  1.00  0.00     0.162 HD
HETATM   14  O   UNL     1       3.827  29.917  51.530  1.00  0.00    -0.266 OA
BRANCH  12  15
HETATM   15  C   UNL     1       3.436  32.463  52.729  1.00  0.00     0.155 C 
BRANCH  15  16
HETATM   16  C   UNL     1       4.472  33.532  53.065  1.00  0.00     0.139 C 
HETATM   17  O   UNL     1       3.938  34.850  52.811  1.00  0.00    -0.384 OA
HETATM   18  C   UNL     1       4.398  35.731  53.847  1.00  0.00     0.168 C 
HETATM   19  C   UNL     1       5.372  34.945  54.700  1.00  0.00     0.029 C 
HETATM   20  C   UNL     1       4.880  33.531  54.527  1.00  0.00     0.035 C 
ENDBRANCH  15  16
ENDBRANCH  12  15
ENDBRANCH   6  11
BRANCH   8  21
HETATM   21  C   UNL     1       6.546  27.970  57.285  1.00  0.00     0.409 C 
HETATM   22  F   UNL     1       6.723  29.222  57.755  1.00  0.00    -0.169 F 
HETATM   23  F   UNL     1       5.254  27.633  57.480  1.00  0.00    -0.169 F 
HETATM   24  F   UNL     1       7.280  27.149  58.084  1.00  0.00    -0.169 F 
ENDBRANCH   8  21
BRANCH   1  25
HETATM   25  C   UNL     1       7.024  24.071  54.841  1.00  0.00    -0.034 A 
HETATM   26  C   UNL     1       7.228  24.044  53.449  1.00  0.00     0.011 A 
HETATM   27  C   UNL     1       7.691  22.889  52.815  1.00  0.00     0.026 A 
HETATM   28  C   UNL     1       7.955  21.740  53.559  1.00  0.00     0.055 A 
HETATM   29  C   UNL     1       7.756  21.749  54.944  1.00  0.00     0.056 A 
HETATM   30 CL   UNL     1       8.519  20.345  52.711  1.00  0.00    -0.083 Cl
HETATM   31  C   UNL     1       7.294  22.910  55.580  1.00  0.00     0.034 A 
HETATM   32 CL   UNL     1       8.054  20.362  55.930  1.00  0.00    -0.083 Cl
ENDBRANCH   1  25
TORSDOF 5
ENDMDL
