MODEL 1
REMARK VINA RESULT:      -9.5      0.000      0.000
REMARK  6 active torsions:
REMARK  status: ('A' for Active; 'I' for Inactive)
REMARK    1  A    between atoms: C_3  and  N_4 
REMARK       I    between atoms: N_4  and  C_5 
REMARK    2  A    between atoms: C_5  and  C_6 
REMARK    3  A    between atoms: C_6  and  C_7 
REMARK    4  A    between atoms: C_7  and  N_8 
REMARK    5  A    between atoms: C_13  and  C_14 
REMARK    6  A    between atoms: C_17  and  O_18 
ROOT
HETATM    1  N   UNL     1       5.823  26.345  54.161  1.00  0.00    -0.305 N 
HETATM    2  C   UNL     1       4.757  26.992  53.581  1.00  0.00     0.196 A 
HETATM    3  S   UNL     1       4.225  28.549  53.765  1.00  0.00    -0.039 SA
HETATM    4  N   UNL     1       4.164  26.080  52.727  1.00  0.00    -0.251 N 
HETATM    5  N   UNL     1       4.823  24.893  52.765  1.00  0.00    -0.153 NA
HETATM    6  C   UNL     1       5.781  25.079  53.631  1.00  0.00     0.162 A 
HETATM    7  H   UNL     1       3.356  26.230  52.134  1.00  0.00     0.191 HD
ENDROOT
BRANCH   1   8
HETATM    8  C   UNL     1       6.811  26.931  55.081  1.00  0.00     0.142 C 
BRANCH   8   9
HETATM    9  C   UNL     1       6.325  26.971  56.524  1.00  0.00     0.123 C 
BRANCH   9  10
HETATM   10  C   UNL     1       7.260  27.703  57.464  1.00  0.00     0.223 C 
HETATM   11  N   UNL     1       7.240  29.077  57.324  1.00  0.00    -0.327 N 
HETATM   12  H   UNL     1       6.345  29.483  57.073  1.00  0.00     0.169 HD
HETATM   13  O   UNL     1       7.966  27.071  58.246  1.00  0.00    -0.273 OA
BRANCH  11  14
HETATM   14  C   UNL     1       8.167  29.971  57.909  1.00  0.00     0.042 A 
HETATM   15  C   UNL     1       9.466  30.209  57.417  1.00  0.00    -0.035 A 
HETATM   16  C   UNL     1      10.019  29.603  56.155  1.00  0.00     0.050 C 
HETATM   17  C   UNL     1      10.303  31.107  58.111  1.00  0.00     0.010 A 
HETATM   18  C   UNL     1       9.850  31.799  59.232  1.00  0.00     0.020 A 
HETATM   19  C   UNL     1       8.548  31.605  59.670  1.00  0.00     0.013 A 
HETATM   20  C   UNL     1       7.707  30.708  59.011  1.00  0.00     0.049 A 
HETATM   21 BR   UNL     1       7.913  32.552  61.178  1.00  0.00    -0.051 Br
ENDBRANCH  11  14
ENDBRANCH   9  10
ENDBRANCH   8   9
ENDBRANCH   1   8
BRANCH   6  22
HETATM   22  C   UNL     1       6.748  24.017  53.958  1.00  0.00     0.012 A 
HETATM   23  C   UNL     1       6.830  23.589  55.287  1.00  0.00     0.018 A 
HETATM   24  C   UNL     1       7.747  22.599  55.643  1.00  0.00     0.037 A 
HETATM   25  C   UNL     1       8.593  22.033  54.687  1.00  0.00     0.068 A 
HETATM   26  C   UNL     1       8.528  22.482  53.367  1.00  0.00     0.037 A 
HETATM   27  C   UNL     1       7.617  23.483  53.004  1.00  0.00     0.018 A 
BRANCH  25  28
HETATM   28  O   UNL     1       9.440  21.075  55.171  1.00  0.00    -0.356 OA
HETATM   29  C   UNL     1       9.052  20.415  56.369  1.00  0.00     0.210 C 
ENDBRANCH  25  28
ENDBRANCH   6  22
TORSDOF 6
ENDMDL
MODEL 2
REMARK VINA RESULT:      -9.2      1.744      2.192
REMARK  6 active torsions:
REMARK  status: ('A' for Active; 'I' for Inactive)
REMARK    1  A    between atoms: C_3  and  N_4 
REMARK       I    between atoms: N_4  and  C_5 
REMARK    2  A    between atoms: C_5  and  C_6 
REMARK    3  A    between atoms: C_6  and  C_7 
REMARK    4  A    between atoms: C_7  and  N_8 
REMARK    5  A    between atoms: C_13  and  C_14 
REMARK    6  A    between atoms: C_17  and  O_18 
ROOT
HETATM    1  N   UNL     1       5.959  26.991  55.648  1.00  0.00    -0.305 N 
HETATM    2  C   UNL     1       4.941  27.539  56.393  1.00  0.00     0.196 A 
HETATM    3  S   UNL     1       4.405  29.102  56.480  1.00  0.00    -0.039 SA
HETATM    4  N   UNL     1       4.366  26.496  57.096  1.00  0.00    -0.251 N 
HETATM    5  N   UNL     1       4.997  25.326  56.814  1.00  0.00    -0.153 NA
HETATM    6  C   UNL     1       5.939  25.657  55.974  1.00  0.00     0.162 A 
HETATM    7  H   UNL     1       3.582  26.546  57.736  1.00  0.00     0.191 HD
ENDROOT
BRANCH   1   8
HETATM    8  C   UNL     1       6.810  27.692  54.673  1.00  0.00     0.142 C 
BRANCH   8   9
HETATM    9  C   UNL     1       8.237  27.891  55.168  1.00  0.00     0.123 C 
BRANCH   9  10
HETATM   10  C   UNL     1       8.324  28.437  56.578  1.00  0.00     0.223 C 
HETATM   11  N   UNL     1       8.071  29.791  56.677  1.00  0.00    -0.327 N 
HETATM   12  H   UNL     1       7.387  30.162  56.026  1.00  0.00     0.169 HD
HETATM   13  O   UNL     1       8.619  27.692  57.510  1.00  0.00    -0.273 OA
BRANCH  11  14
HETATM   14  C   UNL     1       8.306  30.584  57.825  1.00  0.00     0.042 A 
HETATM   15  C   UNL     1       9.584  30.940  58.301  1.00  0.00    -0.035 A 
HETATM   16  C   UNL     1      10.874  30.590  57.610  1.00  0.00     0.050 C 
HETATM   17  C   UNL     1       9.681  31.715  59.475  1.00  0.00     0.010 A 
HETATM   18  C   UNL     1       8.544  32.177  60.133  1.00  0.00     0.020 A 
HETATM   19  C   UNL     1       7.291  31.875  59.619  1.00  0.00     0.013 A 
HETATM   20  C   UNL     1       7.169  31.094  58.469  1.00  0.00     0.049 A 
HETATM   21 BR   UNL     1       5.739  32.512  60.489  1.00  0.00    -0.051 Br
ENDBRANCH  11  14
ENDBRANCH   9  10
ENDBRANCH   8   9
ENDBRANCH   1   8
BRANCH   6  22
HETATM   22  C   UNL     1       6.857  24.656  55.405  1.00  0.00     0.012 A 
HETATM   23  C   UNL     1       6.549  24.119  54.152  1.00  0.00     0.018 A 
HETATM   24  C   UNL     1       7.382  23.153  53.585  1.00  0.00     0.037 A 
HETATM   25  C   UNL     1       8.522  22.710  54.260  1.00  0.00     0.068 A 
HETATM   26  C   UNL     1       8.812  23.228  55.523  1.00  0.00     0.037 A 
HETATM   27  C   UNL     1       7.974  24.190  56.103  1.00  0.00     0.018 A 
BRANCH  25  28
HETATM   28  O   UNL     1       9.249  21.765  53.591  1.00  0.00    -0.356 OA
HETATM   29  C   UNL     1       8.561  20.588  53.184  1.00  0.00     0.210 C 
ENDBRANCH  25  28
ENDBRANCH   6  22
TORSDOF 6
ENDMDL
MODEL 3
REMARK VINA RESULT:      -9.1      1.254      1.683
REMARK  6 active torsions:
REMARK  status: ('A' for Active; 'I' for Inactive)
REMARK    1  A    between atoms: C_3  and  N_4 
REMARK       I    between atoms: N_4  and  C_5 
REMARK    2  A    between atoms: C_5  and  C_6 
REMARK    3  A    between atoms: C_6  and  C_7 
REMARK    4  A    between atoms: C_7  and  N_8 
REMARK    5  A    between atoms: C_13  and  C_14 
REMARK    6  A    between atoms: C_17  and  O_18 
ROOT
HETATM    1  N   UNL     1       6.145  26.612  53.975  1.00  0.00    -0.305 N 
HETATM    2  C   UNL     1       5.021  27.323  53.624  1.00  0.00     0.196 A 
HETATM    3  S   UNL     1       4.733  28.953  53.665  1.00  0.00    -0.039 SA
HETATM    4  N   UNL     1       4.100  26.399  53.166  1.00  0.00    -0.251 N 
HETATM    5  N   UNL     1       4.615  25.143  53.228  1.00  0.00    -0.153 NA
HETATM    6  C   UNL     1       5.810  25.304  53.724  1.00  0.00     0.162 A 
HETATM    7  H   UNL     1       3.166  26.583  52.820  1.00  0.00     0.191 HD
ENDROOT
BRANCH   1   8
HETATM    8  C   UNL     1       7.426  27.168  54.440  1.00  0.00     0.142 C 
BRANCH   8   9
HETATM    9  C   UNL     1       7.681  26.909  55.919  1.00  0.00     0.123 C 
BRANCH   9  10
HETATM   10  C   UNL     1       7.022  27.915  56.838  1.00  0.00     0.223 C 
HETATM   11  N   UNL     1       7.731  29.090  56.992  1.00  0.00    -0.327 N 
HETATM   12  H   UNL     1       8.250  29.403  56.178  1.00  0.00     0.169 HD
HETATM   13  O   UNL     1       5.958  27.642  57.387  1.00  0.00    -0.273 OA
BRANCH  11  14
HETATM   14  C   UNL     1       7.459  30.088  57.957  1.00  0.00     0.042 A 
HETATM   15  C   UNL     1       6.447  31.061  57.834  1.00  0.00    -0.035 A 
HETATM   16  C   UNL     1       5.466  31.126  56.695  1.00  0.00     0.050 C 
HETATM   17  C   UNL     1       6.297  32.019  58.859  1.00  0.00     0.010 A 
HETATM   18  C   UNL     1       7.087  31.982  60.005  1.00  0.00     0.020 A 
HETATM   19  C   UNL     1       8.037  30.980  60.144  1.00  0.00     0.013 A 
HETATM   20  C   UNL     1       8.217  30.033  59.137  1.00  0.00     0.049 A 
HETATM   21 BR   UNL     1       9.103  30.906  61.703  1.00  0.00    -0.051 Br
ENDBRANCH  11  14
ENDBRANCH   9  10
ENDBRANCH   8   9
ENDBRANCH   1   8
BRANCH   6  22
HETATM   22  C   UNL     1       6.719  24.166  53.943  1.00  0.00     0.012 A 
HETATM   23  C   UNL     1       6.791  23.621  55.228  1.00  0.00     0.018 A 
HETATM   24  C   UNL     1       7.655  22.554  55.484  1.00  0.00     0.037 A 
HETATM   25  C   UNL     1       8.456  22.027  54.469  1.00  0.00     0.068 A 
HETATM   26  C   UNL     1       8.403  22.592  53.194  1.00  0.00     0.037 A 
HETATM   27  C   UNL     1       7.546  23.669  52.933  1.00  0.00     0.018 A 
BRANCH  25  28
HETATM   28  O   UNL     1       9.253  20.985  54.855  1.00  0.00    -0.356 OA
HETATM   29  C   UNL     1       9.108  20.521  56.192  1.00  0.00     0.210 C 
ENDBRANCH  25  28
ENDBRANCH   6  22
TORSDOF 6
ENDMDL
MODEL 4
REMARK VINA RESULT:      -8.6      2.795      4.003
REMARK  6 active torsions:
REMARK  status: ('A' for Active; 'I' for Inactive)
REMARK    1  A    between atoms: C_3  and  N_4 
REMARK       I    between atoms: N_4  and  C_5 
REMARK    2  A    between atoms: C_5  and  C_6 
REMARK    3  A    between atoms: C_6  and  C_7 
REMARK    4  A    between atoms: C_7  and  N_8 
REMARK    5  A    between atoms: C_13  and  C_14 
REMARK    6  A    between atoms: C_17  and  O_18 
ROOT
HETATM    1  N   UNL     1       4.738  27.642  50.677  1.00  0.00    -0.305 N 
HETATM    2  C   UNL     1       3.972  27.794  49.545  1.00  0.00     0.196 A 
HETATM    3  S   UNL     1       3.396  29.168  48.824  1.00  0.00    -0.039 SA
HETATM    4  N   UNL     1       3.762  26.524  49.041  1.00  0.00    -0.251 N 
HETATM    5  N   UNL     1       4.367  25.594  49.825  1.00  0.00    -0.153 NA
HETATM    6  C   UNL     1       4.915  26.284  50.786  1.00  0.00     0.162 A 
HETATM    7  H   UNL     1       3.243  26.273  48.207  1.00  0.00     0.191 HD
ENDROOT
BRANCH   1   8
HETATM    8  C   UNL     1       5.290  28.717  51.516  1.00  0.00     0.142 C 
BRANCH   8   9
HETATM    9  C   UNL     1       4.348  29.134  52.639  1.00  0.00     0.123 C 
BRANCH   9  10
HETATM   10  C   UNL     1       5.044  29.376  53.962  1.00  0.00     0.223 C 
HETATM   11  N   UNL     1       6.165  28.596  54.162  1.00  0.00    -0.327 N 
HETATM   12  H   UNL     1       6.706  28.376  53.332  1.00  0.00     0.169 HD
HETATM   13  O   UNL     1       4.589  30.196  54.756  1.00  0.00    -0.273 OA
BRANCH  11  14
HETATM   14  C   UNL     1       6.858  28.461  55.388  1.00  0.00     0.042 A 
HETATM   15  C   UNL     1       6.363  27.771  56.513  1.00  0.00    -0.035 A 
HETATM   16  C   UNL     1       5.061  27.016  56.539  1.00  0.00     0.050 C 
HETATM   17  C   UNL     1       7.144  27.733  57.687  1.00  0.00     0.010 A 
HETATM   18  C   UNL     1       8.410  28.313  57.732  1.00  0.00     0.020 A 
HETATM   19  C   UNL     1       8.914  28.934  56.598  1.00  0.00     0.013 A 
HETATM   20  C   UNL     1       8.153  29.000  55.431  1.00  0.00     0.049 A 
HETATM   21 BR   UNL     1      10.639  29.707  56.639  1.00  0.00    -0.051 Br
ENDBRANCH  11  14
ENDBRANCH   9  10
ENDBRANCH   8   9
ENDBRANCH   1   8
BRANCH   6  22
HETATM   22  C   UNL     1       5.692  25.639  51.859  1.00  0.00     0.012 A 
HETATM   23  C   UNL     1       5.026  25.308  53.044  1.00  0.00     0.018 A 
HETATM   24  C   UNL     1       5.729  24.714  54.093  1.00  0.00     0.037 A 
HETATM   25  C   UNL     1       7.096  24.450  53.977  1.00  0.00     0.068 A 
HETATM   26  C   UNL     1       7.763  24.807  52.804  1.00  0.00     0.037 A 
HETATM   27  C   UNL     1       7.066  25.414  51.750  1.00  0.00     0.018 A 
BRANCH  25  28
HETATM   28  O   UNL     1       7.659  23.865  55.077  1.00  0.00    -0.356 OA
HETATM   29  C   UNL     1       7.650  22.444  55.130  1.00  0.00     0.210 C 
ENDBRANCH  25  28
ENDBRANCH   6  22
TORSDOF 6
ENDMDL
MODEL 5
REMARK VINA RESULT:      -8.5      4.588      7.213
REMARK  6 active torsions:
REMARK  status: ('A' for Active; 'I' for Inactive)
REMARK    1  A    between atoms: C_3  and  N_4 
REMARK       I    between atoms: N_4  and  C_5 
REMARK    2  A    between atoms: C_5  and  C_6 
REMARK    3  A    between atoms: C_6  and  C_7 
REMARK    4  A    between atoms: C_7  and  N_8 
REMARK    5  A    between atoms: C_13  and  C_14 
REMARK    6  A    between atoms: C_17  and  O_18 
ROOT
HETATM    1  N   UNL     1       6.579  27.044  55.870  1.00  0.00    -0.305 N 
HETATM    2  C   UNL     1       6.839  27.883  56.928  1.00  0.00     0.196 A 
HETATM    3  S   UNL     1       6.120  29.310  57.362  1.00  0.00    -0.039 SA
HETATM    4  N   UNL     1       7.859  27.294  57.653  1.00  0.00    -0.251 N 
HETATM    5  N   UNL     1       8.238  26.124  57.077  1.00  0.00    -0.153 NA
HETATM    6  C   UNL     1       7.479  26.017  56.022  1.00  0.00     0.162 A 
HETATM    7  H   UNL     1       8.290  27.642  58.502  1.00  0.00     0.191 HD
ENDROOT
BRANCH   1   8
HETATM    8  C   UNL     1       5.517  27.203  54.864  1.00  0.00     0.142 C 
BRANCH   8   9
HETATM    9  C   UNL     1       5.966  28.008  53.651  1.00  0.00     0.123 C 
BRANCH   9  10
HETATM   10  C   UNL     1       5.035  27.893  52.462  1.00  0.00     0.223 C 
HETATM   11  N   UNL     1       5.676  27.633  51.267  1.00  0.00    -0.327 N 
HETATM   12  H   UNL     1       6.505  27.052  51.326  1.00  0.00     0.169 HD
HETATM   13  O   UNL     1       3.826  28.048  52.610  1.00  0.00    -0.273 OA
BRANCH  11  14
HETATM   14  C   UNL     1       5.075  27.704  49.987  1.00  0.00     0.042 A 
HETATM   15  C   UNL     1       5.123  28.832  49.144  1.00  0.00    -0.035 A 
HETATM   16  C   UNL     1       5.885  30.092  49.456  1.00  0.00     0.050 C 
HETATM   17  C   UNL     1       4.459  28.781  47.901  1.00  0.00     0.010 A 
HETATM   18  C   UNL     1       3.811  27.624  47.474  1.00  0.00     0.020 A 
HETATM   19  C   UNL     1       3.826  26.498  48.285  1.00  0.00     0.013 A 
HETATM   20  C   UNL     1       4.460  26.529  49.526  1.00  0.00     0.049 A 
HETATM   21 BR   UNL     1       2.968  24.915  47.709  1.00  0.00    -0.051 Br
ENDBRANCH  11  14
ENDBRANCH   9  10
ENDBRANCH   8   9
ENDBRANCH   1   8
BRANCH   6  22
HETATM   22  C   UNL     1       7.568  24.861  55.115  1.00  0.00     0.012 A 
HETATM   23  C   UNL     1       7.421  23.583  55.663  1.00  0.00     0.018 A 
HETATM   24  C   UNL     1       7.519  22.458  54.841  1.00  0.00     0.037 A 
HETATM   25  C   UNL     1       7.769  22.594  53.474  1.00  0.00     0.068 A 
HETATM   26  C   UNL     1       7.943  23.870  52.935  1.00  0.00     0.037 A 
HETATM   27  C   UNL     1       7.857  25.002  53.756  1.00  0.00     0.018 A 
BRANCH  25  28
HETATM   28  O   UNL     1       7.838  21.414  52.788  1.00  0.00    -0.356 OA
HETATM   29  C   UNL     1       8.655  20.390  53.342  1.00  0.00     0.210 C 
ENDBRANCH  25  28
ENDBRANCH   6  22
TORSDOF 6
ENDMDL
MODEL 6
REMARK VINA RESULT:      -8.5      3.548      8.312
REMARK  6 active torsions:
REMARK  status: ('A' for Active; 'I' for Inactive)
REMARK    1  A    between atoms: C_3  and  N_4 
REMARK       I    between atoms: N_4  and  C_5 
REMARK    2  A    between atoms: C_5  and  C_6 
REMARK    3  A    between atoms: C_6  and  C_7 
REMARK    4  A    between atoms: C_7  and  N_8 
REMARK    5  A    between atoms: C_13  and  C_14 
REMARK    6  A    between atoms: C_17  and  O_18 
ROOT
HETATM    1  N   UNL     1       5.300  29.505  56.346  1.00  0.00    -0.305 N 
HETATM    2  C   UNL     1       4.784  29.581  55.073  1.00  0.00     0.196 A 
HETATM    3  S   UNL     1       4.272  28.381  54.055  1.00  0.00    -0.039 SA
HETATM    4  N   UNL     1       4.727  30.926  54.754  1.00  0.00    -0.251 N 
HETATM    5  N   UNL     1       5.193  31.680  55.784  1.00  0.00    -0.153 NA
HETATM    6  C   UNL     1       5.538  30.812  56.694  1.00  0.00     0.162 A 
HETATM    7  H   UNL     1       4.388  31.338  53.893  1.00  0.00     0.191 HD
ENDROOT
BRANCH   1   8
HETATM    8  C   UNL     1       5.473  28.286  57.151  1.00  0.00     0.142 C 
BRANCH   8   9
HETATM    9  C   UNL     1       6.765  27.545  56.833  1.00  0.00     0.123 C 
BRANCH   9  10
HETATM   10  C   UNL     1       6.550  26.162  56.253  1.00  0.00     0.223 C 
HETATM   11  N   UNL     1       7.702  25.560  55.786  1.00  0.00    -0.327 N 
HETATM   12  H   UNL     1       8.551  25.774  56.297  1.00  0.00     0.169 HD
HETATM   13  O   UNL     1       5.420  25.682  56.210  1.00  0.00    -0.273 OA
BRANCH  11  14
HETATM   14  C   UNL     1       7.747  24.383  55.002  1.00  0.00     0.042 A 
HETATM   15  C   UNL     1       7.754  24.363  53.593  1.00  0.00    -0.035 A 
HETATM   16  C   UNL     1       7.790  25.593  52.727  1.00  0.00     0.050 C 
HETATM   17  C   UNL     1       7.774  23.118  52.930  1.00  0.00     0.010 A 
HETATM   18  C   UNL     1       7.845  21.922  53.641  1.00  0.00     0.020 A 
HETATM   19  C   UNL     1       7.904  21.957  55.026  1.00  0.00     0.013 A 
HETATM   20  C   UNL     1       7.866  23.174  55.705  1.00  0.00     0.049 A 
HETATM   21 BR   UNL     1       8.021  20.342  56.003  1.00  0.00    -0.051 Br
ENDBRANCH  11  14
ENDBRANCH   9  10
ENDBRANCH   8   9
ENDBRANCH   1   8
BRANCH   6  22
HETATM   22  C   UNL     1       6.089  31.229  57.995  1.00  0.00     0.012 A 
HETATM   23  C   UNL     1       5.270  31.978  58.845  1.00  0.00     0.018 A 
HETATM   24  C   UNL     1       5.761  32.412  60.079  1.00  0.00     0.037 A 
HETATM   25  C   UNL     1       7.066  32.110  60.472  1.00  0.00     0.068 A 
HETATM   26  C   UNL     1       7.890  31.386  59.609  1.00  0.00     0.037 A 
HETATM   27  C   UNL     1       7.408  30.957  58.365  1.00  0.00     0.018 A 
BRANCH  25  28
HETATM   28  O   UNL     1       7.416  32.593  61.703  1.00  0.00    -0.356 OA
HETATM   29  C   UNL     1       8.419  31.880  62.416  1.00  0.00     0.210 C 
ENDBRANCH  25  28
ENDBRANCH   6  22
TORSDOF 6
ENDMDL
MODEL 7
REMARK VINA RESULT:      -8.5      4.896      7.662
REMARK  6 active torsions:
REMARK  status: ('A' for Active; 'I' for Inactive)
REMARK    1  A    between atoms: C_3  and  N_4 
REMARK       I    between atoms: N_4  and  C_5 
REMARK    2  A    between atoms: C_5  and  C_6 
REMARK    3  A    between atoms: C_6  and  C_7 
REMARK    4  A    between atoms: C_7  and  N_8 
REMARK    5  A    between atoms: C_13  and  C_14 
REMARK    6  A    between atoms: C_17  and  O_18 
ROOT
HETATM    1  N   UNL     1       4.040  29.171  53.066  1.00  0.00    -0.305 N 
HETATM    2  C   UNL     1       4.236  30.337  53.769  1.00  0.00     0.196 A 
HETATM    3  S   UNL     1       4.191  30.620  55.400  1.00  0.00    -0.039 SA
HETATM    4  N   UNL     1       4.530  31.313  52.835  1.00  0.00    -0.251 N 
HETATM    5  N   UNL     1       4.516  30.791  51.580  1.00  0.00    -0.153 NA
HETATM    6  C   UNL     1       4.207  29.536  51.752  1.00  0.00     0.162 A 
HETATM    7  H   UNL     1       4.738  32.289  53.011  1.00  0.00     0.191 HD
ENDROOT
BRANCH   1   8
HETATM    8  C   UNL     1       3.784  27.837  53.631  1.00  0.00     0.142 C 
BRANCH   8   9
HETATM    9  C   UNL     1       4.985  27.268  54.374  1.00  0.00     0.123 C 
BRANCH   9  10
HETATM   10  C   UNL     1       5.295  25.828  54.024  1.00  0.00     0.223 C 
HETATM   11  N   UNL     1       6.481  25.359  54.555  1.00  0.00    -0.327 N 
HETATM   12  H   UNL     1       6.736  25.731  55.464  1.00  0.00     0.169 HD
HETATM   13  O   UNL     1       4.528  25.190  53.307  1.00  0.00    -0.273 OA
BRANCH  11  14
HETATM   14  C   UNL     1       7.109  24.143  54.200  1.00  0.00     0.042 A 
HETATM   15  C   UNL     1       7.685  23.878  52.942  1.00  0.00    -0.035 A 
HETATM   16  C   UNL     1       7.779  24.883  51.825  1.00  0.00     0.050 C 
HETATM   17  C   UNL     1       8.259  22.611  52.708  1.00  0.00     0.010 A 
HETATM   18  C   UNL     1       8.315  21.647  53.711  1.00  0.00     0.020 A 
HETATM   19  C   UNL     1       7.803  21.941  54.966  1.00  0.00     0.013 A 
HETATM   20  C   UNL     1       7.214  23.180  55.217  1.00  0.00     0.049 A 
HETATM   21 BR   UNL     1       7.891  20.649  56.343  1.00  0.00    -0.051 Br
ENDBRANCH  11  14
ENDBRANCH   9  10
ENDBRANCH   8   9
ENDBRANCH   1   8
BRANCH   6  22
HETATM   22  C   UNL     1       4.099  28.601  50.619  1.00  0.00     0.012 A 
HETATM   23  C   UNL     1       4.942  27.485  50.606  1.00  0.00     0.018 A 
HETATM   24  C   UNL     1       4.886  26.584  49.541  1.00  0.00     0.037 A 
HETATM   25  C   UNL     1       4.001  26.788  48.481  1.00  0.00     0.068 A 
HETATM   26  C   UNL     1       3.181  27.918  48.483  1.00  0.00     0.037 A 
HETATM   27  C   UNL     1       3.239  28.831  49.544  1.00  0.00     0.018 A 
BRANCH  25  28
HETATM   28  O   UNL     1       4.048  25.830  47.506  1.00  0.00    -0.356 OA
HETATM   29  C   UNL     1       2.954  24.924  47.435  1.00  0.00     0.210 C 
ENDBRANCH  25  28
ENDBRANCH   6  22
TORSDOF 6
ENDMDL
MODEL 8
REMARK VINA RESULT:      -8.5      3.457      6.637
REMARK  6 active torsions:
REMARK  status: ('A' for Active; 'I' for Inactive)
REMARK    1  A    between atoms: C_3  and  N_4 
REMARK       I    between atoms: N_4  and  C_5 
REMARK    2  A    between atoms: C_5  and  C_6 
REMARK    3  A    between atoms: C_6  and  C_7 
REMARK    4  A    between atoms: C_7  and  N_8 
REMARK    5  A    between atoms: C_13  and  C_14 
REMARK    6  A    between atoms: C_17  and  O_18 
ROOT
HETATM    1  N   UNL     1       7.604  22.847  54.775  1.00  0.00    -0.305 N 
HETATM    2  C   UNL     1       8.239  21.633  54.886  1.00  0.00     0.196 A 
HETATM    3  S   UNL     1       8.504  20.459  53.749  1.00  0.00    -0.039 SA
HETATM    4  N   UNL     1       8.687  21.542  56.191  1.00  0.00    -0.251 N 
HETATM    5  N   UNL     1       8.346  22.657  56.890  1.00  0.00    -0.153 NA
HETATM    6  C   UNL     1       7.695  23.394  56.032  1.00  0.00     0.162 A 
HETATM    7  H   UNL     1       9.204  20.779  56.612  1.00  0.00     0.191 HD
ENDROOT
BRANCH   1   8
HETATM    8  C   UNL     1       7.033  23.431  53.552  1.00  0.00     0.142 C 
BRANCH   8   9
HETATM    9  C   UNL     1       7.904  24.531  52.958  1.00  0.00     0.123 C 
BRANCH   9  10
HETATM   10  C   UNL     1       7.286  25.912  53.042  1.00  0.00     0.223 C 
HETATM   11  N   UNL     1       5.948  25.953  52.702  1.00  0.00    -0.327 N 
HETATM   12  H   UNL     1       5.403  25.133  52.948  1.00  0.00     0.169 HD
HETATM   13  O   UNL     1       7.974  26.875  53.369  1.00  0.00    -0.273 OA
BRANCH  11  14
HETATM   14  C   UNL     1       5.199  27.133  52.479  1.00  0.00     0.042 A 
HETATM   15  C   UNL     1       4.686  27.528  51.227  1.00  0.00    -0.035 A 
HETATM   16  C   UNL     1       4.800  26.711  49.969  1.00  0.00     0.050 C 
HETATM   17  C   UNL     1       3.977  28.743  51.135  1.00  0.00     0.010 A 
HETATM   18  C   UNL     1       3.728  29.523  52.262  1.00  0.00     0.020 A 
HETATM   19  C   UNL     1       4.182  29.091  53.501  1.00  0.00     0.013 A 
HETATM   20  C   UNL     1       4.902  27.903  53.615  1.00  0.00     0.049 A 
HETATM   21 BR   UNL     1       3.834  30.129  55.042  1.00  0.00    -0.051 Br
ENDBRANCH  11  14
ENDBRANCH   9  10
ENDBRANCH   8   9
ENDBRANCH   1   8
BRANCH   6  22
HETATM   22  C   UNL     1       7.156  24.715  56.396  1.00  0.00     0.012 A 
HETATM   23  C   UNL     1       8.063  25.722  56.741  1.00  0.00     0.018 A 
HETATM   24  C   UNL     1       7.593  26.983  57.112  1.00  0.00     0.037 A 
HETATM   25  C   UNL     1       6.223  27.251  57.149  1.00  0.00     0.068 A 
HETATM   26  C   UNL     1       5.319  26.235  56.832  1.00  0.00     0.037 A 
HETATM   27  C   UNL     1       5.784  24.964  56.469  1.00  0.00     0.018 A 
BRANCH  25  28
HETATM   28  O   UNL     1       5.901  28.525  57.527  1.00  0.00    -0.356 OA
HETATM   29  C   UNL     1       6.979  29.412  57.796  1.00  0.00     0.210 C 
ENDBRANCH  25  28
ENDBRANCH   6  22
TORSDOF 6
ENDMDL
MODEL 9
REMARK VINA RESULT:      -8.4      4.998      8.063
REMARK  6 active torsions:
REMARK  status: ('A' for Active; 'I' for Inactive)
REMARK    1  A    between atoms: C_3  and  N_4 
REMARK       I    between atoms: N_4  and  C_5 
REMARK    2  A    between atoms: C_5  and  C_6 
REMARK    3  A    between atoms: C_6  and  C_7 
REMARK    4  A    between atoms: C_7  and  N_8 
REMARK    5  A    between atoms: C_13  and  C_14 
REMARK    6  A    between atoms: C_17  and  O_18 
ROOT
HETATM    1  N   UNL     1       5.757  27.093  53.166  1.00  0.00    -0.305 N 
HETATM    2  C   UNL     1       5.671  28.443  53.414  1.00  0.00     0.196 A 
HETATM    3  S   UNL     1       4.689  29.592  52.739  1.00  0.00    -0.039 SA
HETATM    4  N   UNL     1       6.585  28.716  54.415  1.00  0.00    -0.251 N 
HETATM    5  N   UNL     1       7.234  27.582  54.789  1.00  0.00    -0.153 NA
HETATM    6  C   UNL     1       6.736  26.652  54.023  1.00  0.00     0.162 A 
HETATM    7  H   UNL     1       6.776  29.613  54.845  1.00  0.00     0.191 HD
ENDROOT
BRANCH   1   8
HETATM    8  C   UNL     1       4.920  26.316  52.238  1.00  0.00     0.142 C 
BRANCH   8   9
HETATM    9  C   UNL     1       5.477  26.287  50.821  1.00  0.00     0.123 C 
BRANCH   9  10
HETATM   10  C   UNL     1       4.814  27.275  49.883  1.00  0.00     0.223 C 
HETATM   11  N   UNL     1       3.441  27.150  49.809  1.00  0.00    -0.327 N 
HETATM   12  H   UNL     1       2.976  26.865  50.665  1.00  0.00     0.169 HD
HETATM   13  O   UNL     1       5.497  28.081  49.255  1.00  0.00    -0.273 OA
BRANCH  11  14
HETATM   14  C   UNL     1       2.614  27.786  48.854  1.00  0.00     0.042 A 
HETATM   15  C   UNL     1       2.281  27.241  47.598  1.00  0.00    -0.035 A 
HETATM   16  C   UNL     1       2.698  25.872  47.130  1.00  0.00     0.050 C 
HETATM   17  C   UNL     1       1.466  27.991  46.724  1.00  0.00     0.010 A 
HETATM   18  C   UNL     1       0.944  29.225  47.104  1.00  0.00     0.020 A 
HETATM   19  C   UNL     1       1.225  29.722  48.368  1.00  0.00     0.013 A 
HETATM   20  C   UNL     1       2.044  29.008  49.242  1.00  0.00     0.049 A 
HETATM   21 BR   UNL     1       0.506  31.386  48.904  1.00  0.00    -0.051 Br
ENDBRANCH  11  14
ENDBRANCH   9  10
ENDBRANCH   8   9
ENDBRANCH   1   8
BRANCH   6  22
HETATM   22  C   UNL     1       7.172  25.249  54.121  1.00  0.00     0.012 A 
HETATM   23  C   UNL     1       7.823  24.684  53.019  1.00  0.00     0.018 A 
HETATM   24  C   UNL     1       8.235  23.351  53.063  1.00  0.00     0.037 A 
HETATM   25  C   UNL     1       7.998  22.569  54.196  1.00  0.00     0.068 A 
HETATM   26  C   UNL     1       7.323  23.127  55.283  1.00  0.00     0.037 A 
HETATM   27  C   UNL     1       6.898  24.462  55.241  1.00  0.00     0.018 A 
BRANCH  25  28
HETATM   28  O   UNL     1       8.455  21.283  54.106  1.00  0.00    -0.356 OA
HETATM   29  C   UNL     1       8.026  20.522  52.984  1.00  0.00     0.210 C 
ENDBRANCH  25  28
ENDBRANCH   6  22
TORSDOF 6
ENDMDL
MODEL 10
REMARK VINA RESULT:      -8.4      4.278      7.439
REMARK  6 active torsions:
REMARK  status: ('A' for Active; 'I' for Inactive)
REMARK    1  A    between atoms: C_3  and  N_4 
REMARK       I    between atoms: N_4  and  C_5 
REMARK    2  A    between atoms: C_5  and  C_6 
REMARK    3  A    between atoms: C_6  and  C_7 
REMARK    4  A    between atoms: C_7  and  N_8 
REMARK    5  A    between atoms: C_13  and  C_14 
REMARK    6  A    between atoms: C_17  and  O_18 
ROOT
HETATM    1  N   UNL     1       7.534  22.894  54.964  1.00  0.00    -0.305 N 
HETATM    2  C   UNL     1       8.164  21.683  55.131  1.00  0.00     0.196 A 
HETATM    3  S   UNL     1       8.441  20.465  54.045  1.00  0.00    -0.039 SA
HETATM    4  N   UNL     1       8.592  21.643  56.445  1.00  0.00    -0.251 N 
HETATM    5  N   UNL     1       8.244  22.785  57.095  1.00  0.00    -0.153 NA
HETATM    6  C   UNL     1       7.608  23.489  56.199  1.00  0.00     0.162 A 
HETATM    7  H   UNL     1       9.101  20.896  56.903  1.00  0.00     0.191 HD
ENDROOT
BRANCH   1   8
HETATM    8  C   UNL     1       6.982  23.431  53.710  1.00  0.00     0.142 C 
BRANCH   8   9
HETATM    9  C   UNL     1       7.882  24.477  53.066  1.00  0.00     0.123 C 
BRANCH   9  10
HETATM   10  C   UNL     1       7.184  25.790  52.777  1.00  0.00     0.223 C 
HETATM   11  N   UNL     1       5.952  25.652  52.171  1.00  0.00    -0.327 N 
HETATM   12  H   UNL     1       5.414  24.836  52.441  1.00  0.00     0.169 HD
HETATM   13  O   UNL     1       7.730  26.853  53.063  1.00  0.00    -0.273 OA
BRANCH  11  14
HETATM   14  C   UNL     1       5.203  26.706  51.595  1.00  0.00     0.042 A 
HETATM   15  C   UNL     1       4.476  27.663  52.331  1.00  0.00    -0.035 A 
HETATM   16  C   UNL     1       4.457  27.743  53.833  1.00  0.00     0.050 C 
HETATM   17  C   UNL     1       3.748  28.649  51.632  1.00  0.00     0.010 A 
HETATM   18  C   UNL     1       3.784  28.725  50.242  1.00  0.00     0.020 A 
HETATM   19  C   UNL     1       4.555  27.817  49.531  1.00  0.00     0.013 A 
HETATM   20  C   UNL     1       5.269  26.821  50.198  1.00  0.00     0.049 A 
HETATM   21 BR   UNL     1       4.629  27.921  47.645  1.00  0.00    -0.051 Br
ENDBRANCH  11  14
ENDBRANCH   9  10
ENDBRANCH   8   9
ENDBRANCH   1   8
BRANCH   6  22
HETATM   22  C   UNL     1       7.067  24.825  56.503  1.00  0.00     0.012 A 
HETATM   23  C   UNL     1       7.973  25.875  56.681  1.00  0.00     0.018 A 
HETATM   24  C   UNL     1       7.503  27.153  56.990  1.00  0.00     0.037 A 
HETATM   25  C   UNL     1       6.135  27.395  57.131  1.00  0.00     0.068 A 
HETATM   26  C   UNL     1       5.236  26.338  56.981  1.00  0.00     0.037 A 
HETATM   27  C   UNL     1       5.701  25.051  56.681  1.00  0.00     0.018 A 
BRANCH  25  28
HETATM   28  O   UNL     1       5.814  28.689  57.432  1.00  0.00    -0.356 OA
HETATM   29  C   UNL     1       6.886  29.563  57.759  1.00  0.00     0.210 C 
ENDBRANCH  25  28
ENDBRANCH   6  22
TORSDOF 6
ENDMDL
