MODEL 1
REMARK VINA RESULT:      -8.6      0.000      0.000
REMARK  3 active torsions:
REMARK  status: ('A' for Active; 'I' for Inactive)
REMARK    1  A    between atoms: C_9  and  C_10 
REMARK    2  A    between atoms: C_16  and  C_17 
REMARK       I    between atoms: C_17  and  N_18 
REMARK    3  A    between atoms: N_18  and  C_19 
ROOT
HETATM    1  C   UNL     1       8.695  27.378  57.167  1.00  0.00     0.070 C 
HETATM    2  C   UNL     1       7.443  27.693  56.390  1.00  0.00     0.037 A 
HETATM    3  N   UNL     1       7.101  29.040  56.316  1.00  0.00    -0.191 N 
HETATM    4  C   UNL     1       5.932  29.472  55.801  1.00  0.00     0.735 A 
HETATM    5  N   UNL     1       5.078  28.571  55.229  1.00  0.00    -0.091 N 
HETATM    6  N   UNL     1       3.919  29.172  54.908  1.00  0.00     0.012 NA
HETATM    7  N   UNL     1       4.114  30.453  55.207  1.00  0.00     0.033 NA
HETATM    8  N   UNL     1       5.362  30.653  55.769  1.00  0.00     0.030 NA
HETATM    9  C   UNL     1       5.322  27.138  55.139  1.00  0.00     0.216 A 
HETATM   10  C   UNL     1       6.630  26.764  55.827  1.00  0.00     0.063 A 
HETATM   11  H   UNL     1       7.700  29.707  56.797  1.00  0.00     0.184 HD
ENDROOT
BRANCH  10  12
HETATM   12  C   UNL     1       6.872  25.300  55.873  1.00  0.00     0.256 C 
HETATM   13  N   UNL     1       7.544  24.825  54.770  1.00  0.00    -0.323 N 
HETATM   14  H   UNL     1       7.737  25.494  54.035  1.00  0.00     0.169 HD
HETATM   15  O   UNL     1       6.435  24.666  56.824  1.00  0.00    -0.267 OA
BRANCH  13  16
HETATM   16  C   UNL     1       7.980  23.505  54.534  1.00  0.00     0.035 A 
HETATM   17  C   UNL     1       8.830  22.801  55.388  1.00  0.00     0.029 A 
HETATM   18  C   UNL     1       9.229  21.497  55.072  1.00  0.00     0.002 A 
HETATM   19  C   UNL     1       8.790  20.892  53.897  1.00  0.00     0.000 A 
HETATM   20  C   UNL     1       7.943  21.587  53.039  1.00  0.00     0.002 A 
HETATM   21  C   UNL     1       7.536  22.886  53.358  1.00  0.00     0.029 A 
ENDBRANCH  13  16
ENDBRANCH  10  12
BRANCH   9  22
HETATM   22  C   UNL     1       5.290  26.725  53.672  1.00  0.00     0.064 A 
HETATM   23  N   UNL     1       4.828  25.481  53.364  1.00  0.00    -0.263 NA
HETATM   24  C   UNL     1       4.836  25.120  52.061  1.00  0.00     0.117 A 
HETATM   25  C   UNL     1       5.280  25.937  51.036  1.00  0.00     0.019 A 
HETATM   26  C   UNL     1       5.748  27.203  51.361  1.00  0.00     0.003 A 
HETATM   27  C   UNL     1       5.756  27.606  52.694  1.00  0.00     0.030 A 
ENDBRANCH   9  22
TORSDOF 3
ENDMDL
MODEL 2
REMARK VINA RESULT:      -8.4      3.325      5.341
REMARK  3 active torsions:
REMARK  status: ('A' for Active; 'I' for Inactive)
REMARK    1  A    between atoms: C_9  and  C_10 
REMARK    2  A    between atoms: C_16  and  C_17 
REMARK       I    between atoms: C_17  and  N_18 
REMARK    3  A    between atoms: N_18  and  C_19 
ROOT
HETATM    1  C   UNL     1      11.024  29.837  56.812  1.00  0.00     0.070 C 
HETATM    2  C   UNL     1       9.825  30.271  57.615  1.00  0.00     0.037 A 
HETATM    3  N   UNL     1      10.030  31.345  58.476  1.00  0.00    -0.191 N 
HETATM    4  C   UNL     1       9.111  31.748  59.377  1.00  0.00     0.735 A 
HETATM    5  N   UNL     1       7.880  31.154  59.391  1.00  0.00    -0.091 N 
HETATM    6  N   UNL     1       7.167  31.594  60.442  1.00  0.00     0.012 NA
HETATM    7  N   UNL     1       7.941  32.516  61.007  1.00  0.00     0.033 NA
HETATM    8  N   UNL     1       9.156  32.619  60.356  1.00  0.00     0.030 NA
HETATM    9  C   UNL     1       7.467  30.080  58.499  1.00  0.00     0.216 A 
HETATM   10  C   UNL     1       8.615  29.658  57.587  1.00  0.00     0.063 A 
HETATM   11  H   UNL     1      10.964  31.746  58.516  1.00  0.00     0.184 HD
ENDROOT
BRANCH  10  12
HETATM   12  C   UNL     1       8.289  28.483  56.739  1.00  0.00     0.256 C 
HETATM   13  N   UNL     1       8.275  27.297  57.435  1.00  0.00    -0.323 N 
HETATM   14  H   UNL     1       8.546  27.341  58.410  1.00  0.00     0.169 HD
HETATM   15  O   UNL     1       8.111  28.661  55.540  1.00  0.00    -0.267 OA
BRANCH  13  16
HETATM   16  C   UNL     1       7.944  26.018  56.943  1.00  0.00     0.035 A 
HETATM   17  C   UNL     1       6.808  25.747  56.178  1.00  0.00     0.029 A 
HETATM   18  C   UNL     1       6.544  24.444  55.741  1.00  0.00     0.002 A 
HETATM   19  C   UNL     1       7.407  23.402  56.073  1.00  0.00     0.000 A 
HETATM   20  C   UNL     1       8.541  23.662  56.836  1.00  0.00     0.002 A 
HETATM   21  C   UNL     1       8.811  24.965  57.264  1.00  0.00     0.029 A 
ENDBRANCH  13  16
ENDBRANCH  10  12
BRANCH   9  22
HETATM   22  C   UNL     1       6.236  30.531  57.722  1.00  0.00     0.064 A 
HETATM   23  N   UNL     1       6.161  31.835  57.334  1.00  0.00    -0.263 NA
HETATM   24  C   UNL     1       5.047  32.223  56.673  1.00  0.00     0.117 A 
HETATM   25  C   UNL     1       3.995  31.378  56.369  1.00  0.00     0.019 A 
HETATM   26  C   UNL     1       4.083  30.051  56.768  1.00  0.00     0.003 A 
HETATM   27  C   UNL     1       5.213  29.618  57.453  1.00  0.00     0.030 A 
ENDBRANCH   9  22
TORSDOF 3
ENDMDL
MODEL 3
REMARK VINA RESULT:      -8.3      2.929      4.937
REMARK  3 active torsions:
REMARK  status: ('A' for Active; 'I' for Inactive)
REMARK    1  A    between atoms: C_9  and  C_10 
REMARK    2  A    between atoms: C_16  and  C_17 
REMARK       I    between atoms: C_17  and  N_18 
REMARK    3  A    between atoms: N_18  and  C_19 
ROOT
HETATM    1  C   UNL     1      10.979  29.321  56.655  1.00  0.00     0.070 C 
HETATM    2  C   UNL     1       9.782  29.845  57.407  1.00  0.00     0.037 A 
HETATM    3  N   UNL     1       9.969  31.052  58.075  1.00  0.00    -0.191 N 
HETATM    4  C   UNL     1       9.056  31.570  58.921  1.00  0.00     0.735 A 
HETATM    5  N   UNL     1       7.846  30.951  59.063  1.00  0.00    -0.091 N 
HETATM    6  N   UNL     1       7.140  31.536  60.046  1.00  0.00     0.012 NA
HETATM    7  N   UNL     1       7.894  32.560  60.433  1.00  0.00     0.033 NA
HETATM    8  N   UNL     1       9.092  32.591  59.744  1.00  0.00     0.030 NA
HETATM    9  C   UNL     1       7.451  29.733  58.369  1.00  0.00     0.216 A 
HETATM   10  C   UNL     1       8.593  29.201  57.510  1.00  0.00     0.063 A 
HETATM   11  H   UNL     1      10.890  31.481  58.026  1.00  0.00     0.184 HD
ENDROOT
BRANCH  10  12
HETATM   12  C   UNL     1       8.289  27.894  56.873  1.00  0.00     0.256 C 
HETATM   13  N   UNL     1       7.572  28.012  55.705  1.00  0.00    -0.323 N 
HETATM   14  H   UNL     1       7.278  28.946  55.447  1.00  0.00     0.169 HD
HETATM   15  O   UNL     1       8.651  26.871  57.440  1.00  0.00    -0.267 OA
BRANCH  13  16
HETATM   16  C   UNL     1       7.179  26.978  54.832  1.00  0.00     0.035 A 
HETATM   17  C   UNL     1       7.823  26.688  53.628  1.00  0.00     0.029 A 
HETATM   18  C   UNL     1       7.360  25.653  52.808  1.00  0.00     0.002 A 
HETATM   19  C   UNL     1       6.246  24.906  53.182  1.00  0.00     0.000 A 
HETATM   20  C   UNL     1       5.596  25.188  54.379  1.00  0.00     0.002 A 
HETATM   21  C   UNL     1       6.064  26.215  55.203  1.00  0.00     0.029 A 
ENDBRANCH  13  16
ENDBRANCH  10  12
BRANCH   9  22
HETATM   22  C   UNL     1       6.189  30.014  57.560  1.00  0.00     0.064 A 
HETATM   23  N   UNL     1       5.225  29.054  57.519  1.00  0.00    -0.263 NA
HETATM   24  C   UNL     1       4.127  29.308  56.771  1.00  0.00     0.117 A 
HETATM   25  C   UNL     1       3.931  30.478  56.059  1.00  0.00     0.019 A 
HETATM   26  C   UNL     1       4.920  31.451  56.110  1.00  0.00     0.003 A 
HETATM   27  C   UNL     1       6.066  31.220  56.867  1.00  0.00     0.030 A 
ENDBRANCH   9  22
TORSDOF 3
ENDMDL
MODEL 4
REMARK VINA RESULT:      -8.2      2.754      5.614
REMARK  3 active torsions:
REMARK  status: ('A' for Active; 'I' for Inactive)
REMARK    1  A    between atoms: C_9  and  C_10 
REMARK    2  A    between atoms: C_16  and  C_17 
REMARK       I    between atoms: C_17  and  N_18 
REMARK    3  A    between atoms: N_18  and  C_19 
ROOT
HETATM    1  C   UNL     1       3.385  30.179  53.558  1.00  0.00     0.070 C 
HETATM    2  C   UNL     1       4.593  29.402  54.016  1.00  0.00     0.037 A 
HETATM    3  N   UNL     1       4.835  29.414  55.386  1.00  0.00    -0.191 N 
HETATM    4  C   UNL     1       5.958  28.909  55.936  1.00  0.00     0.735 A 
HETATM    5  N   UNL     1       6.861  28.261  55.141  1.00  0.00    -0.091 N 
HETATM    6  N   UNL     1       7.965  27.960  55.847  1.00  0.00     0.012 NA
HETATM    7  N   UNL     1       7.685  28.351  57.086  1.00  0.00     0.033 NA
HETATM    8  N   UNL     1       6.440  28.947  57.156  1.00  0.00     0.030 NA
HETATM    9  C   UNL     1       6.719  28.076  53.704  1.00  0.00     0.216 A 
HETATM   10  C   UNL     1       5.457  28.762  53.189  1.00  0.00     0.063 A 
HETATM   11  H   UNL     1       4.202  29.951  55.973  1.00  0.00     0.184 HD
ENDROOT
BRANCH  10  12
HETATM   12  C   UNL     1       5.323  28.711  51.711  1.00  0.00     0.256 C 
HETATM   13  N   UNL     1       4.455  27.736  51.277  1.00  0.00    -0.323 N 
HETATM   14  H   UNL     1       4.062  27.131  51.988  1.00  0.00     0.169 HD
HETATM   15  O   UNL     1       5.999  29.478  51.038  1.00  0.00    -0.267 OA
BRANCH  13  16
HETATM   16  C   UNL     1       4.060  27.468  49.951  1.00  0.00     0.035 A 
HETATM   17  C   UNL     1       4.635  26.479  49.151  1.00  0.00     0.029 A 
HETATM   18  C   UNL     1       4.195  26.286  47.837  1.00  0.00     0.002 A 
HETATM   19  C   UNL     1       3.184  27.086  47.310  1.00  0.00     0.000 A 
HETATM   20  C   UNL     1       2.605  28.075  48.098  1.00  0.00     0.002 A 
HETATM   21  C   UNL     1       3.037  28.262  49.415  1.00  0.00     0.029 A 
ENDBRANCH  13  16
ENDBRANCH  10  12
BRANCH   9  22
HETATM   22  C   UNL     1       6.746  26.584  53.393  1.00  0.00     0.064 A 
HETATM   23  N   UNL     1       5.680  25.828  53.778  1.00  0.00    -0.263 NA
HETATM   24  C   UNL     1       5.735  24.502  53.521  1.00  0.00     0.117 A 
HETATM   25  C   UNL     1       6.800  23.880  52.894  1.00  0.00     0.019 A 
HETATM   26  C   UNL     1       7.880  24.660  52.505  1.00  0.00     0.003 A 
HETATM   27  C   UNL     1       7.858  26.029  52.757  1.00  0.00     0.030 A 
ENDBRANCH   9  22
TORSDOF 3
ENDMDL
MODEL 5
REMARK VINA RESULT:      -7.7      2.389      5.526
REMARK  3 active torsions:
REMARK  status: ('A' for Active; 'I' for Inactive)
REMARK    1  A    between atoms: C_9  and  C_10 
REMARK    2  A    between atoms: C_16  and  C_17 
REMARK       I    between atoms: C_17  and  N_18 
REMARK    3  A    between atoms: N_18  and  C_19 
ROOT
HETATM    1  C   UNL     1       3.657  30.172  55.947  1.00  0.00     0.070 C 
HETATM    2  C   UNL     1       4.993  29.484  56.056  1.00  0.00     0.037 A 
HETATM    3  N   UNL     1       5.663  29.652  57.264  1.00  0.00    -0.191 N 
HETATM    4  C   UNL     1       6.932  29.241  57.461  1.00  0.00     0.735 A 
HETATM    5  N   UNL     1       7.569  28.536  56.479  1.00  0.00    -0.091 N 
HETATM    6  N   UNL     1       8.858  28.344  56.809  1.00  0.00     0.012 NA
HETATM    7  N   UNL     1       8.969  28.860  58.029  1.00  0.00     0.033 NA
HETATM    8  N   UNL     1       7.779  29.427  58.446  1.00  0.00     0.030 NA
HETATM    9  C   UNL     1       6.982  28.191  55.192  1.00  0.00     0.216 A 
HETATM   10  C   UNL     1       5.582  28.781  55.056  1.00  0.00     0.063 A 
HETATM   11  H   UNL     1       5.221  30.233  57.972  1.00  0.00     0.184 HD
ENDROOT
BRANCH  10  12
HETATM   12  C   UNL     1       4.981  28.565  53.716  1.00  0.00     0.256 C 
HETATM   13  N   UNL     1       5.735  29.088  52.691  1.00  0.00    -0.323 N 
HETATM   14  H   UNL     1       6.562  29.609  52.958  1.00  0.00     0.169 HD
HETATM   15  O   UNL     1       3.896  28.002  53.647  1.00  0.00    -0.267 OA
BRANCH  13  16
HETATM   16  C   UNL     1       5.481  29.002  51.307  1.00  0.00     0.035 A 
HETATM   17  C   UNL     1       5.286  27.800  50.625  1.00  0.00     0.029 A 
HETATM   18  C   UNL     1       5.053  27.799  49.245  1.00  0.00     0.002 A 
HETATM   19  C   UNL     1       5.022  28.998  48.537  1.00  0.00     0.000 A 
HETATM   20  C   UNL     1       5.216  30.201  49.208  1.00  0.00     0.002 A 
HETATM   21  C   UNL     1       5.439  30.203  50.588  1.00  0.00     0.029 A 
ENDBRANCH  13  16
ENDBRANCH  10  12
BRANCH   9  22
HETATM   22  C   UNL     1       6.999  26.675  55.032  1.00  0.00     0.064 A 
HETATM   23  N   UNL     1       6.465  25.917  56.030  1.00  0.00    -0.263 NA
HETATM   24  C   UNL     1       6.517  24.574  55.885  1.00  0.00     0.117 A 
HETATM   25  C   UNL     1       7.072  23.936  54.790  1.00  0.00     0.019 A 
HETATM   26  C   UNL     1       7.612  24.718  53.778  1.00  0.00     0.003 A 
HETATM   27  C   UNL     1       7.579  26.105  53.897  1.00  0.00     0.030 A 
ENDBRANCH   9  22
TORSDOF 3
ENDMDL
MODEL 6
REMARK VINA RESULT:      -7.7      3.485      8.082
REMARK  3 active torsions:
REMARK  status: ('A' for Active; 'I' for Inactive)
REMARK    1  A    between atoms: C_9  and  C_10 
REMARK    2  A    between atoms: C_16  and  C_17 
REMARK       I    between atoms: C_17  and  N_18 
REMARK    3  A    between atoms: N_18  and  C_19 
ROOT
HETATM    1  C   UNL     1       4.360  28.514  54.563  1.00  0.00     0.070 C 
HETATM    2  C   UNL     1       5.454  28.048  55.490  1.00  0.00     0.037 A 
HETATM    3  N   UNL     1       5.892  26.741  55.299  1.00  0.00    -0.191 N 
HETATM    4  C   UNL     1       6.742  26.122  56.143  1.00  0.00     0.735 A 
HETATM    5  N   UNL     1       7.288  26.825  57.180  1.00  0.00    -0.091 N 
HETATM    6  N   UNL     1       7.989  26.002  57.979  1.00  0.00     0.012 NA
HETATM    7  N   UNL     1       7.933  24.821  57.370  1.00  0.00     0.033 NA
HETATM    8  N   UNL     1       7.156  24.880  56.228  1.00  0.00     0.030 NA
HETATM    9  C   UNL     1       7.011  28.225  57.470  1.00  0.00     0.216 A 
HETATM   10  C   UNL     1       5.976  28.788  56.500  1.00  0.00     0.063 A 
HETATM   11  H   UNL     1       5.440  26.193  54.571  1.00  0.00     0.184 HD
ENDROOT
BRANCH  10  12
HETATM   12  C   UNL     1       5.564  30.177  56.823  1.00  0.00     0.256 C 
HETATM   13  N   UNL     1       5.279  30.365  58.155  1.00  0.00    -0.323 N 
HETATM   14  H   UNL     1       5.315  29.542  58.746  1.00  0.00     0.169 HD
HETATM   15  O   UNL     1       5.477  30.987  55.908  1.00  0.00    -0.267 OA
BRANCH  13  16
HETATM   16  C   UNL     1       4.922  31.569  58.795  1.00  0.00     0.035 A 
HETATM   17  C   UNL     1       3.772  32.300  58.495  1.00  0.00     0.029 A 
HETATM   18  C   UNL     1       3.497  33.496  59.167  1.00  0.00     0.002 A 
HETATM   19  C   UNL     1       4.374  33.974  60.137  1.00  0.00     0.000 A 
HETATM   20  C   UNL     1       5.524  33.253  60.444  1.00  0.00     0.002 A 
HETATM   21  C   UNL     1       5.794  32.053  59.780  1.00  0.00     0.029 A 
ENDBRANCH  13  16
ENDBRANCH  10  12
BRANCH   9  22
HETATM   22  C   UNL     1       8.322  29.003  57.445  1.00  0.00     0.064 A 
HETATM   23  N   UNL     1       8.651  29.744  58.540  1.00  0.00    -0.263 NA
HETATM   24  C   UNL     1       9.802  30.451  58.488  1.00  0.00     0.117 A 
HETATM   25  C   UNL     1      10.656  30.458  57.399  1.00  0.00     0.019 A 
HETATM   26  C   UNL     1      10.312  29.697  56.290  1.00  0.00     0.003 A 
HETATM   27  C   UNL     1       9.131  28.960  56.308  1.00  0.00     0.030 A 
ENDBRANCH   9  22
TORSDOF 3
ENDMDL
MODEL 7
REMARK VINA RESULT:      -7.6      2.464      6.055
REMARK  3 active torsions:
REMARK  status: ('A' for Active; 'I' for Inactive)
REMARK    1  A    between atoms: C_9  and  C_10 
REMARK    2  A    between atoms: C_16  and  C_17 
REMARK       I    between atoms: C_17  and  N_18 
REMARK    3  A    between atoms: N_18  and  C_19 
ROOT
HETATM    1  C   UNL     1       7.469  25.231  57.773  1.00  0.00     0.070 C 
HETATM    2  C   UNL     1       7.423  25.385  56.274  1.00  0.00     0.037 A 
HETATM    3  N   UNL     1       7.420  24.200  55.545  1.00  0.00    -0.191 N 
HETATM    4  C   UNL     1       7.546  24.165  54.203  1.00  0.00     0.735 A 
HETATM    5  N   UNL     1       7.576  25.338  53.502  1.00  0.00    -0.091 N 
HETATM    6  N   UNL     1       7.846  25.096  52.207  1.00  0.00     0.012 NA
HETATM    7  N   UNL     1       7.891  23.770  52.119  1.00  0.00     0.033 NA
HETATM    8  N   UNL     1       7.711  23.178  53.355  1.00  0.00     0.030 NA
HETATM    9  C   UNL     1       7.496  26.664  54.098  1.00  0.00     0.216 A 
HETATM   10  C   UNL     1       7.441  26.574  55.620  1.00  0.00     0.063 A 
HETATM   11  H   UNL     1       7.466  23.326  56.063  1.00  0.00     0.184 HD
ENDROOT
BRANCH  10  12
HETATM   12  C   UNL     1       7.481  27.899  56.289  1.00  0.00     0.256 C 
HETATM   13  N   UNL     1       8.689  28.168  56.890  1.00  0.00    -0.323 N 
HETATM   14  H   UNL     1       9.379  27.427  56.870  1.00  0.00     0.169 HD
HETATM   15  O   UNL     1       6.468  28.586  56.282  1.00  0.00    -0.267 OA
BRANCH  13  16
HETATM   16  C   UNL     1       9.073  29.353  57.550  1.00  0.00     0.035 A 
HETATM   17  C   UNL     1      10.180  30.123  57.187  1.00  0.00     0.029 A 
HETATM   18  C   UNL     1      10.503  31.280  57.905  1.00  0.00     0.002 A 
HETATM   19  C   UNL     1       9.729  31.670  58.995  1.00  0.00     0.000 A 
HETATM   20  C   UNL     1       8.624  30.909  59.365  1.00  0.00     0.002 A 
HETATM   21  C   UNL     1       8.295  29.759  58.642  1.00  0.00     0.029 A 
ENDBRANCH  13  16
ENDBRANCH  10  12
BRANCH   9  22
HETATM   22  C   UNL     1       6.296  27.398  53.510  1.00  0.00     0.064 A 
HETATM   23  N   UNL     1       6.530  28.486  52.725  1.00  0.00    -0.263 NA
HETATM   24  C   UNL     1       5.452  29.142  52.237  1.00  0.00     0.117 A 
HETATM   25  C   UNL     1       4.143  28.770  52.486  1.00  0.00     0.019 A 
HETATM   26  C   UNL     1       3.917  27.658  53.286  1.00  0.00     0.003 A 
HETATM   27  C   UNL     1       5.003  26.961  53.808  1.00  0.00     0.030 A 
ENDBRANCH   9  22
TORSDOF 3
ENDMDL
MODEL 8
REMARK VINA RESULT:      -7.5      2.893      7.709
REMARK  3 active torsions:
REMARK  status: ('A' for Active; 'I' for Inactive)
REMARK    1  A    between atoms: C_9  and  C_10 
REMARK    2  A    between atoms: C_16  and  C_17 
REMARK       I    between atoms: C_17  and  N_18 
REMARK    3  A    between atoms: N_18  and  C_19 
ROOT
HETATM    1  C   UNL     1       4.828  27.667  54.152  1.00  0.00     0.070 C 
HETATM    2  C   UNL     1       5.861  27.365  55.207  1.00  0.00     0.037 A 
HETATM    3  N   UNL     1       6.580  26.187  55.028  1.00  0.00    -0.191 N 
HETATM    4  C   UNL     1       7.420  25.692  55.960  1.00  0.00     0.735 A 
HETATM    5  N   UNL     1       7.667  26.417  57.092  1.00  0.00    -0.091 N 
HETATM    6  N   UNL     1       8.410  25.695  57.949  1.00  0.00     0.012 NA
HETATM    7  N   UNL     1       8.680  24.572  57.292  1.00  0.00     0.033 NA
HETATM    8  N   UNL     1       8.065  24.554  56.054  1.00  0.00     0.030 NA
HETATM    9  C   UNL     1       7.072  27.711  57.395  1.00  0.00     0.216 A 
HETATM   10  C   UNL     1       6.081  28.122  56.310  1.00  0.00     0.063 A 
HETATM   11  H   UNL     1       6.351  25.611  54.221  1.00  0.00     0.184 HD
ENDROOT
BRANCH  10  12
HETATM   12  C   UNL     1       5.353  29.377  56.626  1.00  0.00     0.256 C 
HETATM   13  N   UNL     1       5.632  30.402  55.752  1.00  0.00    -0.323 N 
HETATM   14  H   UNL     1       6.335  30.217  55.047  1.00  0.00     0.169 HD
HETATM   15  O   UNL     1       4.633  29.400  57.616  1.00  0.00    -0.267 OA
BRANCH  13  16
HETATM   16  C   UNL     1       5.065  31.693  55.735  1.00  0.00     0.035 A 
HETATM   17  C   UNL     1       5.220  32.626  56.762  1.00  0.00     0.029 A 
HETATM   18  C   UNL     1       4.610  33.882  56.674  1.00  0.00     0.002 A 
HETATM   19  C   UNL     1       3.835  34.212  55.565  1.00  0.00     0.000 A 
HETATM   20  C   UNL     1       3.673  33.288  54.537  1.00  0.00     0.002 A 
HETATM   21  C   UNL     1       4.290  32.036  54.619  1.00  0.00     0.029 A 
ENDBRANCH  13  16
ENDBRANCH  10  12
BRANCH   9  22
HETATM   22  C   UNL     1       8.186  28.732  57.591  1.00  0.00     0.064 A 
HETATM   23  N   UNL     1       8.229  29.420  58.766  1.00  0.00    -0.263 NA
HETATM   24  C   UNL     1       9.206  30.344  58.909  1.00  0.00     0.117 A 
HETATM   25  C   UNL     1      10.155  30.621  57.941  1.00  0.00     0.019 A 
HETATM   26  C   UNL     1      10.103  29.912  56.749  1.00  0.00     0.003 A 
HETATM   27  C   UNL     1       9.108  28.956  56.566  1.00  0.00     0.030 A 
ENDBRANCH   9  22
TORSDOF 3
ENDMDL
MODEL 9
REMARK VINA RESULT:      -7.4      2.952      6.506
REMARK  3 active torsions:
REMARK  status: ('A' for Active; 'I' for Inactive)
REMARK    1  A    between atoms: C_9  and  C_10 
REMARK    2  A    between atoms: C_16  and  C_17 
REMARK       I    between atoms: C_17  and  N_18 
REMARK    3  A    between atoms: N_18  and  C_19 
ROOT
HETATM    1  C   UNL     1       8.185  26.063  57.353  1.00  0.00     0.070 C 
HETATM    2  C   UNL     1       7.224  26.539  56.294  1.00  0.00     0.037 A 
HETATM    3  N   UNL     1       6.506  25.544  55.638  1.00  0.00    -0.191 N 
HETATM    4  C   UNL     1       5.732  25.787  54.561  1.00  0.00     0.735 A 
HETATM    5  N   UNL     1       5.552  27.075  54.143  1.00  0.00    -0.091 N 
HETATM    6  N   UNL     1       4.872  27.094  52.983  1.00  0.00     0.012 NA
HETATM    7  N   UNL     1       4.571  25.819  52.754  1.00  0.00     0.033 NA
HETATM    8  N   UNL     1       5.104  24.994  53.726  1.00  0.00     0.030 NA
HETATM    9  C   UNL     1       6.153  28.244  54.770  1.00  0.00     0.216 A 
HETATM   10  C   UNL     1       7.068  27.834  55.920  1.00  0.00     0.063 A 
HETATM   11  H   UNL     1       6.688  24.578  55.902  1.00  0.00     0.184 HD
ENDROOT
BRANCH  10  12
HETATM   12  C   UNL     1       7.804  28.975  56.520  1.00  0.00     0.256 C 
HETATM   13  N   UNL     1       7.294  29.373  57.735  1.00  0.00    -0.323 N 
HETATM   14  H   UNL     1       6.454  28.902  58.049  1.00  0.00     0.169 HD
HETATM   15  O   UNL     1       8.731  29.467  55.890  1.00  0.00    -0.267 OA
BRANCH  13  16
HETATM   16  C   UNL     1       7.794  30.377  58.588  1.00  0.00     0.035 A 
HETATM   17  C   UNL     1       9.122  30.447  59.013  1.00  0.00     0.029 A 
HETATM   18  C   UNL     1       9.536  31.469  59.875  1.00  0.00     0.002 A 
HETATM   19  C   UNL     1       8.625  32.422  60.324  1.00  0.00     0.000 A 
HETATM   20  C   UNL     1       7.299  32.360  59.907  1.00  0.00     0.002 A 
HETATM   21  C   UNL     1       6.887  31.345  59.038  1.00  0.00     0.029 A 
ENDBRANCH  13  16
ENDBRANCH  10  12
BRANCH   9  22
HETATM   22  C   UNL     1       5.044  29.192  55.212  1.00  0.00     0.064 A 
HETATM   23  N   UNL     1       4.499  29.013  56.447  1.00  0.00    -0.263 NA
HETATM   24  C   UNL     1       3.495  29.844  56.810  1.00  0.00     0.117 A 
HETATM   25  C   UNL     1       3.002  30.856  56.005  1.00  0.00     0.019 A 
HETATM   26  C   UNL     1       3.566  31.029  54.748  1.00  0.00     0.003 A 
HETATM   27  C   UNL     1       4.598  30.189  54.342  1.00  0.00     0.030 A 
ENDBRANCH   9  22
TORSDOF 3
ENDMDL
MODEL 10
REMARK VINA RESULT:      -7.4      2.173      6.137
REMARK  3 active torsions:
REMARK  status: ('A' for Active; 'I' for Inactive)
REMARK    1  A    between atoms: C_9  and  C_10 
REMARK    2  A    between atoms: C_16  and  C_17 
REMARK       I    between atoms: C_17  and  N_18 
REMARK    3  A    between atoms: N_18  and  C_19 
ROOT
HETATM    1  C   UNL     1       7.235  26.175  58.167  1.00  0.00     0.070 C 
HETATM    2  C   UNL     1       7.488  25.436  56.878  1.00  0.00     0.037 A 
HETATM    3  N   UNL     1       7.748  24.074  57.004  1.00  0.00    -0.191 N 
HETATM    4  C   UNL     1       8.152  23.307  55.972  1.00  0.00     0.735 A 
HETATM    5  N   UNL     1       8.218  23.849  54.719  1.00  0.00    -0.091 N 
HETATM    6  N   UNL     1       8.773  22.972  53.864  1.00  0.00     0.012 NA
HETATM    7  N   UNL     1       8.959  21.873  54.589  1.00  0.00     0.033 NA
HETATM    8  N   UNL     1       8.581  22.069  55.905  1.00  0.00     0.030 NA
HETATM    9  C   UNL     1       7.892  25.231  54.394  1.00  0.00     0.216 A 
HETATM   10  C   UNL     1       7.531  26.015  55.652  1.00  0.00     0.063 A 
HETATM   11  H   UNL     1       7.766  23.681  57.942  1.00  0.00     0.184 HD
ENDROOT
BRANCH  10  12
HETATM   12  C   UNL     1       7.307  27.460  55.399  1.00  0.00     0.256 C 
HETATM   13  N   UNL     1       5.981  27.822  55.447  1.00  0.00    -0.323 N 
HETATM   14  H   UNL     1       5.312  27.073  55.580  1.00  0.00     0.169 HD
HETATM   15  O   UNL     1       8.275  28.163  55.139  1.00  0.00    -0.267 OA
BRANCH  13  16
HETATM   16  C   UNL     1       5.439  29.117  55.314  1.00  0.00     0.035 A 
HETATM   17  C   UNL     1       5.706  30.168  56.193  1.00  0.00     0.029 A 
HETATM   18  C   UNL     1       5.115  31.421  55.998  1.00  0.00     0.002 A 
HETATM   19  C   UNL     1       4.246  31.630  54.930  1.00  0.00     0.000 A 
HETATM   20  C   UNL     1       3.973  30.588  54.048  1.00  0.00     0.002 A 
HETATM   21  C   UNL     1       4.571  29.339  54.236  1.00  0.00     0.029 A 
ENDBRANCH  13  16
ENDBRANCH  10  12
BRANCH   9  22
HETATM   22  C   UNL     1       6.778  25.243  53.354  1.00  0.00     0.064 A 
HETATM   23  N   UNL     1       7.042  25.792  52.136  1.00  0.00    -0.263 NA
HETATM   24  C   UNL     1       6.032  25.822  51.237  1.00  0.00     0.117 A 
HETATM   25  C   UNL     1       4.763  25.328  51.483  1.00  0.00     0.019 A 
HETATM   26  C   UNL     1       4.506  24.769  52.728  1.00  0.00     0.003 A 
HETATM   27  C   UNL     1       5.522  24.725  53.678  1.00  0.00     0.030 A 
ENDBRANCH   9  22
TORSDOF 3
ENDMDL
