MODEL 1
REMARK VINA RESULT:     -10.7      0.000      0.000
REMARK  3 active torsions:
REMARK  status: ('A' for Active; 'I' for Inactive)
REMARK    1  A    between atoms: C_4  and  N_5 
REMARK       I    between atoms: N_5  and  C_6 
REMARK    2  A    between atoms: C_6  and  C_7 
REMARK    3  A    between atoms: C_7  and  N_8 
ROOT
HETATM    1  N   UNL     1       6.552  27.609  56.306  1.00  0.00    -0.224 N 
HETATM    2  N   UNL     1       6.427  26.626  57.307  1.00  0.00    -0.180 NA
HETATM    3  C   UNL     1       6.704  25.385  57.019  1.00  0.00     0.153 A 
HETATM    4  C   UNL     1       7.114  25.004  55.696  1.00  0.00     0.028 A 
HETATM    5  C   UNL     1       7.209  25.974  54.730  1.00  0.00     0.116 A 
HETATM    6  N   UNL     1       7.614  25.387  53.567  1.00  0.00    -0.350 N 
HETATM    7  H   UNL     1       7.773  25.879  52.698  1.00  0.00     0.166 HD
HETATM    8  C   UNL     1       7.785  24.033  53.769  1.00  0.00     0.044 A 
HETATM    9  C   UNL     1       7.479  23.766  55.109  1.00  0.00     0.005 A 
HETATM   10  C   UNL     1       8.184  23.035  52.875  1.00  0.00     0.031 A 
HETATM   11  C   UNL     1       8.283  21.727  53.363  1.00  0.00     0.009 A 
HETATM   12  C   UNL     1       8.002  21.422  54.698  1.00  0.00    -0.061 A 
HETATM   13  C   UNL     1       8.099  20.008  55.193  1.00  0.00     0.048 C 
HETATM   14  C   UNL     1       7.586  22.440  55.575  1.00  0.00     0.021 A 
HETATM   15  C   UNL     1       6.932  27.357  54.976  1.00  0.00     0.291 A 
HETATM   16  O   UNL     1       7.011  28.218  54.104  1.00  0.00    -0.264 OA
ENDROOT
BRANCH   1  17
HETATM   17  C   UNL     1       6.347  28.990  56.715  1.00  0.00     0.258 C 
BRANCH  17  18
HETATM   18  C   UNL     1       7.277  29.372  57.881  1.00  0.00     0.244 C 
HETATM   19  N   UNL     1       7.031  30.622  58.495  1.00  0.00    -0.321 N 
HETATM   20  C   UNL     1       5.792  31.366  58.251  1.00  0.00     0.159 C 
HETATM   21  O   UNL     1       8.155  28.587  58.250  1.00  0.00    -0.271 OA
BRANCH  19  22
HETATM   22  C   UNL     1       7.935  31.170  59.487  1.00  0.00     0.037 A 
HETATM   23  C   UNL     1       7.536  31.384  60.818  1.00  0.00     0.036 A 
HETATM   24  C   UNL     1       8.412  31.908  61.784  1.00  0.00    -0.060 A 
HETATM   25  C   UNL     1       7.951  32.129  63.196  1.00  0.00     0.048 C 
HETATM   26  C   UNL     1       9.726  32.208  61.424  1.00  0.00     0.007 A 
HETATM   27  C   UNL     1      10.154  31.989  60.120  1.00  0.00     0.003 A 
HETATM   28  C   UNL     1       9.269  31.474  59.165  1.00  0.00     0.030 A 
ENDBRANCH  19  22
ENDBRANCH  17  18
ENDBRANCH   1  17
TORSDOF 3
ENDMDL
MODEL 2
REMARK VINA RESULT:     -10.5      1.542      8.885
REMARK  3 active torsions:
REMARK  status: ('A' for Active; 'I' for Inactive)
REMARK    1  A    between atoms: C_4  and  N_5 
REMARK       I    between atoms: N_5  and  C_6 
REMARK    2  A    between atoms: C_6  and  C_7 
REMARK    3  A    between atoms: C_7  and  N_8 
ROOT
HETATM    1  N   UNL     1       6.553  27.754  55.594  1.00  0.00    -0.224 N 
HETATM    2  N   UNL     1       7.796  27.442  56.178  1.00  0.00    -0.180 NA
HETATM    3  C   UNL     1       8.244  28.179  57.156  1.00  0.00     0.153 A 
HETATM    4  C   UNL     1       7.499  29.311  57.632  1.00  0.00     0.028 A 
HETATM    5  C   UNL     1       6.300  29.611  57.035  1.00  0.00     0.116 A 
HETATM    6  N   UNL     1       5.777  30.712  57.646  1.00  0.00    -0.350 N 
HETATM    7  H   UNL     1       4.893  31.140  57.405  1.00  0.00     0.166 HD
HETATM    8  C   UNL     1       6.631  31.136  58.643  1.00  0.00     0.044 A 
HETATM    9  C   UNL     1       7.726  30.264  58.657  1.00  0.00     0.005 A 
HETATM   10  C   UNL     1       6.517  32.215  59.526  1.00  0.00     0.031 A 
HETATM   11  C   UNL     1       7.545  32.405  60.455  1.00  0.00     0.009 A 
HETATM   12  C   UNL     1       8.647  31.547  60.513  1.00  0.00    -0.061 A 
HETATM   13  C   UNL     1       9.746  31.782  61.509  1.00  0.00     0.048 C 
HETATM   14  C   UNL     1       8.749  30.478  59.604  1.00  0.00     0.021 A 
HETATM   15  C   UNL     1       5.742  28.841  55.965  1.00  0.00     0.291 A 
HETATM   16  O   UNL     1       4.673  29.121  55.430  1.00  0.00    -0.264 OA
ENDROOT
BRANCH   1  17
HETATM   17  C   UNL     1       6.049  26.828  54.591  1.00  0.00     0.258 C 
BRANCH  17  18
HETATM   18  C   UNL     1       6.450  25.378  54.918  1.00  0.00     0.244 C 
HETATM   19  N   UNL     1       7.283  24.731  53.975  1.00  0.00    -0.321 N 
HETATM   20  C   UNL     1       7.971  25.478  52.919  1.00  0.00     0.159 C 
HETATM   21  O   UNL     1       6.071  24.857  55.971  1.00  0.00    -0.271 OA
BRANCH  19  22
HETATM   22  C   UNL     1       7.592  23.319  54.080  1.00  0.00     0.037 A 
HETATM   23  C   UNL     1       7.812  22.697  55.321  1.00  0.00     0.036 A 
HETATM   24  C   UNL     1       8.104  21.326  55.428  1.00  0.00    -0.060 A 
HETATM   25  C   UNL     1       8.339  20.695  56.770  1.00  0.00     0.048 C 
HETATM   26  C   UNL     1       8.159  20.547  54.272  1.00  0.00     0.007 A 
HETATM   27  C   UNL     1       7.928  21.131  53.032  1.00  0.00     0.003 A 
HETATM   28  C   UNL     1       7.645  22.500  52.939  1.00  0.00     0.030 A 
ENDBRANCH  19  22
ENDBRANCH  17  18
ENDBRANCH   1  17
TORSDOF 3
ENDMDL
MODEL 3
REMARK VINA RESULT:     -10.0      1.384      2.056
REMARK  3 active torsions:
REMARK  status: ('A' for Active; 'I' for Inactive)
REMARK    1  A    between atoms: C_4  and  N_5 
REMARK       I    between atoms: N_5  and  C_6 
REMARK    2  A    between atoms: C_6  and  C_7 
REMARK    3  A    between atoms: C_7  and  N_8 
ROOT
HETATM    1  N   UNL     1       7.053  27.528  55.126  1.00  0.00    -0.224 N 
HETATM    2  N   UNL     1       7.444  27.232  53.805  1.00  0.00    -0.180 NA
HETATM    3  C   UNL     1       7.677  25.994  53.472  1.00  0.00     0.153 A 
HETATM    4  C   UNL     1       7.561  24.933  54.432  1.00  0.00     0.028 A 
HETATM    5  C   UNL     1       7.200  25.244  55.718  1.00  0.00     0.116 A 
HETATM    6  N   UNL     1       7.151  24.090  56.444  1.00  0.00    -0.350 N 
HETATM    7  H   UNL     1       6.901  24.034  57.423  1.00  0.00     0.166 HD
HETATM    8  C   UNL     1       7.481  23.022  55.636  1.00  0.00     0.044 A 
HETATM    9  C   UNL     1       7.740  23.528  54.357  1.00  0.00     0.005 A 
HETATM   10  C   UNL     1       7.565  21.659  55.938  1.00  0.00     0.031 A 
HETATM   11  C   UNL     1       7.918  20.785  54.903  1.00  0.00     0.009 A 
HETATM   12  C   UNL     1       8.169  21.249  53.608  1.00  0.00    -0.061 A 
HETATM   13  C   UNL     1       8.562  20.293  52.519  1.00  0.00     0.048 C 
HETATM   14  C   UNL     1       8.093  22.626  53.332  1.00  0.00     0.021 A 
HETATM   15  C   UNL     1       6.917  26.578  56.154  1.00  0.00     0.291 A 
HETATM   16  O   UNL     1       6.603  26.850  57.310  1.00  0.00    -0.264 OA
ENDROOT
BRANCH   1  17
HETATM   17  C   UNL     1       6.689  28.908  55.409  1.00  0.00     0.258 C 
BRANCH  17  18
HETATM   18  C   UNL     1       7.583  29.505  56.511  1.00  0.00     0.244 C 
HETATM   19  N   UNL     1       6.924  30.247  57.519  1.00  0.00    -0.321 N 
HETATM   20  C   UNL     1       5.468  30.193  57.682  1.00  0.00     0.159 C 
HETATM   21  O   UNL     1       8.800  29.298  56.496  1.00  0.00    -0.271 OA
BRANCH  19  22
HETATM   22  C   UNL     1       7.663  30.998  58.514  1.00  0.00     0.037 A 
HETATM   23  C   UNL     1       7.020  31.664  59.571  1.00  0.00     0.036 A 
HETATM   24  C   UNL     1       7.734  32.387  60.543  1.00  0.00    -0.060 A 
HETATM   25  C   UNL     1       7.014  33.092  61.655  1.00  0.00     0.048 C 
HETATM   26  C   UNL     1       9.127  32.431  60.473  1.00  0.00     0.007 A 
HETATM   27  C   UNL     1       9.791  31.766  59.450  1.00  0.00     0.003 A 
HETATM   28  C   UNL     1       9.067  31.057  58.484  1.00  0.00     0.030 A 
ENDBRANCH  19  22
ENDBRANCH  17  18
ENDBRANCH   1  17
TORSDOF 3
ENDMDL
MODEL 4
REMARK VINA RESULT:      -9.9      1.444      8.871
REMARK  3 active torsions:
REMARK  status: ('A' for Active; 'I' for Inactive)
REMARK    1  A    between atoms: C_4  and  N_5 
REMARK       I    between atoms: N_5  and  C_6 
REMARK    2  A    between atoms: C_6  and  C_7 
REMARK    3  A    between atoms: C_7  and  N_8 
ROOT
HETATM    1  N   UNL     1       6.230  27.848  55.765  1.00  0.00    -0.224 N 
HETATM    2  N   UNL     1       5.210  28.255  56.648  1.00  0.00    -0.180 NA
HETATM    3  C   UNL     1       5.480  29.133  57.572  1.00  0.00     0.153 A 
HETATM    4  C   UNL     1       6.801  29.677  57.716  1.00  0.00     0.028 A 
HETATM    5  C   UNL     1       7.786  29.252  56.860  1.00  0.00     0.116 A 
HETATM    6  N   UNL     1       8.944  29.898  57.180  1.00  0.00    -0.350 N 
HETATM    7  H   UNL     1       9.825  29.776  56.698  1.00  0.00     0.166 HD
HETATM    8  C   UNL     1       8.720  30.746  58.244  1.00  0.00     0.044 A 
HETATM    9  C   UNL     1       7.371  30.628  58.599  1.00  0.00     0.005 A 
HETATM   10  C   UNL     1       9.602  31.602  58.912  1.00  0.00     0.031 A 
HETATM   11  C   UNL     1       9.092  32.366  59.968  1.00  0.00     0.009 A 
HETATM   12  C   UNL     1       7.747  32.289  60.343  1.00  0.00    -0.061 A 
HETATM   13  C   UNL     1       7.228  33.106  61.490  1.00  0.00     0.048 C 
HETATM   14  C   UNL     1       6.883  31.409  59.667  1.00  0.00     0.021 A 
HETATM   15  C   UNL     1       7.562  28.299  55.815  1.00  0.00     0.291 A 
HETATM   16  O   UNL     1       8.450  27.917  55.059  1.00  0.00    -0.264 OA
ENDROOT
BRANCH   1  17
HETATM   17  C   UNL     1       5.844  26.959  54.681  1.00  0.00     0.258 C 
BRANCH  17  18
HETATM   18  C   UNL     1       6.293  25.512  54.958  1.00  0.00     0.244 C 
HETATM   19  N   UNL     1       7.083  24.899  53.957  1.00  0.00    -0.321 N 
HETATM   20  C   UNL     1       7.693  25.680  52.877  1.00  0.00     0.159 C 
HETATM   21  O   UNL     1       5.987  24.966  56.022  1.00  0.00    -0.271 OA
BRANCH  19  22
HETATM   22  C   UNL     1       7.428  23.493  54.019  1.00  0.00     0.037 A 
HETATM   23  C   UNL     1       7.603  22.824  55.243  1.00  0.00     0.036 A 
HETATM   24  C   UNL     1       7.929  21.458  55.307  1.00  0.00    -0.060 A 
HETATM   25  C   UNL     1       8.115  20.777  56.631  1.00  0.00     0.048 C 
HETATM   26  C   UNL     1       8.065  20.732  54.123  1.00  0.00     0.007 A 
HETATM   27  C   UNL     1       7.879  21.363  52.899  1.00  0.00     0.003 A 
HETATM   28  C   UNL     1       7.562  22.726  52.849  1.00  0.00     0.030 A 
ENDBRANCH  19  22
ENDBRANCH  17  18
ENDBRANCH   1  17
TORSDOF 3
ENDMDL
MODEL 5
REMARK VINA RESULT:      -9.7      2.478      9.853
REMARK  3 active torsions:
REMARK  status: ('A' for Active; 'I' for Inactive)
REMARK    1  A    between atoms: C_4  and  N_5 
REMARK       I    between atoms: N_5  and  C_6 
REMARK    2  A    between atoms: C_6  and  C_7 
REMARK    3  A    between atoms: C_7  and  N_8 
ROOT
HETATM    1  N   UNL     1       8.696  31.396  59.332  1.00  0.00    -0.224 N 
HETATM    2  N   UNL     1       9.556  31.260  60.439  1.00  0.00    -0.180 NA
HETATM    3  C   UNL     1       9.186  31.734  61.596  1.00  0.00     0.153 A 
HETATM    4  C   UNL     1       7.927  32.406  61.753  1.00  0.00     0.028 A 
HETATM    5  C   UNL     1       7.112  32.546  60.658  1.00  0.00     0.116 A 
HETATM    6  N   UNL     1       5.982  33.207  61.042  1.00  0.00    -0.350 N 
HETATM    7  H   UNL     1       5.210  33.433  60.429  1.00  0.00     0.166 HD
HETATM    8  C   UNL     1       6.054  33.500  62.388  1.00  0.00     0.044 A 
HETATM    9  C   UNL     1       7.272  33.000  62.862  1.00  0.00     0.005 A 
HETATM   10  C   UNL     1       5.139  34.161  63.213  1.00  0.00     0.031 A 
HETATM   11  C   UNL     1       5.473  34.312  64.563  1.00  0.00     0.009 A 
HETATM   12  C   UNL     1       6.673  33.812  65.080  1.00  0.00    -0.061 A 
HETATM   13  C   UNL     1       7.016  34.001  66.529  1.00  0.00     0.048 C 
HETATM   14  C   UNL     1       7.584  33.164  64.228  1.00  0.00     0.021 A 
HETATM   15  C   UNL     1       7.448  32.043  59.360  1.00  0.00     0.291 A 
HETATM   16  O   UNL     1       6.718  32.181  58.382  1.00  0.00    -0.264 OA
ENDROOT
BRANCH   1  17
HETATM   17  C   UNL     1       9.108  30.745  58.098  1.00  0.00     0.258 C 
BRANCH  17  18
HETATM   18  C   UNL     1       8.481  29.345  57.970  1.00  0.00     0.244 C 
HETATM   19  N   UNL     1       8.519  28.757  56.683  1.00  0.00    -0.321 N 
HETATM   20  C   UNL     1       9.365  29.300  55.617  1.00  0.00     0.159 C 
HETATM   21  O   UNL     1       8.012  28.786  58.966  1.00  0.00    -0.271 OA
BRANCH  19  22
HETATM   22  C   UNL     1       7.818  27.522  56.393  1.00  0.00     0.037 A 
HETATM   23  C   UNL     1       8.319  26.272  56.793  1.00  0.00     0.036 A 
HETATM   24  C   UNL     1       7.638  25.072  56.520  1.00  0.00    -0.060 A 
HETATM   25  C   UNL     1       8.206  23.753  56.957  1.00  0.00     0.048 C 
HETATM   26  C   UNL     1       6.415  25.119  55.850  1.00  0.00     0.007 A 
HETATM   27  C   UNL     1       5.886  26.342  55.459  1.00  0.00     0.003 A 
HETATM   28  C   UNL     1       6.578  27.529  55.730  1.00  0.00     0.030 A 
ENDBRANCH  19  22
ENDBRANCH  17  18
ENDBRANCH   1  17
TORSDOF 3
ENDMDL
MODEL 6
REMARK VINA RESULT:      -9.7      5.049      8.614
REMARK  3 active torsions:
REMARK  status: ('A' for Active; 'I' for Inactive)
REMARK    1  A    between atoms: C_4  and  N_5 
REMARK       I    between atoms: N_5  and  C_6 
REMARK    2  A    between atoms: C_6  and  C_7 
REMARK    3  A    between atoms: C_7  and  N_8 
ROOT
HETATM    1  N   UNL     1       6.155  27.745  52.473  1.00  0.00    -0.224 N 
HETATM    2  N   UNL     1       6.090  26.803  51.428  1.00  0.00    -0.180 NA
HETATM    3  C   UNL     1       6.518  25.590  51.635  1.00  0.00     0.153 A 
HETATM    4  C   UNL     1       7.071  25.205  52.903  1.00  0.00     0.028 A 
HETATM    5  C   UNL     1       7.145  26.143  53.902  1.00  0.00     0.116 A 
HETATM    6  N   UNL     1       7.696  25.558  55.004  1.00  0.00    -0.350 N 
HETATM    7  H   UNL     1       7.857  26.026  55.886  1.00  0.00     0.166 HD
HETATM    8  C   UNL     1       7.984  24.237  54.729  1.00  0.00     0.044 A 
HETATM    9  C   UNL     1       7.594  23.988  53.408  1.00  0.00     0.005 A 
HETATM   10  C   UNL     1       8.553  23.253  55.544  1.00  0.00     0.031 A 
HETATM   11  C   UNL     1       8.723  21.976  54.999  1.00  0.00     0.009 A 
HETATM   12  C   UNL     1       8.331  21.682  53.689  1.00  0.00    -0.061 A 
HETATM   13  C   UNL     1       8.538  20.308  53.121  1.00  0.00     0.048 C 
HETATM   14  C   UNL     1       7.775  22.692  52.883  1.00  0.00     0.021 A 
HETATM   15  C   UNL     1       6.685  27.491  53.750  1.00  0.00     0.291 A 
HETATM   16  O   UNL     1       6.764  28.327  54.646  1.00  0.00    -0.264 OA
ENDROOT
BRANCH   1  17
HETATM   17  C   UNL     1       5.554  29.046  52.222  1.00  0.00     0.258 C 
BRANCH  17  18
HETATM   18  C   UNL     1       4.885  29.095  50.836  1.00  0.00     0.244 C 
HETATM   19  N   UNL     1       3.506  28.779  50.795  1.00  0.00    -0.321 N 
HETATM   20  C   UNL     1       2.698  28.714  52.015  1.00  0.00     0.159 C 
HETATM   21  O   UNL     1       5.543  29.428  49.846  1.00  0.00    -0.271 OA
BRANCH  19  22
HETATM   22  C   UNL     1       2.802  28.626  49.538  1.00  0.00     0.037 A 
HETATM   23  C   UNL     1       2.895  27.451  48.772  1.00  0.00     0.036 A 
HETATM   24  C   UNL     1       2.207  27.295  47.556  1.00  0.00    -0.060 A 
HETATM   25  C   UNL     1       2.335  26.029  46.760  1.00  0.00     0.048 C 
HETATM   26  C   UNL     1       1.387  28.327  47.099  1.00  0.00     0.007 A 
HETATM   27  C   UNL     1       1.260  29.493  47.844  1.00  0.00     0.003 A 
HETATM   28  C   UNL     1       1.958  29.639  49.050  1.00  0.00     0.030 A 
ENDBRANCH  19  22
ENDBRANCH  17  18
ENDBRANCH   1  17
TORSDOF 3
ENDMDL
MODEL 7
REMARK VINA RESULT:      -9.4      1.800      8.851
REMARK  3 active torsions:
REMARK  status: ('A' for Active; 'I' for Inactive)
REMARK    1  A    between atoms: C_4  and  N_5 
REMARK       I    between atoms: N_5  and  C_6 
REMARK    2  A    between atoms: C_6  and  C_7 
REMARK    3  A    between atoms: C_7  and  N_8 
ROOT
HETATM    1  N   UNL     1       6.380  29.956  56.147  1.00  0.00    -0.224 N 
HETATM    2  N   UNL     1       7.479  29.510  56.906  1.00  0.00    -0.180 NA
HETATM    3  C   UNL     1       7.690  30.024  58.086  1.00  0.00     0.153 A 
HETATM    4  C   UNL     1       6.832  31.048  58.612  1.00  0.00     0.028 A 
HETATM    5  C   UNL     1       5.779  31.484  57.848  1.00  0.00     0.116 A 
HETATM    6  N   UNL     1       5.109  32.447  58.544  1.00  0.00    -0.350 N 
HETATM    7  H   UNL     1       4.284  32.930  58.213  1.00  0.00     0.166 HD
HETATM    8  C   UNL     1       5.722  32.644  59.765  1.00  0.00     0.044 A 
HETATM    9  C   UNL     1       6.812  31.768  59.833  1.00  0.00     0.005 A 
HETATM   10  C   UNL     1       5.395  33.522  60.803  1.00  0.00     0.031 A 
HETATM   11  C   UNL     1       6.198  33.501  61.948  1.00  0.00     0.009 A 
HETATM   12  C   UNL     1       7.286  32.630  62.064  1.00  0.00    -0.061 A 
HETATM   13  C   UNL     1       8.142  32.638  63.296  1.00  0.00     0.048 C 
HETATM   14  C   UNL     1       7.605  31.767  61.000  1.00  0.00     0.021 A 
HETATM   15  C   UNL     1       5.480  30.959  56.550  1.00  0.00     0.291 A 
HETATM   16  O   UNL     1       4.540  31.360  55.869  1.00  0.00    -0.264 OA
ENDROOT
BRANCH   1  17
HETATM   17  C   UNL     1       6.124  29.263  54.894  1.00  0.00     0.258 C 
BRANCH  17  18
HETATM   18  C   UNL     1       6.974  27.985  54.779  1.00  0.00     0.244 C 
HETATM   19  N   UNL     1       6.490  26.846  55.464  1.00  0.00    -0.321 N 
HETATM   20  C   UNL     1       5.122  26.792  55.989  1.00  0.00     0.159 C 
HETATM   21  O   UNL     1       7.998  27.986  54.089  1.00  0.00    -0.271 OA
BRANCH  19  22
HETATM   22  C   UNL     1       7.278  25.635  55.574  1.00  0.00     0.037 A 
HETATM   23  C   UNL     1       7.329  24.686  54.538  1.00  0.00     0.036 A 
HETATM   24  C   UNL     1       8.099  23.513  54.638  1.00  0.00    -0.060 A 
HETATM   25  C   UNL     1       8.126  22.518  53.515  1.00  0.00     0.048 C 
HETATM   26  C   UNL     1       8.854  23.288  55.789  1.00  0.00     0.007 A 
HETATM   27  C   UNL     1       8.838  24.218  56.821  1.00  0.00     0.003 A 
HETATM   28  C   UNL     1       8.060  25.378  56.713  1.00  0.00     0.030 A 
ENDBRANCH  19  22
ENDBRANCH  17  18
ENDBRANCH   1  17
TORSDOF 3
ENDMDL
MODEL 8
REMARK VINA RESULT:      -9.3      5.530      9.217
REMARK  3 active torsions:
REMARK  status: ('A' for Active; 'I' for Inactive)
REMARK    1  A    between atoms: C_4  and  N_5 
REMARK       I    between atoms: N_5  and  C_6 
REMARK    2  A    between atoms: C_6  and  C_7 
REMARK    3  A    between atoms: C_7  and  N_8 
ROOT
HETATM    1  N   UNL     1       5.977  27.258  52.325  1.00  0.00    -0.224 N 
HETATM    2  N   UNL     1       5.863  26.419  51.200  1.00  0.00    -0.180 NA
HETATM    3  C   UNL     1       4.969  26.689  50.290  1.00  0.00     0.153 A 
HETATM    4  C   UNL     1       4.089  27.816  50.428  1.00  0.00     0.028 A 
HETATM    5  C   UNL     1       4.202  28.609  51.542  1.00  0.00     0.116 A 
HETATM    6  N   UNL     1       3.276  29.608  51.457  1.00  0.00    -0.350 N 
HETATM    7  H   UNL     1       3.151  30.338  52.144  1.00  0.00     0.166 HD
HETATM    8  C   UNL     1       2.556  29.470  50.288  1.00  0.00     0.044 A 
HETATM    9  C   UNL     1       3.054  28.347  49.618  1.00  0.00     0.005 A 
HETATM   10  C   UNL     1       1.513  30.250  49.779  1.00  0.00     0.031 A 
HETATM   11  C   UNL     1       0.966  29.878  48.546  1.00  0.00     0.009 A 
HETATM   12  C   UNL     1       1.445  28.772  47.836  1.00  0.00    -0.061 A 
HETATM   13  C   UNL     1       0.830  28.384  46.523  1.00  0.00     0.048 C 
HETATM   14  C   UNL     1       2.485  27.994  48.376  1.00  0.00     0.021 A 
HETATM   15  C   UNL     1       5.166  28.380  52.575  1.00  0.00     0.291 A 
HETATM   16  O   UNL     1       5.255  29.089  53.574  1.00  0.00    -0.264 OA
ENDROOT
BRANCH   1  17
HETATM   17  C   UNL     1       7.069  26.978  53.245  1.00  0.00     0.258 C 
BRANCH  17  18
HETATM   18  C   UNL     1       7.540  25.517  53.123  1.00  0.00     0.244 C 
HETATM   19  N   UNL     1       6.924  24.587  53.993  1.00  0.00    -0.321 N 
HETATM   20  C   UNL     1       5.708  24.923  54.739  1.00  0.00     0.159 C 
HETATM   21  O   UNL     1       8.386  25.211  52.278  1.00  0.00    -0.271 OA
BRANCH  19  22
HETATM   22  C   UNL     1       7.394  23.220  54.096  1.00  0.00     0.037 A 
HETATM   23  C   UNL     1       7.639  22.609  55.338  1.00  0.00     0.036 A 
HETATM   24  C   UNL     1       8.087  21.281  55.441  1.00  0.00    -0.060 A 
HETATM   25  C   UNL     1       8.345  20.662  56.785  1.00  0.00     0.048 C 
HETATM   26  C   UNL     1       8.278  20.532  54.280  1.00  0.00     0.007 A 
HETATM   27  C   UNL     1       8.026  21.103  53.039  1.00  0.00     0.003 A 
HETATM   28  C   UNL     1       7.587  22.430  52.949  1.00  0.00     0.030 A 
ENDBRANCH  19  22
ENDBRANCH  17  18
ENDBRANCH   1  17
TORSDOF 3
ENDMDL
MODEL 9
REMARK VINA RESULT:      -9.3      1.745      9.303
REMARK  3 active torsions:
REMARK  status: ('A' for Active; 'I' for Inactive)
REMARK    1  A    between atoms: C_4  and  N_5 
REMARK       I    between atoms: N_5  and  C_6 
REMARK    2  A    between atoms: C_6  and  C_7 
REMARK    3  A    between atoms: C_7  and  N_8 
ROOT
HETATM    1  N   UNL     1       8.323  30.433  57.637  1.00  0.00    -0.224 N 
HETATM    2  N   UNL     1       9.385  30.607  58.546  1.00  0.00    -0.180 NA
HETATM    3  C   UNL     1       9.140  31.113  59.722  1.00  0.00     0.153 A 
HETATM    4  C   UNL     1       7.813  31.512  60.097  1.00  0.00     0.028 A 
HETATM    5  C   UNL     1       6.796  31.354  59.189  1.00  0.00     0.116 A 
HETATM    6  N   UNL     1       5.637  31.793  59.758  1.00  0.00    -0.350 N 
HETATM    7  H   UNL     1       4.731  31.780  59.307  1.00  0.00     0.166 HD
HETATM    8  C   UNL     1       5.892  32.240  61.038  1.00  0.00     0.044 A 
HETATM    9  C   UNL     1       7.260  32.068  61.278  1.00  0.00     0.005 A 
HETATM   10  C   UNL     1       5.022  32.775  61.993  1.00  0.00     0.031 A 
HETATM   11  C   UNL     1       5.561  33.140  63.232  1.00  0.00     0.009 A 
HETATM   12  C   UNL     1       6.919  32.970  63.517  1.00  0.00    -0.061 A 
HETATM   13  C   UNL     1       7.477  33.384  64.847  1.00  0.00     0.048 C 
HETATM   14  C   UNL     1       7.778  32.444  62.535  1.00  0.00     0.021 A 
HETATM   15  C   UNL     1       6.987  30.796  57.884  1.00  0.00     0.291 A 
HETATM   16  O   UNL     1       6.073  30.667  57.074  1.00  0.00    -0.264 OA
ENDROOT
BRANCH   1  17
HETATM   17  C   UNL     1       8.634  29.755  56.388  1.00  0.00     0.258 C 
BRANCH  17  18
HETATM   18  C   UNL     1       8.434  28.234  56.514  1.00  0.00     0.244 C 
HETATM   19  N   UNL     1       7.889  27.578  55.384  1.00  0.00    -0.321 N 
HETATM   20  C   UNL     1       7.809  28.240  54.079  1.00  0.00     0.159 C 
HETATM   21  O   UNL     1       8.774  27.652  57.548  1.00  0.00    -0.271 OA
BRANCH  19  22
HETATM   22  C   UNL     1       7.497  26.184  55.433  1.00  0.00     0.037 A 
HETATM   23  C   UNL     1       7.793  25.292  54.389  1.00  0.00     0.036 A 
HETATM   24  C   UNL     1       7.422  23.937  54.436  1.00  0.00    -0.060 A 
HETATM   25  C   UNL     1       7.749  23.013  53.300  1.00  0.00     0.048 C 
HETATM   26  C   UNL     1       6.756  23.450  55.562  1.00  0.00     0.007 A 
HETATM   27  C   UNL     1       6.467  24.305  56.618  1.00  0.00     0.003 A 
HETATM   28  C   UNL     1       6.835  25.655  56.555  1.00  0.00     0.030 A 
ENDBRANCH  19  22
ENDBRANCH  17  18
ENDBRANCH   1  17
TORSDOF 3
ENDMDL
MODEL 10
REMARK VINA RESULT:      -9.2      5.092      8.057
REMARK  3 active torsions:
REMARK  status: ('A' for Active; 'I' for Inactive)
REMARK    1  A    between atoms: C_4  and  N_5 
REMARK       I    between atoms: N_5  and  C_6 
REMARK    2  A    between atoms: C_6  and  C_7 
REMARK    3  A    between atoms: C_7  and  N_8 
ROOT
HETATM    1  N   UNL     1       5.364  27.463  52.841  1.00  0.00    -0.224 N 
HETATM    2  N   UNL     1       5.233  26.504  51.819  1.00  0.00    -0.180 NA
HETATM    3  C   UNL     1       5.834  25.354  51.943  1.00  0.00     0.153 A 
HETATM    4  C   UNL     1       6.639  25.058  53.094  1.00  0.00     0.028 A 
HETATM    5  C   UNL     1       6.771  26.014  54.070  1.00  0.00     0.116 A 
HETATM    6  N   UNL     1       7.570  25.517  55.057  1.00  0.00    -0.350 N 
HETATM    7  H   UNL     1       7.823  26.014  55.901  1.00  0.00     0.166 HD
HETATM    8  C   UNL     1       7.963  24.235  54.730  1.00  0.00     0.044 A 
HETATM    9  C   UNL     1       7.384  23.920  53.495  1.00  0.00     0.005 A 
HETATM   10  C   UNL     1       8.778  23.340  55.429  1.00  0.00     0.031 A 
HETATM   11  C   UNL     1       9.004  22.083  54.856  1.00  0.00     0.009 A 
HETATM   12  C   UNL     1       8.430  21.723  53.633  1.00  0.00    -0.061 A 
HETATM   13  C   UNL     1       8.700  20.375  53.031  1.00  0.00     0.048 C 
HETATM   14  C   UNL     1       7.627  22.647  52.940  1.00  0.00     0.021 A 
HETATM   15  C   UNL     1       6.133  27.295  54.007  1.00  0.00     0.291 A 
HETATM   16  O   UNL     1       6.264  28.148  54.880  1.00  0.00    -0.264 OA
ENDROOT
BRANCH   1  17
HETATM   17  C   UNL     1       4.576  28.679  52.705  1.00  0.00     0.258 C 
BRANCH  17  18
HETATM   18  C   UNL     1       4.910  29.417  51.396  1.00  0.00     0.244 C 
HETATM   19  N   UNL     1       3.830  29.637  50.508  1.00  0.00    -0.321 N 
HETATM   20  C   UNL     1       2.439  29.456  50.934  1.00  0.00     0.159 C 
HETATM   21  O   UNL     1       6.062  29.807  51.185  1.00  0.00    -0.271 OA
BRANCH  19  22
HETATM   22  C   UNL     1       4.040  30.167  49.176  1.00  0.00     0.037 A 
HETATM   23  C   UNL     1       4.021  31.547  48.914  1.00  0.00     0.036 A 
HETATM   24  C   UNL     1       4.233  32.066  47.624  1.00  0.00    -0.060 A 
HETATM   25  C   UNL     1       4.199  33.546  47.379  1.00  0.00     0.048 C 
HETATM   26  C   UNL     1       4.490  31.189  46.570  1.00  0.00     0.007 A 
HETATM   27  C   UNL     1       4.534  29.820  46.803  1.00  0.00     0.003 A 
HETATM   28  C   UNL     1       4.314  29.316  48.090  1.00  0.00     0.030 A 
ENDBRANCH  19  22
ENDBRANCH  17  18
ENDBRANCH   1  17
TORSDOF 3
ENDMDL
