MODEL 1
REMARK VINA RESULT:     -10.0      0.000      0.000
REMARK  9 active torsions:
REMARK  status: ('A' for Active; 'I' for Inactive)
REMARK    1  A    between atoms: O_2  and  C_3 
REMARK    2  A    between atoms: C_4  and  O_5 
REMARK    3  A    between atoms: O_5  and  C_6 
REMARK    4  A    between atoms: C_6  and  C_7 
REMARK    5  A    between atoms: C_7  and  C_8 
REMARK    6  A    between atoms: C_8  and  C_9 
REMARK    7  A    between atoms: C_9  and  N_10 
REMARK       I    between atoms: N_10  and  C_11 
REMARK    8  A    between atoms: C_11  and  C_12 
REMARK    9  A    between atoms: C_16  and  C_17 
ROOT
HETATM    1  N   UNL     1       7.830  29.388  58.326  1.00  0.00    -0.345 N 
HETATM    2  C   UNL     1       8.677  30.326  58.858  1.00  0.00     0.270 C 
HETATM    3  O   UNL     1       9.628  30.784  58.234  1.00  0.00    -0.266 OA
HETATM    4  H   UNL     1       7.122  28.961  58.902  1.00  0.00     0.163 HD
ENDROOT
BRANCH   2   5
HETATM    5  C   UNL     1       8.378  30.732  60.205  1.00  0.00     0.120 A 
HETATM    6  N   UNL     1       8.990  30.152  61.280  1.00  0.00    -0.272 N 
HETATM    7  H   UNL     1       9.686  29.412  61.256  1.00  0.00     0.189 HD
HETATM    8  N   UNL     1       8.604  30.645  62.465  1.00  0.00    -0.174 NA
HETATM    9  C   UNL     1       7.705  31.595  62.167  1.00  0.00     0.089 A 
HETATM   10  C   UNL     1       7.534  31.677  60.755  1.00  0.00     0.071 A 
BRANCH   9  11
HETATM   11  C   UNL     1       7.047  32.389  63.214  1.00  0.00    -0.003 A 
HETATM   12  C   UNL     1       5.649  32.523  63.251  1.00  0.00     0.053 A 
HETATM   13  C   UNL     1       5.090  33.286  64.258  1.00  0.00     0.106 A 
HETATM   14  C   UNL     1       5.856  33.908  65.214  1.00  0.00     0.105 A 
HETATM   15  O   UNL     1       3.760  33.513  64.431  1.00  0.00    -0.323 OA
HETATM   16  O   UNL     1       5.108  34.606  66.107  1.00  0.00    -0.323 OA
HETATM   17  C   UNL     1       7.228  33.804  65.217  1.00  0.00     0.040 A 
HETATM   18  C   UNL     1       3.779  34.354  65.605  1.00  0.00     0.352 A 
HETATM   19  C   UNL     1       7.822  33.037  64.208  1.00  0.00     0.017 A 
ENDBRANCH   9  11
ENDBRANCH   2   5
BRANCH   1  20
HETATM   20  C   UNL     1       8.056  28.859  57.008  1.00  0.00     0.217 C 
BRANCH  20  21
HETATM   21  C   UNL     1       8.162  27.345  57.090  1.00  0.00    -0.085 C 
BRANCH  21  22
HETATM   22  C   UNL     1       8.251  26.046  57.160  1.00  0.00    -0.078 C 
BRANCH  22  23
HETATM   23  C   UNL     1       8.356  24.531  57.243  1.00  0.00     0.269 C 
BRANCH  23  24
HETATM   24  O   UNL     1       7.315  23.914  56.487  1.00  0.00    -0.337 OA
BRANCH  24  25
HETATM   25  C   UNL     1       7.673  23.006  55.525  1.00  0.00     0.103 A 
HETATM   26  C   UNL     1       7.945  23.482  54.231  1.00  0.00     0.101 A 
HETATM   27  C   UNL     1       8.211  22.574  53.197  1.00  0.00     0.039 A 
HETATM   28  C   UNL     1       8.238  21.202  53.440  1.00  0.00     0.003 A 
HETATM   29  C   UNL     1       7.980  20.726  54.720  1.00  0.00     0.003 A 
HETATM   30  C   UNL     1       7.689  21.622  55.754  1.00  0.00     0.040 A 
BRANCH  26  31
HETATM   31  O   UNL     1       7.945  24.789  53.815  1.00  0.00    -0.353 OA
HETATM   32  C   UNL     1       7.960  25.009  52.410  1.00  0.00     0.210 C 
ENDBRANCH  26  31
ENDBRANCH  24  25
ENDBRANCH  23  24
ENDBRANCH  22  23
ENDBRANCH  21  22
ENDBRANCH  20  21
ENDBRANCH   1  20
TORSDOF 9
ENDMDL
MODEL 2
REMARK VINA RESULT:      -9.9      0.775      1.691
REMARK  9 active torsions:
REMARK  status: ('A' for Active; 'I' for Inactive)
REMARK    1  A    between atoms: O_2  and  C_3 
REMARK    2  A    between atoms: C_4  and  O_5 
REMARK    3  A    between atoms: O_5  and  C_6 
REMARK    4  A    between atoms: C_6  and  C_7 
REMARK    5  A    between atoms: C_7  and  C_8 
REMARK    6  A    between atoms: C_8  and  C_9 
REMARK    7  A    between atoms: C_9  and  N_10 
REMARK       I    between atoms: N_10  and  C_11 
REMARK    8  A    between atoms: C_11  and  C_12 
REMARK    9  A    between atoms: C_16  and  C_17 
ROOT
HETATM    1  N   UNL     1       7.491  29.568  58.389  1.00  0.00    -0.345 N 
HETATM    2  C   UNL     1       8.401  30.447  58.916  1.00  0.00     0.270 C 
HETATM    3  O   UNL     1       9.362  30.863  58.277  1.00  0.00    -0.266 OA
HETATM    4  H   UNL     1       6.773  29.171  58.974  1.00  0.00     0.163 HD
ENDROOT
BRANCH   2   5
HETATM    5  C   UNL     1       8.158  30.844  60.276  1.00  0.00     0.120 A 
HETATM    6  N   UNL     1       8.815  30.258  61.321  1.00  0.00    -0.272 N 
HETATM    7  H   UNL     1       9.509  29.519  61.264  1.00  0.00     0.189 HD
HETATM    8  N   UNL     1       8.477  30.742  62.525  1.00  0.00    -0.174 NA
HETATM    9  C   UNL     1       7.565  31.694  62.270  1.00  0.00     0.089 A 
HETATM   10  C   UNL     1       7.336  31.785  60.866  1.00  0.00     0.071 A 
BRANCH   9  11
HETATM   11  C   UNL     1       6.951  32.480  63.349  1.00  0.00    -0.003 A 
HETATM   12  C   UNL     1       5.557  32.629  63.432  1.00  0.00     0.053 A 
HETATM   13  C   UNL     1       5.039  33.384  64.467  1.00  0.00     0.106 A 
HETATM   14  C   UNL     1       5.843  33.985  65.406  1.00  0.00     0.105 A 
HETATM   15  O   UNL     1       3.718  33.624  64.685  1.00  0.00    -0.323 OA
HETATM   16  O   UNL     1       5.131  34.679  66.332  1.00  0.00    -0.323 OA
HETATM   17  C   UNL     1       7.212  33.865  65.364  1.00  0.00     0.040 A 
HETATM   18  C   UNL     1       3.784  34.448  65.869  1.00  0.00     0.352 A 
HETATM   19  C   UNL     1       7.765  33.106  64.325  1.00  0.00     0.017 A 
ENDBRANCH   9  11
ENDBRANCH   2   5
BRANCH   1  20
HETATM   20  C   UNL     1       7.655  29.052  57.057  1.00  0.00     0.217 C 
BRANCH  20  21
HETATM   21  C   UNL     1       7.910  27.555  57.130  1.00  0.00    -0.085 C 
BRANCH  21  22
HETATM   22  C   UNL     1       8.130  26.272  57.194  1.00  0.00    -0.078 C 
BRANCH  22  23
HETATM   23  C   UNL     1       8.386  24.774  57.268  1.00  0.00     0.269 C 
BRANCH  23  24
HETATM   24  O   UNL     1       7.265  24.048  56.765  1.00  0.00    -0.337 OA
BRANCH  24  25
HETATM   25  C   UNL     1       7.376  23.476  55.525  1.00  0.00     0.103 A 
HETATM   26  C   UNL     1       7.844  22.152  55.443  1.00  0.00     0.101 A 
HETATM   27  C   UNL     1       8.070  21.571  54.188  1.00  0.00     0.039 A 
HETATM   28  C   UNL     1       7.812  22.277  53.015  1.00  0.00     0.003 A 
HETATM   29  C   UNL     1       7.340  23.583  53.090  1.00  0.00     0.003 A 
HETATM   30  C   UNL     1       7.134  24.182  54.337  1.00  0.00     0.040 A 
BRANCH  26  31
HETATM   31  O   UNL     1       8.163  21.323  56.488  1.00  0.00    -0.353 OA
HETATM   32  C   UNL     1       9.184  20.364  56.249  1.00  0.00     0.210 C 
ENDBRANCH  26  31
ENDBRANCH  24  25
ENDBRANCH  23  24
ENDBRANCH  22  23
ENDBRANCH  21  22
ENDBRANCH  20  21
ENDBRANCH   1  20
TORSDOF 9
ENDMDL
MODEL 3
REMARK VINA RESULT:      -9.8      1.258      2.330
REMARK  9 active torsions:
REMARK  status: ('A' for Active; 'I' for Inactive)
REMARK    1  A    between atoms: O_2  and  C_3 
REMARK    2  A    between atoms: C_4  and  O_5 
REMARK    3  A    between atoms: O_5  and  C_6 
REMARK    4  A    between atoms: C_6  and  C_7 
REMARK    5  A    between atoms: C_7  and  C_8 
REMARK    6  A    between atoms: C_8  and  C_9 
REMARK    7  A    between atoms: C_9  and  N_10 
REMARK       I    between atoms: N_10  and  C_11 
REMARK    8  A    between atoms: C_11  and  C_12 
REMARK    9  A    between atoms: C_16  and  C_17 
ROOT
HETATM    1  N   UNL     1       9.581  30.090  58.306  1.00  0.00    -0.345 N 
HETATM    2  C   UNL     1       9.644  31.323  58.900  1.00  0.00     0.270 C 
HETATM    3  O   UNL     1      10.234  32.271  58.392  1.00  0.00    -0.266 OA
HETATM    4  H   UNL     1       9.175  29.310  58.799  1.00  0.00     0.163 HD
ENDROOT
BRANCH   2   5
HETATM    5  C   UNL     1       8.975  31.431  60.169  1.00  0.00     0.120 A 
HETATM    6  N   UNL     1       8.900  30.373  61.030  1.00  0.00    -0.272 N 
HETATM    7  H   UNL     1       9.284  29.444  60.885  1.00  0.00     0.189 HD
HETATM    8  N   UNL     1       8.246  30.637  62.171  1.00  0.00    -0.174 NA
HETATM    9  C   UNL     1       7.879  31.924  62.067  1.00  0.00     0.089 A 
HETATM   10  C   UNL     1       8.317  32.456  60.820  1.00  0.00     0.071 A 
BRANCH   9  11
HETATM   11  C   UNL     1       7.138  32.601  63.140  1.00  0.00    -0.003 A 
HETATM   12  C   UNL     1       5.740  32.733  63.083  1.00  0.00     0.053 A 
HETATM   13  C   UNL     1       5.100  33.384  64.120  1.00  0.00     0.106 A 
HETATM   14  C   UNL     1       5.787  33.899  65.193  1.00  0.00     0.105 A 
HETATM   15  O   UNL     1       3.760  33.594  64.213  1.00  0.00    -0.323 OA
HETATM   16  O   UNL     1       4.967  34.498  66.096  1.00  0.00    -0.323 OA
HETATM   17  C   UNL     1       7.154  33.791  65.291  1.00  0.00     0.040 A 
HETATM   18  C   UNL     1       3.683  34.304  65.468  1.00  0.00     0.352 A 
HETATM   19  C   UNL     1       7.830  33.136  64.254  1.00  0.00     0.017 A 
ENDBRANCH   9  11
ENDBRANCH   2   5
BRANCH   1  20
HETATM   20  C   UNL     1      10.258  29.839  57.062  1.00  0.00     0.217 C 
BRANCH  20  21
HETATM   21  C   UNL     1       9.271  29.251  56.067  1.00  0.00    -0.085 C 
BRANCH  21  22
HETATM   22  C   UNL     1       8.425  28.747  55.213  1.00  0.00    -0.078 C 
BRANCH  22  23
HETATM   23  C   UNL     1       7.438  28.158  54.217  1.00  0.00     0.269 C 
BRANCH  23  24
HETATM   24  O   UNL     1       6.847  26.969  54.739  1.00  0.00    -0.337 OA
BRANCH  24  25
HETATM   25  C   UNL     1       7.195  25.775  54.165  1.00  0.00     0.103 A 
HETATM   26  C   UNL     1       7.436  24.676  55.008  1.00  0.00     0.101 A 
HETATM   27  C   UNL     1       7.895  23.469  54.465  1.00  0.00     0.039 A 
HETATM   28  C   UNL     1       8.091  23.331  53.093  1.00  0.00     0.003 A 
HETATM   29  C   UNL     1       7.845  24.410  52.252  1.00  0.00     0.003 A 
HETATM   30  C   UNL     1       7.409  25.628  52.786  1.00  0.00     0.040 A 
BRANCH  26  31
HETATM   31  O   UNL     1       7.311  24.641  56.374  1.00  0.00    -0.353 OA
HETATM   32  C   UNL     1       8.404  25.156  57.124  1.00  0.00     0.210 C 
ENDBRANCH  26  31
ENDBRANCH  24  25
ENDBRANCH  23  24
ENDBRANCH  22  23
ENDBRANCH  21  22
ENDBRANCH  20  21
ENDBRANCH   1  20
TORSDOF 9
ENDMDL
MODEL 4
REMARK VINA RESULT:      -9.1      4.509     10.842
REMARK  9 active torsions:
REMARK  status: ('A' for Active; 'I' for Inactive)
REMARK    1  A    between atoms: O_2  and  C_3 
REMARK    2  A    between atoms: C_4  and  O_5 
REMARK    3  A    between atoms: O_5  and  C_6 
REMARK    4  A    between atoms: C_6  and  C_7 
REMARK    5  A    between atoms: C_7  and  C_8 
REMARK    6  A    between atoms: C_8  and  C_9 
REMARK    7  A    between atoms: C_9  and  N_10 
REMARK       I    between atoms: N_10  and  C_11 
REMARK    8  A    between atoms: C_11  and  C_12 
REMARK    9  A    between atoms: C_16  and  C_17 
ROOT
HETATM    1  N   UNL     1       4.091  28.497  55.644  1.00  0.00    -0.345 N 
HETATM    2  C   UNL     1       4.673  28.274  54.423  1.00  0.00     0.270 C 
HETATM    3  O   UNL     1       4.830  29.166  53.596  1.00  0.00    -0.266 OA
HETATM    4  H   UNL     1       3.887  27.724  56.257  1.00  0.00     0.163 HD
ENDROOT
BRANCH   2   5
HETATM    5  C   UNL     1       5.081  26.918  54.174  1.00  0.00     0.120 A 
HETATM    6  N   UNL     1       4.406  26.118  53.297  1.00  0.00    -0.272 N 
HETATM    7  H   UNL     1       3.587  26.370  52.752  1.00  0.00     0.189 HD
HETATM    8  N   UNL     1       4.915  24.883  53.175  1.00  0.00    -0.174 NA
HETATM    9  C   UNL     1       5.975  24.865  53.998  1.00  0.00     0.089 A 
HETATM   10  C   UNL     1       6.110  26.126  54.646  1.00  0.00     0.071 A 
BRANCH   9  11
HETATM   11  C   UNL     1       6.819  23.670  54.139  1.00  0.00    -0.003 A 
HETATM   12  C   UNL     1       7.149  23.162  55.407  1.00  0.00     0.053 A 
HETATM   13  C   UNL     1       7.950  22.039  55.475  1.00  0.00     0.106 A 
HETATM   14  C   UNL     1       8.425  21.412  54.349  1.00  0.00     0.105 A 
HETATM   15  O   UNL     1       8.357  21.428  56.620  1.00  0.00    -0.323 OA
HETATM   16  O   UNL     1       9.193  20.329  54.641  1.00  0.00    -0.323 OA
HETATM   17  C   UNL     1       8.127  21.873  53.088  1.00  0.00     0.040 A 
HETATM   18  C   UNL     1       9.148  20.346  56.083  1.00  0.00     0.352 A 
HETATM   19  C   UNL     1       7.317  23.011  52.988  1.00  0.00     0.017 A 
ENDBRANCH   9  11
ENDBRANCH   2   5
BRANCH   1  20
HETATM   20  C   UNL     1       3.589  29.799  55.991  1.00  0.00     0.217 C 
BRANCH  20  21
HETATM   21  C   UNL     1       4.571  30.479  56.931  1.00  0.00    -0.085 C 
BRANCH  21  22
HETATM   22  C   UNL     1       5.414  31.063  57.737  1.00  0.00    -0.078 C 
BRANCH  22  23
HETATM   23  C   UNL     1       6.397  31.744  58.676  1.00  0.00     0.269 C 
BRANCH  23  24
HETATM   24  O   UNL     1       7.319  30.795  59.212  1.00  0.00    -0.337 OA
BRANCH  24  25
HETATM   25  C   UNL     1       8.389  30.433  58.436  1.00  0.00     0.103 A 
HETATM   26  C   UNL     1       8.359  29.175  57.808  1.00  0.00     0.101 A 
HETATM   27  C   UNL     1       9.479  28.728  57.094  1.00  0.00     0.039 A 
HETATM   28  C   UNL     1      10.615  29.524  56.973  1.00  0.00     0.003 A 
HETATM   29  C   UNL     1      10.647  30.772  57.584  1.00  0.00     0.003 A 
HETATM   30  C   UNL     1       9.545  31.219  58.320  1.00  0.00     0.040 A 
BRANCH  26  31
HETATM   31  O   UNL     1       7.336  28.262  57.837  1.00  0.00    -0.353 OA
HETATM   32  C   UNL     1       7.700  26.896  57.685  1.00  0.00     0.210 C 
ENDBRANCH  26  31
ENDBRANCH  24  25
ENDBRANCH  23  24
ENDBRANCH  22  23
ENDBRANCH  21  22
ENDBRANCH  20  21
ENDBRANCH   1  20
TORSDOF 9
ENDMDL
MODEL 5
REMARK VINA RESULT:      -9.1      3.783     11.595
REMARK  9 active torsions:
REMARK  status: ('A' for Active; 'I' for Inactive)
REMARK    1  A    between atoms: O_2  and  C_3 
REMARK    2  A    between atoms: C_4  and  O_5 
REMARK    3  A    between atoms: O_5  and  C_6 
REMARK    4  A    between atoms: C_6  and  C_7 
REMARK    5  A    between atoms: C_7  and  C_8 
REMARK    6  A    between atoms: C_8  and  C_9 
REMARK    7  A    between atoms: C_9  and  N_10 
REMARK       I    between atoms: N_10  and  C_11 
REMARK    8  A    between atoms: C_11  and  C_12 
REMARK    9  A    between atoms: C_16  and  C_17 
ROOT
HETATM    1  N   UNL     1       4.499  28.467  55.774  1.00  0.00    -0.345 N 
HETATM    2  C   UNL     1       4.912  28.300  54.477  1.00  0.00     0.270 C 
HETATM    3  O   UNL     1       4.563  29.051  53.573  1.00  0.00    -0.266 OA
HETATM    4  H   UNL     1       4.724  27.774  56.470  1.00  0.00     0.163 HD
ENDROOT
BRANCH   2   5
HETATM    5  C   UNL     1       5.780  27.177  54.247  1.00  0.00     0.120 A 
HETATM    6  N   UNL     1       6.975  27.316  53.600  1.00  0.00    -0.272 N 
HETATM    7  H   UNL     1       7.367  28.177  53.227  1.00  0.00     0.189 HD
HETATM    8  N   UNL     1       7.666  26.175  53.467  1.00  0.00    -0.174 NA
HETATM    9  C   UNL     1       6.903  25.241  54.057  1.00  0.00     0.089 A 
HETATM   10  C   UNL     1       5.708  25.833  54.557  1.00  0.00     0.071 A 
BRANCH   9  11
HETATM   11  C   UNL     1       7.328  23.836  54.131  1.00  0.00    -0.003 A 
HETATM   12  C   UNL     1       7.506  23.198  55.371  1.00  0.00     0.053 A 
HETATM   13  C   UNL     1       7.911  21.878  55.376  1.00  0.00     0.106 A 
HETATM   14  C   UNL     1       8.141  21.180  54.216  1.00  0.00     0.105 A 
HETATM   15  O   UNL     1       8.127  21.123  56.487  1.00  0.00    -0.323 OA
HETATM   16  O   UNL     1       8.532  19.899  54.447  1.00  0.00    -0.323 OA
HETATM   17  C   UNL     1       7.979  21.763  52.981  1.00  0.00     0.040 A 
HETATM   18  C   UNL     1       8.523  19.869  55.890  1.00  0.00     0.352 A 
HETATM   19  C   UNL     1       7.570  23.101  52.944  1.00  0.00     0.017 A 
ENDBRANCH   9  11
ENDBRANCH   2   5
BRANCH   1  20
HETATM   20  C   UNL     1       3.584  29.520  56.123  1.00  0.00     0.217 C 
BRANCH  20  21
HETATM   21  C   UNL     1       4.312  30.554  56.966  1.00  0.00    -0.085 C 
BRANCH  21  22
HETATM   22  C   UNL     1       4.937  31.441  57.689  1.00  0.00    -0.078 C 
BRANCH  22  23
HETATM   23  C   UNL     1       5.666  32.475  58.533  1.00  0.00     0.269 C 
BRANCH  23  24
HETATM   24  O   UNL     1       7.066  32.199  58.566  1.00  0.00    -0.337 OA
BRANCH  24  25
HETATM   25  C   UNL     1       7.675  32.124  59.791  1.00  0.00     0.103 A 
HETATM   26  C   UNL     1       9.080  32.155  59.838  1.00  0.00     0.101 A 
HETATM   27  C   UNL     1       9.740  31.975  61.061  1.00  0.00     0.039 A 
HETATM   28  C   UNL     1       9.022  31.792  62.241  1.00  0.00     0.003 A 
HETATM   29  C   UNL     1       7.633  31.770  62.202  1.00  0.00     0.003 A 
HETATM   30  C   UNL     1       6.964  31.924  60.984  1.00  0.00     0.040 A 
BRANCH  26  31
HETATM   31  O   UNL     1       9.938  32.308  58.778  1.00  0.00    -0.353 OA
HETATM   32  C   UNL     1      10.289  31.127  58.069  1.00  0.00     0.210 C 
ENDBRANCH  26  31
ENDBRANCH  24  25
ENDBRANCH  23  24
ENDBRANCH  22  23
ENDBRANCH  21  22
ENDBRANCH  20  21
ENDBRANCH   1  20
TORSDOF 9
ENDMDL
MODEL 6
REMARK VINA RESULT:      -8.9      2.701     12.046
REMARK  9 active torsions:
REMARK  status: ('A' for Active; 'I' for Inactive)
REMARK    1  A    between atoms: O_2  and  C_3 
REMARK    2  A    between atoms: C_4  and  O_5 
REMARK    3  A    between atoms: O_5  and  C_6 
REMARK    4  A    between atoms: C_6  and  C_7 
REMARK    5  A    between atoms: C_7  and  C_8 
REMARK    6  A    between atoms: C_8  and  C_9 
REMARK    7  A    between atoms: C_9  and  N_10 
REMARK       I    between atoms: N_10  and  C_11 
REMARK    8  A    between atoms: C_11  and  C_12 
REMARK    9  A    between atoms: C_16  and  C_17 
ROOT
HETATM    1  N   UNL     1       5.836  29.761  56.734  1.00  0.00    -0.345 N 
HETATM    2  C   UNL     1       4.801  28.914  56.435  1.00  0.00     0.270 C 
HETATM    3  O   UNL     1       3.636  29.292  56.379  1.00  0.00    -0.266 OA
HETATM    4  H   UNL     1       6.766  29.396  56.870  1.00  0.00     0.163 HD
ENDROOT
BRANCH   2   5
HETATM    5  C   UNL     1       5.174  27.545  56.196  1.00  0.00     0.120 A 
HETATM    6  N   UNL     1       4.679  26.526  56.959  1.00  0.00    -0.272 N 
HETATM    7  H   UNL     1       4.031  26.609  57.737  1.00  0.00     0.189 HD
HETATM    8  N   UNL     1       5.122  25.310  56.607  1.00  0.00    -0.174 NA
HETATM    9  C   UNL     1       5.937  25.530  55.563  1.00  0.00     0.089 A 
HETATM   10  C   UNL     1       5.997  26.924  55.278  1.00  0.00     0.071 A 
BRANCH   9  11
HETATM   11  C   UNL     1       6.621  24.426  54.876  1.00  0.00    -0.003 A 
HETATM   12  C   UNL     1       7.083  23.305  55.587  1.00  0.00     0.053 A 
HETATM   13  C   UNL     1       7.722  22.302  54.885  1.00  0.00     0.106 A 
HETATM   14  C   UNL     1       7.915  22.369  53.526  1.00  0.00     0.105 A 
HETATM   15  O   UNL     1       8.226  21.159  55.424  1.00  0.00    -0.323 OA
HETATM   16  O   UNL     1       8.564  21.280  53.038  1.00  0.00    -0.323 OA
HETATM   17  C   UNL     1       7.479  23.446  52.790  1.00  0.00     0.040 A 
HETATM   18  C   UNL     1       8.761  20.517  54.246  1.00  0.00     0.352 A 
HETATM   19  C   UNL     1       6.827  24.479  53.475  1.00  0.00     0.017 A 
ENDBRANCH   9  11
ENDBRANCH   2   5
BRANCH   1  20
HETATM   20  C   UNL     1       5.587  31.142  57.049  1.00  0.00     0.217 C 
BRANCH  20  21
HETATM   21  C   UNL     1       6.380  31.522  58.289  1.00  0.00    -0.085 C 
BRANCH  21  22
HETATM   22  C   UNL     1       7.060  31.847  59.353  1.00  0.00    -0.078 C 
BRANCH  22  23
HETATM   23  C   UNL     1       7.854  32.226  60.593  1.00  0.00     0.269 C 
BRANCH  23  24
HETATM   24  O   UNL     1       7.423  31.461  61.718  1.00  0.00    -0.337 OA
BRANCH  24  25
HETATM   25  C   UNL     1       7.008  32.140  62.834  1.00  0.00     0.103 A 
HETATM   26  C   UNL     1       5.626  32.292  63.045  1.00  0.00     0.101 A 
HETATM   27  C   UNL     1       5.167  33.070  64.117  1.00  0.00     0.039 A 
HETATM   28  C   UNL     1       6.062  33.674  64.997  1.00  0.00     0.003 A 
HETATM   29  C   UNL     1       7.429  33.520  64.799  1.00  0.00     0.003 A 
HETATM   30  C   UNL     1       7.900  32.766  63.719  1.00  0.00     0.040 A 
BRANCH  26  31
HETATM   31  O   UNL     1       4.613  31.784  62.273  1.00  0.00    -0.353 OA
HETATM   32  C   UNL     1       3.863  32.721  61.511  1.00  0.00     0.210 C 
ENDBRANCH  26  31
ENDBRANCH  24  25
ENDBRANCH  23  24
ENDBRANCH  22  23
ENDBRANCH  21  22
ENDBRANCH  20  21
ENDBRANCH   1  20
TORSDOF 9
ENDMDL
MODEL 7
REMARK VINA RESULT:      -8.7      2.308      3.935
REMARK  9 active torsions:
REMARK  status: ('A' for Active; 'I' for Inactive)
REMARK    1  A    between atoms: O_2  and  C_3 
REMARK    2  A    between atoms: C_4  and  O_5 
REMARK    3  A    between atoms: O_5  and  C_6 
REMARK    4  A    between atoms: C_6  and  C_7 
REMARK    5  A    between atoms: C_7  and  C_8 
REMARK    6  A    between atoms: C_8  and  C_9 
REMARK    7  A    between atoms: C_9  and  N_10 
REMARK       I    between atoms: N_10  and  C_11 
REMARK    8  A    between atoms: C_11  and  C_12 
REMARK    9  A    between atoms: C_16  and  C_17 
ROOT
HETATM    1  N   UNL     1       7.046  28.607  54.279  1.00  0.00    -0.345 N 
HETATM    2  C   UNL     1       6.357  28.635  55.464  1.00  0.00     0.270 C 
HETATM    3  O   UNL     1       5.213  28.206  55.571  1.00  0.00    -0.266 OA
HETATM    4  H   UNL     1       7.944  29.059  54.205  1.00  0.00     0.163 HD
ENDROOT
BRANCH   2   5
HETATM    5  C   UNL     1       7.066  29.210  56.575  1.00  0.00     0.120 A 
HETATM    6  N   UNL     1       8.428  29.305  56.583  1.00  0.00    -0.272 N 
HETATM    7  H   UNL     1       9.062  29.000  55.850  1.00  0.00     0.189 HD
HETATM    8  N   UNL     1       8.935  29.867  57.690  1.00  0.00    -0.174 NA
HETATM    9  C   UNL     1       7.865  30.164  58.445  1.00  0.00     0.089 A 
HETATM   10  C   UNL     1       6.672  29.763  57.778  1.00  0.00     0.071 A 
BRANCH   9  11
HETATM   11  C   UNL     1       8.005  30.815  59.755  1.00  0.00    -0.003 A 
HETATM   12  C   UNL     1       7.016  31.687  60.240  1.00  0.00     0.053 A 
HETATM   13  C   UNL     1       7.207  32.272  61.477  1.00  0.00     0.106 A 
HETATM   14  C   UNL     1       8.324  32.024  62.237  1.00  0.00     0.105 A 
HETATM   15  O   UNL     1       6.349  33.136  62.082  1.00  0.00    -0.323 OA
HETATM   16  O   UNL     1       8.312  32.700  63.416  1.00  0.00    -0.323 OA
HETATM   17  C   UNL     1       9.317  31.176  61.804  1.00  0.00     0.040 A 
HETATM   18  C   UNL     1       7.058  33.406  63.311  1.00  0.00     0.352 A 
HETATM   19  C   UNL     1       9.150  30.569  60.553  1.00  0.00     0.017 A 
ENDBRANCH   9  11
ENDBRANCH   2   5
BRANCH   1  20
HETATM   20  C   UNL     1       6.425  28.110  53.081  1.00  0.00     0.217 C 
BRANCH  20  21
HETATM   21  C   UNL     1       6.844  26.664  52.866  1.00  0.00    -0.085 C 
BRANCH  21  22
HETATM   22  C   UNL     1       7.203  25.425  52.682  1.00  0.00    -0.078 C 
BRANCH  22  23
HETATM   23  C   UNL     1       7.623  23.979  52.466  1.00  0.00     0.269 C 
BRANCH  23  24
HETATM   24  O   UNL     1       8.687  23.628  53.351  1.00  0.00    -0.337 OA
BRANCH  24  25
HETATM   25  C   UNL     1       8.456  22.638  54.270  1.00  0.00     0.103 A 
HETATM   26  C   UNL     1       8.515  22.971  55.635  1.00  0.00     0.101 A 
HETATM   27  C   UNL     1       8.389  21.966  56.603  1.00  0.00     0.039 A 
HETATM   28  C   UNL     1       8.176  20.640  56.233  1.00  0.00     0.003 A 
HETATM   29  C   UNL     1       8.106  20.306  54.886  1.00  0.00     0.003 A 
HETATM   30  C   UNL     1       8.255  21.297  53.910  1.00  0.00     0.040 A 
BRANCH  26  31
HETATM   31  O   UNL     1       8.732  24.215  56.172  1.00  0.00    -0.353 OA
HETATM   32  C   UNL     1       7.579  25.003  56.435  1.00  0.00     0.210 C 
ENDBRANCH  26  31
ENDBRANCH  24  25
ENDBRANCH  23  24
ENDBRANCH  22  23
ENDBRANCH  21  22
ENDBRANCH  20  21
ENDBRANCH   1  20
TORSDOF 9
ENDMDL
MODEL 8
REMARK VINA RESULT:      -8.7      2.528     11.916
REMARK  9 active torsions:
REMARK  status: ('A' for Active; 'I' for Inactive)
REMARK    1  A    between atoms: O_2  and  C_3 
REMARK    2  A    between atoms: C_4  and  O_5 
REMARK    3  A    between atoms: O_5  and  C_6 
REMARK    4  A    between atoms: C_6  and  C_7 
REMARK    5  A    between atoms: C_7  and  C_8 
REMARK    6  A    between atoms: C_8  and  C_9 
REMARK    7  A    between atoms: C_9  and  N_10 
REMARK       I    between atoms: N_10  and  C_11 
REMARK    8  A    between atoms: C_11  and  C_12 
REMARK    9  A    between atoms: C_16  and  C_17 
ROOT
HETATM    1  N   UNL     1       4.387  29.652  57.493  1.00  0.00    -0.345 N 
HETATM    2  C   UNL     1       4.998  29.279  56.324  1.00  0.00     0.270 C 
HETATM    3  O   UNL     1       4.871  29.913  55.282  1.00  0.00    -0.266 OA
HETATM    4  H   UNL     1       4.432  29.052  58.302  1.00  0.00     0.163 HD
ENDROOT
BRANCH   2   5
HETATM    5  C   UNL     1       5.797  28.085  56.400  1.00  0.00     0.120 A 
HETATM    6  N   UNL     1       6.626  27.845  57.459  1.00  0.00    -0.272 N 
HETATM    7  H   UNL     1       6.768  28.445  58.267  1.00  0.00     0.189 HD
HETATM    8  N   UNL     1       7.299  26.689  57.380  1.00  0.00    -0.174 NA
HETATM    9  C   UNL     1       6.896  26.134  56.226  1.00  0.00     0.089 A 
HETATM   10  C   UNL     1       5.953  26.984  55.581  1.00  0.00     0.071 A 
BRANCH   9  11
HETATM   11  C   UNL     1       7.405  24.829  55.780  1.00  0.00    -0.003 A 
HETATM   12  C   UNL     1       7.065  24.312  54.519  1.00  0.00     0.053 A 
HETATM   13  C   UNL     1       7.571  23.078  54.158  1.00  0.00     0.106 A 
HETATM   14  C   UNL     1       8.391  22.354  54.990  1.00  0.00     0.105 A 
HETATM   15  O   UNL     1       7.336  22.443  52.979  1.00  0.00    -0.323 OA
HETATM   16  O   UNL     1       8.774  21.171  54.441  1.00  0.00    -0.323 OA
HETATM   17  C   UNL     1       8.751  22.822  56.232  1.00  0.00     0.040 A 
HETATM   18  C   UNL     1       8.101  21.232  53.167  1.00  0.00     0.352 A 
HETATM   19  C   UNL     1       8.252  24.070  56.625  1.00  0.00     0.017 A 
ENDBRANCH   9  11
ENDBRANCH   2   5
BRANCH   1  20
HETATM   20  C   UNL     1       3.515  30.795  57.533  1.00  0.00     0.217 C 
BRANCH  20  21
HETATM   21  C   UNL     1       3.537  31.390  58.931  1.00  0.00    -0.085 C 
BRANCH  21  22
HETATM   22  C   UNL     1       3.556  31.900  60.131  1.00  0.00    -0.078 C 
BRANCH  22  23
HETATM   23  C   UNL     1       3.578  32.496  61.530  1.00  0.00     0.269 C 
BRANCH  23  24
HETATM   24  O   UNL     1       4.249  31.623  62.437  1.00  0.00    -0.337 OA
BRANCH  24  25
HETATM   25  C   UNL     1       5.471  32.014  62.917  1.00  0.00     0.103 A 
HETATM   26  C   UNL     1       5.512  32.743  64.119  1.00  0.00     0.101 A 
HETATM   27  C   UNL     1       6.733  33.249  64.585  1.00  0.00     0.039 A 
HETATM   28  C   UNL     1       7.916  33.017  63.888  1.00  0.00     0.003 A 
HETATM   29  C   UNL     1       7.884  32.288  62.704  1.00  0.00     0.003 A 
HETATM   30  C   UNL     1       6.668  31.799  62.217  1.00  0.00     0.040 A 
BRANCH  26  31
HETATM   31  O   UNL     1       4.448  33.076  64.918  1.00  0.00    -0.353 OA
HETATM   32  C   UNL     1       4.345  34.441  65.303  1.00  0.00     0.210 C 
ENDBRANCH  26  31
ENDBRANCH  24  25
ENDBRANCH  23  24
ENDBRANCH  22  23
ENDBRANCH  21  22
ENDBRANCH  20  21
ENDBRANCH   1  20
TORSDOF 9
ENDMDL
MODEL 9
REMARK VINA RESULT:      -8.7      6.734     10.908
REMARK  9 active torsions:
REMARK  status: ('A' for Active; 'I' for Inactive)
REMARK    1  A    between atoms: O_2  and  C_3 
REMARK    2  A    between atoms: C_4  and  O_5 
REMARK    3  A    between atoms: O_5  and  C_6 
REMARK    4  A    between atoms: C_6  and  C_7 
REMARK    5  A    between atoms: C_7  and  C_8 
REMARK    6  A    between atoms: C_8  and  C_9 
REMARK    7  A    between atoms: C_9  and  N_10 
REMARK       I    between atoms: N_10  and  C_11 
REMARK    8  A    between atoms: C_11  and  C_12 
REMARK    9  A    between atoms: C_16  and  C_17 
ROOT
HETATM    1  N   UNL     1       5.189  27.256  55.396  1.00  0.00    -0.345 N 
HETATM    2  C   UNL     1       6.084  27.784  54.503  1.00  0.00     0.270 C 
HETATM    3  O   UNL     1       7.219  28.117  54.826  1.00  0.00    -0.266 OA
HETATM    4  H   UNL     1       4.234  27.087  55.118  1.00  0.00     0.163 HD
ENDROOT
BRANCH   2   5
HETATM    5  C   UNL     1       5.599  27.927  53.156  1.00  0.00     0.120 A 
HETATM    6  N   UNL     1       5.975  28.978  52.369  1.00  0.00    -0.272 N 
HETATM    7  H   UNL     1       6.602  29.735  52.625  1.00  0.00     0.189 HD
HETATM    8  N   UNL     1       5.438  28.966  51.141  1.00  0.00    -0.174 NA
HETATM    9  C   UNL     1       4.680  27.858  51.108  1.00  0.00     0.089 A 
HETATM   10  C   UNL     1       4.754  27.180  52.359  1.00  0.00     0.071 A 
BRANCH   9  11
HETATM   11  C   UNL     1       3.923  27.479  49.906  1.00  0.00    -0.003 A 
HETATM   12  C   UNL     1       2.812  28.227  49.484  1.00  0.00     0.053 A 
HETATM   13  C   UNL     1       2.139  27.818  48.349  1.00  0.00     0.106 A 
HETATM   14  C   UNL     1       2.524  26.712  47.631  1.00  0.00     0.105 A 
HETATM   15  O   UNL     1       1.049  28.431  47.814  1.00  0.00    -0.323 OA
HETATM   16  O   UNL     1       1.726  26.487  46.554  1.00  0.00    -0.323 OA
HETATM   17  C   UNL     1       3.606  25.950  48.006  1.00  0.00     0.040 A 
HETATM   18  C   UNL     1       0.791  27.579  46.676  1.00  0.00     0.352 A 
HETATM   19  C   UNL     1       4.307  26.341  49.153  1.00  0.00     0.017 A 
ENDBRANCH   9  11
ENDBRANCH   2   5
BRANCH   1  20
HETATM   20  C   UNL     1       5.534  27.114  56.785  1.00  0.00     0.217 C 
BRANCH  20  21
HETATM   21  C   UNL     1       6.493  25.946  56.944  1.00  0.00    -0.085 C 
BRANCH  21  22
HETATM   22  C   UNL     1       7.315  24.943  57.080  1.00  0.00    -0.078 C 
BRANCH  22  23
HETATM   23  C   UNL     1       8.275  23.774  57.239  1.00  0.00     0.269 C 
BRANCH  23  24
HETATM   24  O   UNL     1       9.150  23.686  56.115  1.00  0.00    -0.337 OA
BRANCH  24  25
HETATM   25  C   UNL     1       8.805  22.836  55.098  1.00  0.00     0.103 A 
HETATM   26  C   UNL     1       8.259  23.388  53.926  1.00  0.00     0.101 A 
HETATM   27  C   UNL     1       7.797  22.543  52.908  1.00  0.00     0.039 A 
HETATM   28  C   UNL     1       7.896  21.158  53.028  1.00  0.00     0.003 A 
HETATM   29  C   UNL     1       8.444  20.607  54.180  1.00  0.00     0.003 A 
HETATM   30  C   UNL     1       8.886  21.440  55.213  1.00  0.00     0.040 A 
BRANCH  26  31
HETATM   31  O   UNL     1       8.072  24.719  53.650  1.00  0.00    -0.353 OA
HETATM   32  C   UNL     1       7.932  25.069  52.279  1.00  0.00     0.210 C 
ENDBRANCH  26  31
ENDBRANCH  24  25
ENDBRANCH  23  24
ENDBRANCH  22  23
ENDBRANCH  21  22
ENDBRANCH  20  21
ENDBRANCH   1  20
TORSDOF 9
ENDMDL
MODEL 10
REMARK VINA RESULT:      -8.7      1.316      1.773
REMARK  9 active torsions:
REMARK  status: ('A' for Active; 'I' for Inactive)
REMARK    1  A    between atoms: O_2  and  C_3 
REMARK    2  A    between atoms: C_4  and  O_5 
REMARK    3  A    between atoms: O_5  and  C_6 
REMARK    4  A    between atoms: C_6  and  C_7 
REMARK    5  A    between atoms: C_7  and  C_8 
REMARK    6  A    between atoms: C_8  and  C_9 
REMARK    7  A    between atoms: C_9  and  N_10 
REMARK       I    between atoms: N_10  and  C_11 
REMARK    8  A    between atoms: C_11  and  C_12 
REMARK    9  A    between atoms: C_16  and  C_17 
ROOT
HETATM    1  N   UNL     1       8.096  29.514  58.201  1.00  0.00    -0.345 N 
HETATM    2  C   UNL     1       8.607  30.658  58.758  1.00  0.00     0.270 C 
HETATM    3  O   UNL     1       9.745  31.052  58.526  1.00  0.00    -0.266 OA
HETATM    4  H   UNL     1       7.195  29.168  58.492  1.00  0.00     0.163 HD
ENDROOT
BRANCH   2   5
HETATM    5  C   UNL     1       7.718  31.364  59.641  1.00  0.00     0.120 A 
HETATM    6  N   UNL     1       6.596  31.988  59.178  1.00  0.00    -0.272 N 
HETATM    7  H   UNL     1       6.276  32.027  58.214  1.00  0.00     0.189 HD
HETATM    8  N   UNL     1       5.873  32.599  60.128  1.00  0.00    -0.174 NA
HETATM    9  C   UNL     1       6.538  32.363  61.270  1.00  0.00     0.089 A 
HETATM   10  C   UNL     1       7.706  31.592  61.004  1.00  0.00     0.071 A 
BRANCH   9  11
HETATM   11  C   UNL     1       6.050  32.866  62.562  1.00  0.00    -0.003 A 
HETATM   12  C   UNL     1       6.923  33.032  63.651  1.00  0.00     0.053 A 
HETATM   13  C   UNL     1       6.404  33.504  64.841  1.00  0.00     0.106 A 
HETATM   14  C   UNL     1       5.073  33.812  64.986  1.00  0.00     0.105 A 
HETATM   15  O   UNL     1       7.113  33.718  65.982  1.00  0.00    -0.323 OA
HETATM   16  O   UNL     1       4.775  34.257  66.235  1.00  0.00    -0.323 OA
HETATM   17  C   UNL     1       4.183  33.666  63.948  1.00  0.00     0.040 A 
HETATM   18  C   UNL     1       6.073  34.193  66.863  1.00  0.00     0.352 A 
HETATM   19  C   UNL     1       4.681  33.189  62.729  1.00  0.00     0.017 A 
ENDBRANCH   9  11
ENDBRANCH   2   5
BRANCH   1  20
HETATM   20  C   UNL     1       8.905  28.689  57.345  1.00  0.00     0.217 C 
BRANCH  20  21
HETATM   21  C   UNL     1       8.263  27.317  57.223  1.00  0.00    -0.085 C 
BRANCH  21  22
HETATM   22  C   UNL     1       7.712  26.140  57.118  1.00  0.00    -0.078 C 
BRANCH  22  23
HETATM   23  C   UNL     1       7.069  24.768  56.995  1.00  0.00     0.269 C 
BRANCH  23  24
HETATM   24  O   UNL     1       6.704  24.504  55.641  1.00  0.00    -0.337 OA
BRANCH  24  25
HETATM   25  C   UNL     1       7.228  23.389  55.041  1.00  0.00     0.103 A 
HETATM   26  C   UNL     1       7.293  23.358  53.637  1.00  0.00     0.101 A 
HETATM   27  C   UNL     1       7.724  22.194  52.986  1.00  0.00     0.039 A 
HETATM   28  C   UNL     1       8.118  21.072  53.712  1.00  0.00     0.003 A 
HETATM   29  C   UNL     1       8.065  21.101  55.101  1.00  0.00     0.003 A 
HETATM   30  C   UNL     1       7.613  22.248  55.761  1.00  0.00     0.040 A 
BRANCH  26  31
HETATM   31  O   UNL     1       6.932  24.359  52.771  1.00  0.00    -0.353 OA
HETATM   32  C   UNL     1       7.991  25.109  52.191  1.00  0.00     0.210 C 
ENDBRANCH  26  31
ENDBRANCH  24  25
ENDBRANCH  23  24
ENDBRANCH  22  23
ENDBRANCH  21  22
ENDBRANCH  20  21
ENDBRANCH   1  20
TORSDOF 9
ENDMDL
