MODEL 1
REMARK VINA RESULT:      -9.0      0.000      0.000
REMARK  11 active torsions:
REMARK  status: ('A' for Active; 'I' for Inactive)
REMARK    1  A    between atoms: C_2  and  C_3 
REMARK    2  A    between atoms: C_3  and  C_4 
REMARK    3  A    between atoms: C_4  and  O_5 
REMARK    4  A    between atoms: O_5  and  C_6 
REMARK    5  A    between atoms: C_9  and  C_10 
REMARK       I    between atoms: C_10  and  N_11 
REMARK    6  A    between atoms: N_11  and  C_12 
REMARK    7  A    between atoms: C_12  and  C_13 
REMARK       I    between atoms: C_13  and  N_14 
REMARK    8  A    between atoms: N_14  and  N_15 
REMARK    9  A    between atoms: C_16  and  C_17 
REMARK   10  A    between atoms: C_18  and  O_19 
REMARK   11  A    between atoms: C_21  and  O_22 
ROOT
HETATM    1  C   UNL     1       6.900  28.723  57.098  1.00  0.00     0.227 C 
ENDROOT
BRANCH   1   2
HETATM    2  N   UNL     1       7.013  29.454  58.356  1.00  0.00    -0.348 N 
HETATM    3  C   UNL     1       8.167  30.119  58.704  1.00  0.00     0.252 C 
HETATM    4  O   UNL     1       9.198  30.016  58.044  1.00  0.00    -0.268 OA
HETATM    5  H   UNL     1       6.152  29.650  58.849  1.00  0.00     0.163 HD
BRANCH   3   6
HETATM    6  C   UNL     1       8.143  30.942  59.942  1.00  0.00     0.032 A 
HETATM    7  C   UNL     1       7.157  31.907  60.181  1.00  0.00     0.020 A 
HETATM    8  C   UNL     1       7.131  32.596  61.400  1.00  0.00     0.038 A 
HETATM    9  C   UNL     1       8.075  32.311  62.387  1.00  0.00     0.068 A 
HETATM   10  C   UNL     1       9.080  31.378  62.133  1.00  0.00     0.038 A 
HETATM   11  C   UNL     1       9.110  30.686  60.920  1.00  0.00     0.020 A 
BRANCH   9  12
HETATM   12  O   UNL     1       8.113  32.885  63.628  1.00  0.00    -0.351 OA
BRANCH  12  13
HETATM   13  C   UNL     1       6.857  33.002  64.297  1.00  0.00     0.175 C 
BRANCH  13  14
HETATM   14  C   UNL     1       7.068  33.725  65.627  1.00  0.00     0.026 C 
BRANCH  14  15
HETATM   15  C   UNL     1       5.778  34.330  66.182  1.00  0.00    -0.002 C 
HETATM   16  C   UNL     1       4.562  33.820  65.423  1.00  0.00     0.005 C 
ENDBRANCH  14  15
ENDBRANCH  13  14
ENDBRANCH  12  13
ENDBRANCH   9  12
ENDBRANCH   3   6
ENDBRANCH   1   2
BRANCH   1  17
HETATM   17  C   UNL     1       7.292  27.241  57.179  1.00  0.00     0.255 C 
HETATM   18  N   UNL     1       6.738  26.465  56.174  1.00  0.00    -0.246 N 
HETATM   19  H   UNL     1       6.105  26.904  55.499  1.00  0.00     0.192 HD
HETATM   20  O   UNL     1       7.951  26.803  58.122  1.00  0.00    -0.270 OA
BRANCH  18  21
HETATM   21  N   UNL     1       6.943  25.121  56.148  1.00  0.00    -0.184 NA
HETATM   22  C   UNL     1       7.830  24.717  55.293  1.00  0.00     0.153 C 
BRANCH  22  23
HETATM   23  C   UNL     1       8.139  23.281  55.148  1.00  0.00     0.016 A 
HETATM   24  C   UNL     1       8.347  22.448  56.255  1.00  0.00     0.080 A 
HETATM   25  C   UNL     1       8.625  21.094  56.078  1.00  0.00     0.074 A 
HETATM   26  C   UNL     1       8.701  20.580  54.787  1.00  0.00     0.068 A 
HETATM   27  C   UNL     1       8.503  21.395  53.677  1.00  0.00     0.037 A 
HETATM   28  C   UNL     1       8.219  22.752  53.855  1.00  0.00     0.018 A 
BRANCH  24  29
HETATM   29  O   UNL     1       8.287  22.890  57.550  1.00  0.00    -0.360 OA
HETATM   30  H   UNL     1       8.775  22.249  58.118  1.00  0.00     0.217 HD
ENDBRANCH  24  29
BRANCH  26  31
HETATM   31  O   UNL     1       8.971  19.261  54.564  1.00  0.00    -0.361 OA
HETATM   32  H   UNL     1       8.611  18.744  55.306  1.00  0.00     0.217 HD
ENDBRANCH  26  31
ENDBRANCH  22  23
ENDBRANCH  18  21
ENDBRANCH   1  17
TORSDOF 11
ENDMDL
MODEL 2
REMARK VINA RESULT:      -8.9      2.434     11.576
REMARK  11 active torsions:
REMARK  status: ('A' for Active; 'I' for Inactive)
REMARK    1  A    between atoms: C_2  and  C_3 
REMARK    2  A    between atoms: C_3  and  C_4 
REMARK    3  A    between atoms: C_4  and  O_5 
REMARK    4  A    between atoms: O_5  and  C_6 
REMARK    5  A    between atoms: C_9  and  C_10 
REMARK       I    between atoms: C_10  and  N_11 
REMARK    6  A    between atoms: N_11  and  C_12 
REMARK    7  A    between atoms: C_12  and  C_13 
REMARK       I    between atoms: C_13  and  N_14 
REMARK    8  A    between atoms: N_14  and  N_15 
REMARK    9  A    between atoms: C_16  and  C_17 
REMARK   10  A    between atoms: C_18  and  O_19 
REMARK   11  A    between atoms: C_21  and  O_22 
ROOT
HETATM    1  C   UNL     1       9.684  30.491  58.552  1.00  0.00     0.227 C 
ENDROOT
BRANCH   1   2
HETATM    2  N   UNL     1       8.856  29.443  57.961  1.00  0.00    -0.348 N 
HETATM    3  C   UNL     1       9.032  29.032  56.660  1.00  0.00     0.252 C 
HETATM    4  O   UNL     1       9.793  29.615  55.893  1.00  0.00    -0.268 OA
HETATM    5  H   UNL     1       8.315  28.875  58.599  1.00  0.00     0.163 HD
BRANCH   3   6
HETATM    6  C   UNL     1       8.230  27.871  56.189  1.00  0.00     0.032 A 
HETATM    7  C   UNL     1       7.574  27.866  54.952  1.00  0.00     0.020 A 
HETATM    8  C   UNL     1       6.901  26.717  54.519  1.00  0.00     0.038 A 
HETATM    9  C   UNL     1       6.897  25.567  55.310  1.00  0.00     0.068 A 
HETATM   10  C   UNL     1       7.516  25.586  56.560  1.00  0.00     0.038 A 
HETATM   11  C   UNL     1       8.191  26.728  56.995  1.00  0.00     0.020 A 
BRANCH   9  12
HETATM   12  O   UNL     1       6.317  24.378  54.966  1.00  0.00    -0.351 OA
BRANCH  12  13
HETATM   13  C   UNL     1       7.172  23.235  55.003  1.00  0.00     0.175 C 
BRANCH  13  14
HETATM   14  C   UNL     1       7.620  22.902  53.581  1.00  0.00     0.026 C 
BRANCH  14  15
HETATM   15  C   UNL     1       8.696  21.816  53.537  1.00  0.00    -0.002 C 
HETATM   16  C   UNL     1       8.158  20.536  52.914  1.00  0.00     0.005 C 
ENDBRANCH  14  15
ENDBRANCH  13  14
ENDBRANCH  12  13
ENDBRANCH   9  12
ENDBRANCH   3   6
ENDBRANCH   1   2
BRANCH   1  17
HETATM   17  C   UNL     1       8.939  31.440  59.499  1.00  0.00     0.255 C 
HETATM   18  N   UNL     1       8.022  30.801  60.317  1.00  0.00    -0.246 N 
HETATM   19  H   UNL     1       7.884  29.791  60.215  1.00  0.00     0.192 HD
HETATM   20  O   UNL     1       9.090  32.660  59.433  1.00  0.00    -0.270 OA
BRANCH  18  21
HETATM   21  N   UNL     1       7.239  31.517  61.168  1.00  0.00    -0.184 NA
HETATM   22  C   UNL     1       7.718  31.663  62.364  1.00  0.00     0.153 C 
BRANCH  22  23
HETATM   23  C   UNL     1       6.963  32.403  63.394  1.00  0.00     0.016 A 
HETATM   24  C   UNL     1       5.567  32.331  63.491  1.00  0.00     0.080 A 
HETATM   25  C   UNL     1       4.891  33.035  64.486  1.00  0.00     0.074 A 
HETATM   26  C   UNL     1       5.618  33.818  65.377  1.00  0.00     0.068 A 
HETATM   27  C   UNL     1       7.004  33.905  65.290  1.00  0.00     0.037 A 
HETATM   28  C   UNL     1       7.683  33.195  64.297  1.00  0.00     0.018 A 
BRANCH  24  29
HETATM   29  O   UNL     1       4.793  31.581  62.646  1.00  0.00    -0.360 OA
HETATM   30  H   UNL     1       5.345  30.847  62.290  1.00  0.00     0.217 HD
ENDBRANCH  24  29
BRANCH  26  31
HETATM   31  O   UNL     1       5.000  34.526  66.366  1.00  0.00    -0.361 OA
HETATM   32  H   UNL     1       5.245  34.134  67.222  1.00  0.00     0.217 HD
ENDBRANCH  26  31
ENDBRANCH  22  23
ENDBRANCH  18  21
ENDBRANCH   1  17
TORSDOF 11
ENDMDL
MODEL 3
REMARK VINA RESULT:      -8.7      3.133     11.258
REMARK  11 active torsions:
REMARK  status: ('A' for Active; 'I' for Inactive)
REMARK    1  A    between atoms: C_2  and  C_3 
REMARK    2  A    between atoms: C_3  and  C_4 
REMARK    3  A    between atoms: C_4  and  O_5 
REMARK    4  A    between atoms: O_5  and  C_6 
REMARK    5  A    between atoms: C_9  and  C_10 
REMARK       I    between atoms: C_10  and  N_11 
REMARK    6  A    between atoms: N_11  and  C_12 
REMARK    7  A    between atoms: C_12  and  C_13 
REMARK       I    between atoms: C_13  and  N_14 
REMARK    8  A    between atoms: N_14  and  N_15 
REMARK    9  A    between atoms: C_16  and  C_17 
REMARK   10  A    between atoms: C_18  and  O_19 
REMARK   11  A    between atoms: C_21  and  O_22 
ROOT
HETATM    1  C   UNL     1       9.910  30.069  58.245  1.00  0.00     0.227 C 
ENDROOT
BRANCH   1   2
HETATM    2  N   UNL     1       9.127  29.609  57.101  1.00  0.00    -0.348 N 
HETATM    3  C   UNL     1       8.172  28.626  57.229  1.00  0.00     0.252 C 
HETATM    4  O   UNL     1       8.028  27.995  58.272  1.00  0.00    -0.268 OA
HETATM    5  H   UNL     1       9.144  30.189  56.274  1.00  0.00     0.163 HD
BRANCH   3   6
HETATM    6  C   UNL     1       7.338  28.316  56.037  1.00  0.00     0.032 A 
HETATM    7  C   UNL     1       7.852  28.344  54.735  1.00  0.00     0.020 A 
HETATM    8  C   UNL     1       7.047  27.963  53.655  1.00  0.00     0.038 A 
HETATM    9  C   UNL     1       5.735  27.537  53.874  1.00  0.00     0.068 A 
HETATM   10  C   UNL     1       5.212  27.548  55.166  1.00  0.00     0.038 A 
HETATM   11  C   UNL     1       6.011  27.924  56.248  1.00  0.00     0.020 A 
BRANCH   9  12
HETATM   12  O   UNL     1       4.880  27.096  52.903  1.00  0.00    -0.351 OA
BRANCH  12  13
HETATM   13  C   UNL     1       5.443  26.214  51.931  1.00  0.00     0.175 C 
BRANCH  13  14
HETATM   14  C   UNL     1       5.254  24.772  52.399  1.00  0.00     0.026 C 
BRANCH  14  15
HETATM   15  C   UNL     1       6.294  24.346  53.436  1.00  0.00    -0.002 C 
HETATM   16  C   UNL     1       7.547  23.803  52.764  1.00  0.00     0.005 C 
ENDBRANCH  14  15
ENDBRANCH  13  14
ENDBRANCH  12  13
ENDBRANCH   9  12
ENDBRANCH   3   6
ENDBRANCH   1   2
BRANCH   1  17
HETATM   17  C   UNL     1       9.209  31.114  59.123  1.00  0.00     0.255 C 
HETATM   18  N   UNL     1       8.333  30.566  60.046  1.00  0.00    -0.246 N 
HETATM   19  H   UNL     1       8.192  29.552  60.055  1.00  0.00     0.192 HD
HETATM   20  O   UNL     1       9.355  32.320  58.924  1.00  0.00    -0.270 OA
BRANCH  18  21
HETATM   21  N   UNL     1       7.591  31.369  60.854  1.00  0.00    -0.184 NA
HETATM   22  C   UNL     1       7.935  31.360  62.104  1.00  0.00     0.153 C 
BRANCH  22  23
HETATM   23  C   UNL     1       7.202  32.172  63.095  1.00  0.00     0.016 A 
HETATM   24  C   UNL     1       5.804  32.153  63.187  1.00  0.00     0.080 A 
HETATM   25  C   UNL     1       5.148  32.925  64.144  1.00  0.00     0.074 A 
HETATM   26  C   UNL     1       5.897  33.721  65.003  1.00  0.00     0.068 A 
HETATM   27  C   UNL     1       7.286  33.756  64.921  1.00  0.00     0.037 A 
HETATM   28  C   UNL     1       7.944  32.978  63.965  1.00  0.00     0.018 A 
BRANCH  24  29
HETATM   29  O   UNL     1       5.008  31.393  62.371  1.00  0.00    -0.360 OA
HETATM   30  H   UNL     1       5.168  31.668  61.438  1.00  0.00     0.217 HD
ENDBRANCH  24  29
BRANCH  26  31
HETATM   31  O   UNL     1       5.300  34.494  65.956  1.00  0.00    -0.361 OA
HETATM   32  H   UNL     1       5.341  34.021  66.805  1.00  0.00     0.217 HD
ENDBRANCH  26  31
ENDBRANCH  22  23
ENDBRANCH  18  21
ENDBRANCH   1  17
TORSDOF 11
ENDMDL
MODEL 4
REMARK VINA RESULT:      -8.5      1.909      2.835
REMARK  11 active torsions:
REMARK  status: ('A' for Active; 'I' for Inactive)
REMARK    1  A    between atoms: C_2  and  C_3 
REMARK    2  A    between atoms: C_3  and  C_4 
REMARK    3  A    between atoms: C_4  and  O_5 
REMARK    4  A    between atoms: O_5  and  C_6 
REMARK    5  A    between atoms: C_9  and  C_10 
REMARK       I    between atoms: C_10  and  N_11 
REMARK    6  A    between atoms: N_11  and  C_12 
REMARK    7  A    between atoms: C_12  and  C_13 
REMARK       I    between atoms: C_13  and  N_14 
REMARK    8  A    between atoms: N_14  and  N_15 
REMARK    9  A    between atoms: C_16  and  C_17 
REMARK   10  A    between atoms: C_18  and  O_19 
REMARK   11  A    between atoms: C_21  and  O_22 
ROOT
HETATM    1  C   UNL     1       5.691  28.513  54.436  1.00  0.00     0.227 C 
ENDROOT
BRANCH   1   2
HETATM    2  N   UNL     1       6.384  29.264  55.479  1.00  0.00    -0.348 N 
HETATM    3  C   UNL     1       5.743  29.657  56.632  1.00  0.00     0.252 C 
HETATM    4  O   UNL     1       4.532  29.519  56.779  1.00  0.00    -0.268 OA
HETATM    5  H   UNL     1       7.394  29.282  55.434  1.00  0.00     0.163 HD
BRANCH   3   6
HETATM    6  C   UNL     1       6.563  30.302  57.692  1.00  0.00     0.032 A 
HETATM    7  C   UNL     1       7.825  29.821  58.059  1.00  0.00     0.020 A 
HETATM    8  C   UNL     1       8.592  30.513  59.004  1.00  0.00     0.038 A 
HETATM    9  C   UNL     1       8.110  31.695  59.569  1.00  0.00     0.068 A 
HETATM   10  C   UNL     1       6.836  32.152  59.232  1.00  0.00     0.038 A 
HETATM   11  C   UNL     1       6.068  31.467  58.288  1.00  0.00     0.020 A 
BRANCH   9  12
HETATM   12  O   UNL     1       8.792  32.477  60.459  1.00  0.00    -0.351 OA
BRANCH  12  13
HETATM   13  C   UNL     1       9.403  31.787  61.551  1.00  0.00     0.175 C 
BRANCH  13  14
HETATM   14  C   UNL     1       8.362  31.576  62.650  1.00  0.00     0.026 C 
BRANCH  14  15
HETATM   15  C   UNL     1       7.620  32.861  63.017  1.00  0.00    -0.002 C 
HETATM   16  C   UNL     1       7.611  33.077  64.524  1.00  0.00     0.005 C 
ENDBRANCH  14  15
ENDBRANCH  13  14
ENDBRANCH  12  13
ENDBRANCH   9  12
ENDBRANCH   3   6
ENDBRANCH   1   2
BRANCH   1  17
HETATM   17  C   UNL     1       5.766  26.988  54.586  1.00  0.00     0.255 C 
HETATM   18  N   UNL     1       6.808  26.560  55.393  1.00  0.00    -0.246 N 
HETATM   19  H   UNL     1       7.448  27.256  55.787  1.00  0.00     0.192 HD
HETATM   20  O   UNL     1       5.022  26.244  53.948  1.00  0.00    -0.270 OA
BRANCH  18  21
HETATM   21  N   UNL     1       7.042  25.233  55.573  1.00  0.00    -0.184 NA
HETATM   22  C   UNL     1       7.834  24.692  54.701  1.00  0.00     0.153 C 
BRANCH  22  23
HETATM   23  C   UNL     1       8.160  23.254  54.767  1.00  0.00     0.016 A 
HETATM   24  C   UNL     1       8.381  22.595  55.984  1.00  0.00     0.080 A 
HETATM   25  C   UNL     1       8.675  21.233  56.007  1.00  0.00     0.074 A 
HETATM   26  C   UNL     1       8.752  20.535  54.806  1.00  0.00     0.068 A 
HETATM   27  C   UNL     1       8.541  21.176  53.588  1.00  0.00     0.037 A 
HETATM   28  C   UNL     1       8.241  22.541  53.566  1.00  0.00     0.018 A 
BRANCH  24  29
HETATM   29  O   UNL     1       8.321  23.223  57.200  1.00  0.00    -0.360 OA
HETATM   30  H   UNL     1       8.327  22.533  57.904  1.00  0.00     0.217 HD
ENDBRANCH  24  29
BRANCH  26  31
HETATM   31  O   UNL     1       9.037  19.201  54.777  1.00  0.00    -0.361 OA
HETATM   32  H   UNL     1       8.199  18.708  54.803  1.00  0.00     0.217 HD
ENDBRANCH  26  31
ENDBRANCH  22  23
ENDBRANCH  18  21
ENDBRANCH   1  17
TORSDOF 11
ENDMDL
MODEL 5
REMARK VINA RESULT:      -8.5      2.375     12.086
REMARK  11 active torsions:
REMARK  status: ('A' for Active; 'I' for Inactive)
REMARK    1  A    between atoms: C_2  and  C_3 
REMARK    2  A    between atoms: C_3  and  C_4 
REMARK    3  A    between atoms: C_4  and  O_5 
REMARK    4  A    between atoms: O_5  and  C_6 
REMARK    5  A    between atoms: C_9  and  C_10 
REMARK       I    between atoms: C_10  and  N_11 
REMARK    6  A    between atoms: N_11  and  C_12 
REMARK    7  A    between atoms: C_12  and  C_13 
REMARK       I    between atoms: C_13  and  N_14 
REMARK    8  A    between atoms: N_14  and  N_15 
REMARK    9  A    between atoms: C_16  and  C_17 
REMARK   10  A    between atoms: C_18  and  O_19 
REMARK   11  A    between atoms: C_21  and  O_22 
ROOT
HETATM    1  C   UNL     1       7.653  31.283  59.188  1.00  0.00     0.227 C 
ENDROOT
BRANCH   1   2
HETATM    2  N   UNL     1       7.186  30.024  58.614  1.00  0.00    -0.348 N 
HETATM    3  C   UNL     1       7.993  29.256  57.807  1.00  0.00     0.252 C 
HETATM    4  O   UNL     1       9.088  29.653  57.418  1.00  0.00    -0.268 OA
HETATM    5  H   UNL     1       6.346  29.625  59.012  1.00  0.00     0.163 HD
BRANCH   3   6
HETATM    6  C   UNL     1       7.476  27.929  57.377  1.00  0.00     0.032 A 
HETATM    7  C   UNL     1       6.137  27.727  57.021  1.00  0.00     0.020 A 
HETATM    8  C   UNL     1       5.720  26.478  56.543  1.00  0.00     0.038 A 
HETATM    9  C   UNL     1       6.639  25.438  56.402  1.00  0.00     0.068 A 
HETATM   10  C   UNL     1       7.964  25.629  56.794  1.00  0.00     0.038 A 
HETATM   11  C   UNL     1       8.387  26.872  57.269  1.00  0.00     0.020 A 
BRANCH   9  12
HETATM   12  O   UNL     1       6.353  24.199  55.900  1.00  0.00    -0.351 OA
BRANCH  12  13
HETATM   13  C   UNL     1       6.869  23.921  54.597  1.00  0.00     0.175 C 
BRANCH  13  14
HETATM   14  C   UNL     1       7.624  22.592  54.634  1.00  0.00     0.026 C 
BRANCH  14  15
HETATM   15  C   UNL     1       8.127  22.159  53.257  1.00  0.00    -0.002 C 
HETATM   16  C   UNL     1       7.936  20.664  53.050  1.00  0.00     0.005 C 
ENDBRANCH  14  15
ENDBRANCH  13  14
ENDBRANCH  12  13
ENDBRANCH   9  12
ENDBRANCH   3   6
ENDBRANCH   1   2
BRANCH   1  17
HETATM   17  C   UNL     1       6.768  31.845  60.308  1.00  0.00     0.255 C 
HETATM   18  N   UNL     1       7.202  31.509  61.580  1.00  0.00    -0.246 N 
HETATM   19  H   UNL     1       8.025  30.906  61.681  1.00  0.00     0.192 HD
HETATM   20  O   UNL     1       5.720  32.442  60.060  1.00  0.00    -0.270 OA
BRANCH  18  21
HETATM   21  N   UNL     1       6.487  31.881  62.675  1.00  0.00    -0.184 NA
HETATM   22  C   UNL     1       6.990  32.866  63.350  1.00  0.00     0.153 C 
BRANCH  22  23
HETATM   23  C   UNL     1       6.326  33.362  64.572  1.00  0.00     0.016 A 
HETATM   24  C   UNL     1       4.931  33.457  64.675  1.00  0.00     0.080 A 
HETATM   25  C   UNL     1       4.339  33.918  65.849  1.00  0.00     0.074 A 
HETATM   26  C   UNL     1       5.150  34.289  66.917  1.00  0.00     0.068 A 
HETATM   27  C   UNL     1       6.536  34.206  66.829  1.00  0.00     0.037 A 
HETATM   28  C   UNL     1       7.130  33.739  65.653  1.00  0.00     0.018 A 
BRANCH  24  29
HETATM   29  O   UNL     1       4.077  33.110  63.662  1.00  0.00    -0.360 OA
HETATM   30  H   UNL     1       3.172  33.417  63.901  1.00  0.00     0.217 HD
ENDBRANCH  24  29
BRANCH  26  31
HETATM   31  O   UNL     1       4.617  34.747  68.087  1.00  0.00    -0.361 OA
HETATM   32  H   UNL     1       5.194  34.466  68.818  1.00  0.00     0.217 HD
ENDBRANCH  26  31
ENDBRANCH  22  23
ENDBRANCH  18  21
ENDBRANCH   1  17
TORSDOF 11
ENDMDL
MODEL 6
REMARK VINA RESULT:      -8.4      1.537      2.328
REMARK  11 active torsions:
REMARK  status: ('A' for Active; 'I' for Inactive)
REMARK    1  A    between atoms: C_2  and  C_3 
REMARK    2  A    between atoms: C_3  and  C_4 
REMARK    3  A    between atoms: C_4  and  O_5 
REMARK    4  A    between atoms: O_5  and  C_6 
REMARK    5  A    between atoms: C_9  and  C_10 
REMARK       I    between atoms: C_10  and  N_11 
REMARK    6  A    between atoms: N_11  and  C_12 
REMARK    7  A    between atoms: C_12  and  C_13 
REMARK       I    between atoms: C_13  and  N_14 
REMARK    8  A    between atoms: N_14  and  N_15 
REMARK    9  A    between atoms: C_16  and  C_17 
REMARK   10  A    between atoms: C_18  and  O_19 
REMARK   11  A    between atoms: C_21  and  O_22 
ROOT
HETATM    1  C   UNL     1       7.271  30.454  57.816  1.00  0.00     0.227 C 
ENDROOT
BRANCH   1   2
HETATM    2  N   UNL     1       7.093  30.873  59.204  1.00  0.00    -0.348 N 
HETATM    3  C   UNL     1       7.835  31.895  59.750  1.00  0.00     0.252 C 
HETATM    4  O   UNL     1       8.772  32.409  59.147  1.00  0.00    -0.268 OA
HETATM    5  H   UNL     1       6.257  30.551  59.674  1.00  0.00     0.163 HD
BRANCH   3   6
HETATM    6  C   UNL     1       7.492  32.336  61.128  1.00  0.00     0.032 A 
HETATM    7  C   UNL     1       8.324  32.081  62.225  1.00  0.00     0.020 A 
HETATM    8  C   UNL     1       7.996  32.589  63.488  1.00  0.00     0.038 A 
HETATM    9  C   UNL     1       6.850  33.368  63.654  1.00  0.00     0.068 A 
HETATM   10  C   UNL     1       6.001  33.589  62.569  1.00  0.00     0.038 A 
HETATM   11  C   UNL     1       6.325  33.086  61.307  1.00  0.00     0.020 A 
BRANCH   9  12
HETATM   12  O   UNL     1       6.461  33.955  64.826  1.00  0.00    -0.351 OA
BRANCH  12  13
HETATM   13  C   UNL     1       5.133  33.660  65.259  1.00  0.00     0.175 C 
BRANCH  13  14
HETATM   14  C   UNL     1       4.457  34.954  65.710  1.00  0.00     0.026 C 
BRANCH  14  15
HETATM   15  C   UNL     1       4.846  35.362  67.131  1.00  0.00    -0.002 C 
HETATM   16  C   UNL     1       4.910  34.150  68.050  1.00  0.00     0.005 C 
ENDBRANCH  14  15
ENDBRANCH  13  14
ENDBRANCH  12  13
ENDBRANCH   9  12
ENDBRANCH   3   6
ENDBRANCH   1   2
BRANCH   1  17
HETATM   17  C   UNL     1       7.390  28.938  57.614  1.00  0.00     0.255 C 
HETATM   18  N   UNL     1       6.638  28.459  56.553  1.00  0.00    -0.246 N 
HETATM   19  H   UNL     1       6.053  29.113  56.024  1.00  0.00     0.192 HD
HETATM   20  O   UNL     1       8.018  28.233  58.404  1.00  0.00    -0.270 OA
BRANCH  18  21
HETATM   21  N   UNL     1       6.592  27.126  56.286  1.00  0.00    -0.184 NA
HETATM   22  C   UNL     1       7.452  26.712  55.410  1.00  0.00     0.153 C 
BRANCH  22  23
HETATM   23  C   UNL     1       7.500  25.291  55.013  1.00  0.00     0.016 A 
HETATM   24  C   UNL     1       7.411  24.253  55.949  1.00  0.00     0.080 A 
HETATM   25  C   UNL     1       7.448  22.922  55.535  1.00  0.00     0.074 A 
HETATM   26  C   UNL     1       7.582  22.637  54.180  1.00  0.00     0.068 A 
HETATM   27  C   UNL     1       7.678  23.657  53.238  1.00  0.00     0.037 A 
HETATM   28  C   UNL     1       7.635  24.991  53.653  1.00  0.00     0.018 A 
BRANCH  24  29
HETATM   29  O   UNL     1       7.279  24.464  57.296  1.00  0.00    -0.360 OA
HETATM   30  H   UNL     1       7.283  25.436  57.458  1.00  0.00     0.217 HD
ENDBRANCH  24  29
BRANCH  26  31
HETATM   31  O   UNL     1       7.623  21.351  53.726  1.00  0.00    -0.361 OA
HETATM   32  H   UNL     1       6.799  20.907  53.988  1.00  0.00     0.217 HD
ENDBRANCH  26  31
ENDBRANCH  22  23
ENDBRANCH  18  21
ENDBRANCH   1  17
TORSDOF 11
ENDMDL
MODEL 7
REMARK VINA RESULT:      -8.4      2.625     12.117
REMARK  11 active torsions:
REMARK  status: ('A' for Active; 'I' for Inactive)
REMARK    1  A    between atoms: C_2  and  C_3 
REMARK    2  A    between atoms: C_3  and  C_4 
REMARK    3  A    between atoms: C_4  and  O_5 
REMARK    4  A    between atoms: O_5  and  C_6 
REMARK    5  A    between atoms: C_9  and  C_10 
REMARK       I    between atoms: C_10  and  N_11 
REMARK    6  A    between atoms: N_11  and  C_12 
REMARK    7  A    between atoms: C_12  and  C_13 
REMARK       I    between atoms: C_13  and  N_14 
REMARK    8  A    between atoms: N_14  and  N_15 
REMARK    9  A    between atoms: C_16  and  C_17 
REMARK   10  A    between atoms: C_18  and  O_19 
REMARK   11  A    between atoms: C_21  and  O_22 
ROOT
HETATM    1  C   UNL     1       8.414  30.783  60.256  1.00  0.00     0.227 C 
ENDROOT
BRANCH   1   2
HETATM    2  N   UNL     1       7.912  29.881  59.223  1.00  0.00    -0.348 N 
HETATM    3  C   UNL     1       8.589  29.690  58.040  1.00  0.00     0.252 C 
HETATM    4  O   UNL     1       9.567  30.367  57.737  1.00  0.00    -0.268 OA
HETATM    5  H   UNL     1       7.186  29.232  59.497  1.00  0.00     0.163 HD
BRANCH   3   6
HETATM    6  C   UNL     1       8.070  28.656  57.107  1.00  0.00     0.032 A 
HETATM    7  C   UNL     1       8.097  28.819  55.717  1.00  0.00     0.020 A 
HETATM    8  C   UNL     1       7.671  27.781  54.879  1.00  0.00     0.038 A 
HETATM    9  C   UNL     1       7.237  26.572  55.426  1.00  0.00     0.068 A 
HETATM   10  C   UNL     1       7.173  26.425  56.812  1.00  0.00     0.038 A 
HETATM   11  C   UNL     1       7.598  27.456  57.651  1.00  0.00     0.020 A 
BRANCH   9  12
HETATM   12  O   UNL     1       6.848  25.477  54.705  1.00  0.00    -0.351 OA
BRANCH  12  13
HETATM   13  C   UNL     1       6.788  25.655  53.289  1.00  0.00     0.175 C 
BRANCH  13  14
HETATM   14  C   UNL     1       7.572  24.531  52.613  1.00  0.00     0.026 C 
BRANCH  14  15
HETATM   15  C   UNL     1       8.021  23.449  53.596  1.00  0.00    -0.002 C 
HETATM   16  C   UNL     1       7.889  22.063  52.982  1.00  0.00     0.005 C 
ENDBRANCH  14  15
ENDBRANCH  13  14
ENDBRANCH  12  13
ENDBRANCH   9  12
ENDBRANCH   3   6
ENDBRANCH   1   2
BRANCH   1  17
HETATM   17  C   UNL     1       7.341  31.650  60.926  1.00  0.00     0.255 C 
HETATM   18  N   UNL     1       6.959  31.194  62.177  1.00  0.00    -0.246 N 
HETATM   19  H   UNL     1       7.373  30.329  62.537  1.00  0.00     0.192 HD
HETATM   20  O   UNL     1       6.816  32.593  60.333  1.00  0.00    -0.270 OA
BRANCH  18  21
HETATM   21  N   UNL     1       5.972  31.823  62.870  1.00  0.00    -0.184 NA
HETATM   22  C   UNL     1       6.378  32.728  63.704  1.00  0.00     0.153 C 
BRANCH  22  23
HETATM   23  C   UNL     1       5.414  33.476  64.534  1.00  0.00     0.016 A 
HETATM   24  C   UNL     1       5.719  33.894  65.836  1.00  0.00     0.080 A 
HETATM   25  C   UNL     1       4.786  34.610  66.585  1.00  0.00     0.074 A 
HETATM   26  C   UNL     1       3.546  34.899  66.027  1.00  0.00     0.068 A 
HETATM   27  C   UNL     1       3.225  34.486  64.737  1.00  0.00     0.037 A 
HETATM   28  C   UNL     1       4.162  33.774  63.984  1.00  0.00     0.018 A 
BRANCH  24  29
HETATM   29  O   UNL     1       6.919  33.641  66.445  1.00  0.00    -0.360 OA
HETATM   30  H   UNL     1       7.151  34.418  67.006  1.00  0.00     0.217 HD
ENDBRANCH  24  29
BRANCH  26  31
HETATM   31  O   UNL     1       2.600  35.596  66.721  1.00  0.00    -0.361 OA
HETATM   32  H   UNL     1       2.406  35.114  67.544  1.00  0.00     0.217 HD
ENDBRANCH  26  31
ENDBRANCH  22  23
ENDBRANCH  18  21
ENDBRANCH   1  17
TORSDOF 11
ENDMDL
MODEL 8
REMARK VINA RESULT:      -8.3      1.929     11.496
REMARK  11 active torsions:
REMARK  status: ('A' for Active; 'I' for Inactive)
REMARK    1  A    between atoms: C_2  and  C_3 
REMARK    2  A    between atoms: C_3  and  C_4 
REMARK    3  A    between atoms: C_4  and  O_5 
REMARK    4  A    between atoms: O_5  and  C_6 
REMARK    5  A    between atoms: C_9  and  C_10 
REMARK       I    between atoms: C_10  and  N_11 
REMARK    6  A    between atoms: N_11  and  C_12 
REMARK    7  A    between atoms: C_12  and  C_13 
REMARK       I    between atoms: C_13  and  N_14 
REMARK    8  A    between atoms: N_14  and  N_15 
REMARK    9  A    between atoms: C_16  and  C_17 
REMARK   10  A    between atoms: C_18  and  O_19 
REMARK   11  A    between atoms: C_21  and  O_22 
ROOT
HETATM    1  C   UNL     1       7.886  29.316  56.062  1.00  0.00     0.227 C 
ENDROOT
BRANCH   1   2
HETATM    2  N   UNL     1       7.824  27.934  55.596  1.00  0.00    -0.348 N 
HETATM    3  C   UNL     1       7.326  27.612  54.354  1.00  0.00     0.252 C 
HETATM    4  O   UNL     1       6.786  28.448  53.636  1.00  0.00    -0.268 OA
HETATM    5  H   UNL     1       8.366  27.254  56.113  1.00  0.00     0.163 HD
BRANCH   3   6
HETATM    6  C   UNL     1       7.424  26.194  53.918  1.00  0.00     0.032 A 
HETATM    7  C   UNL     1       7.699  25.834  52.593  1.00  0.00     0.020 A 
HETATM    8  C   UNL     1       7.863  24.486  52.252  1.00  0.00     0.038 A 
HETATM    9  C   UNL     1       7.771  23.497  53.233  1.00  0.00     0.068 A 
HETATM   10  C   UNL     1       7.457  23.854  54.545  1.00  0.00     0.038 A 
HETATM   11  C   UNL     1       7.296  25.196  54.892  1.00  0.00     0.020 A 
BRANCH   9  12
HETATM   12  O   UNL     1       7.962  22.160  53.023  1.00  0.00    -0.351 OA
BRANCH  12  13
HETATM   13  C   UNL     1       8.932  21.531  53.862  1.00  0.00     0.175 C 
BRANCH  13  14
HETATM   14  C   UNL     1       8.354  20.219  54.391  1.00  0.00     0.026 C 
BRANCH  14  15
HETATM   15  C   UNL     1       7.685  20.375  55.758  1.00  0.00    -0.002 C 
HETATM   16  C   UNL     1       8.596  21.107  56.732  1.00  0.00     0.005 C 
ENDBRANCH  14  15
ENDBRANCH  13  14
ENDBRANCH  12  13
ENDBRANCH   9  12
ENDBRANCH   3   6
ENDBRANCH   1   2
BRANCH   1  17
HETATM   17  C   UNL     1       7.567  29.507  57.550  1.00  0.00     0.255 C 
HETATM   18  N   UNL     1       7.086  30.769  57.858  1.00  0.00    -0.246 N 
HETATM   19  H   UNL     1       7.013  31.468  57.112  1.00  0.00     0.192 HD
HETATM   20  O   UNL     1       7.829  28.635  58.379  1.00  0.00    -0.270 OA
BRANCH  18  21
HETATM   21  N   UNL     1       6.816  31.110  59.146  1.00  0.00    -0.184 NA
HETATM   22  C   UNL     1       7.633  31.970  59.669  1.00  0.00     0.153 C 
BRANCH  22  23
HETATM   23  C   UNL     1       7.467  32.416  61.066  1.00  0.00     0.016 A 
HETATM   24  C   UNL     1       8.358  32.037  62.079  1.00  0.00     0.080 A 
HETATM   25  C   UNL     1       8.176  32.488  63.386  1.00  0.00     0.074 A 
HETATM   26  C   UNL     1       7.094  33.313  63.674  1.00  0.00     0.068 A 
HETATM   27  C   UNL     1       6.197  33.693  62.680  1.00  0.00     0.037 A 
HETATM   28  C   UNL     1       6.383  33.246  61.370  1.00  0.00     0.018 A 
BRANCH  24  29
HETATM   29  O   UNL     1       9.441  31.226  61.863  1.00  0.00    -0.360 OA
HETATM   30  H   UNL     1      10.253  31.718  62.128  1.00  0.00     0.217 HD
ENDBRANCH  24  29
BRANCH  26  31
HETATM   31  O   UNL     1       6.874  33.779  64.937  1.00  0.00    -0.361 OA
HETATM   32  H   UNL     1       7.526  33.370  65.533  1.00  0.00     0.217 HD
ENDBRANCH  26  31
ENDBRANCH  22  23
ENDBRANCH  18  21
ENDBRANCH   1  17
TORSDOF 11
ENDMDL
MODEL 9
REMARK VINA RESULT:      -7.9      4.075     11.214
REMARK  11 active torsions:
REMARK  status: ('A' for Active; 'I' for Inactive)
REMARK    1  A    between atoms: C_2  and  C_3 
REMARK    2  A    between atoms: C_3  and  C_4 
REMARK    3  A    between atoms: C_4  and  O_5 
REMARK    4  A    between atoms: O_5  and  C_6 
REMARK    5  A    between atoms: C_9  and  C_10 
REMARK       I    between atoms: C_10  and  N_11 
REMARK    6  A    between atoms: N_11  and  C_12 
REMARK    7  A    between atoms: C_12  and  C_13 
REMARK       I    between atoms: C_13  and  N_14 
REMARK    8  A    between atoms: N_14  and  N_15 
REMARK    9  A    between atoms: C_16  and  C_17 
REMARK   10  A    between atoms: C_18  and  O_19 
REMARK   11  A    between atoms: C_21  and  O_22 
ROOT
HETATM    1  C   UNL     1       9.724  30.055  58.199  1.00  0.00     0.227 C 
ENDROOT
BRANCH   1   2
HETATM    2  N   UNL     1       8.914  29.637  57.058  1.00  0.00    -0.348 N 
HETATM    3  C   UNL     1       8.018  28.597  57.150  1.00  0.00     0.252 C 
HETATM    4  O   UNL     1       7.954  27.884  58.147  1.00  0.00    -0.268 OA
HETATM    5  H   UNL     1       8.862  30.277  56.277  1.00  0.00     0.163 HD
BRANCH   3   6
HETATM    6  C   UNL     1       7.146  28.331  55.975  1.00  0.00     0.032 A 
HETATM    7  C   UNL     1       7.650  28.246  54.672  1.00  0.00     0.020 A 
HETATM    8  C   UNL     1       6.800  27.911  53.611  1.00  0.00     0.038 A 
HETATM    9  C   UNL     1       5.452  27.641  53.851  1.00  0.00     0.068 A 
HETATM   10  C   UNL     1       4.943  27.764  55.143  1.00  0.00     0.038 A 
HETATM   11  C   UNL     1       5.786  28.096  56.206  1.00  0.00     0.020 A 
BRANCH   9  12
HETATM   12  O   UNL     1       4.546  27.257  52.902  1.00  0.00    -0.351 OA
BRANCH  12  13
HETATM   13  C   UNL     1       4.394  28.144  51.793  1.00  0.00     0.175 C 
BRANCH  13  14
HETATM   14  C   UNL     1       3.232  29.096  52.074  1.00  0.00     0.026 C 
BRANCH  14  15
HETATM   15  C   UNL     1       2.244  29.184  50.910  1.00  0.00    -0.002 C 
HETATM   16  C   UNL     1       2.819  28.547  49.654  1.00  0.00     0.005 C 
ENDBRANCH  14  15
ENDBRANCH  13  14
ENDBRANCH  12  13
ENDBRANCH   9  12
ENDBRANCH   3   6
ENDBRANCH   1   2
BRANCH   1  17
HETATM   17  C   UNL     1       9.060  31.096  59.110  1.00  0.00     0.255 C 
HETATM   18  N   UNL     1       8.150  30.553  60.002  1.00  0.00    -0.246 N 
HETATM   19  H   UNL     1       7.964  29.546  59.970  1.00  0.00     0.192 HD
HETATM   20  O   UNL     1       9.263  32.301  58.960  1.00  0.00    -0.270 OA
BRANCH  18  21
HETATM   21  N   UNL     1       7.435  31.357  60.834  1.00  0.00    -0.184 NA
HETATM   22  C   UNL     1       7.826  31.355  62.069  1.00  0.00     0.153 C 
BRANCH  22  23
HETATM   23  C   UNL     1       7.128  32.170  63.083  1.00  0.00     0.016 A 
HETATM   24  C   UNL     1       5.731  32.190  63.189  1.00  0.00     0.080 A 
HETATM   25  C   UNL     1       5.108  32.962  64.168  1.00  0.00     0.074 A 
HETATM   26  C   UNL     1       5.889  33.719  65.034  1.00  0.00     0.068 A 
HETATM   27  C   UNL     1       7.278  33.715  64.938  1.00  0.00     0.037 A 
HETATM   28  C   UNL     1       7.903  32.936  63.961  1.00  0.00     0.018 A 
BRANCH  24  29
HETATM   29  O   UNL     1       4.904  31.470  62.368  1.00  0.00    -0.360 OA
HETATM   30  H   UNL     1       4.388  32.103  61.816  1.00  0.00     0.217 HD
ENDBRANCH  24  29
BRANCH  26  31
HETATM   31  O   UNL     1       5.325  34.491  66.008  1.00  0.00    -0.361 OA
HETATM   32  H   UNL     1       4.713  33.937  66.522  1.00  0.00     0.217 HD
ENDBRANCH  26  31
ENDBRANCH  22  23
ENDBRANCH  18  21
ENDBRANCH   1  17
TORSDOF 11
ENDMDL
MODEL 10
REMARK VINA RESULT:      -7.8      5.675      6.885
REMARK  11 active torsions:
REMARK  status: ('A' for Active; 'I' for Inactive)
REMARK    1  A    between atoms: C_2  and  C_3 
REMARK    2  A    between atoms: C_3  and  C_4 
REMARK    3  A    between atoms: C_4  and  O_5 
REMARK    4  A    between atoms: O_5  and  C_6 
REMARK    5  A    between atoms: C_9  and  C_10 
REMARK       I    between atoms: C_10  and  N_11 
REMARK    6  A    between atoms: N_11  and  C_12 
REMARK    7  A    between atoms: C_12  and  C_13 
REMARK       I    between atoms: C_13  and  N_14 
REMARK    8  A    between atoms: N_14  and  N_15 
REMARK    9  A    between atoms: C_16  and  C_17 
REMARK   10  A    between atoms: C_18  and  O_19 
REMARK   11  A    between atoms: C_21  and  O_22 
ROOT
HETATM    1  C   UNL     1       7.073  26.649  54.348  1.00  0.00     0.227 C 
ENDROOT
BRANCH   1   2
HETATM    2  N   UNL     1       7.488  27.760  55.200  1.00  0.00    -0.348 N 
HETATM    3  C   UNL     1       8.033  27.549  56.446  1.00  0.00     0.252 C 
HETATM    4  O   UNL     1       8.068  26.433  56.957  1.00  0.00    -0.268 OA
HETATM    5  H   UNL     1       7.578  28.665  54.758  1.00  0.00     0.163 HD
BRANCH   3   6
HETATM    6  C   UNL     1       8.544  28.734  57.185  1.00  0.00     0.032 A 
HETATM    7  C   UNL     1       9.820  29.264  56.960  1.00  0.00     0.020 A 
HETATM    8  C   UNL     1      10.222  30.431  57.621  1.00  0.00     0.038 A 
HETATM    9  C   UNL     1       9.346  31.080  58.492  1.00  0.00     0.068 A 
HETATM   10  C   UNL     1       8.090  30.530  58.746  1.00  0.00     0.038 A 
HETATM   11  C   UNL     1       7.683  29.368  58.087  1.00  0.00     0.020 A 
BRANCH   9  12
HETATM   12  O   UNL     1       9.614  32.249  59.150  1.00  0.00    -0.351 OA
BRANCH  12  13
HETATM   13  C   UNL     1       8.826  32.501  60.315  1.00  0.00     0.175 C 
BRANCH  13  14
HETATM   14  C   UNL     1       9.539  31.918  61.534  1.00  0.00     0.026 C 
BRANCH  14  15
HETATM   15  C   UNL     1       8.571  31.507  62.645  1.00  0.00    -0.002 C 
HETATM   16  C   UNL     1       7.323  32.377  62.634  1.00  0.00     0.005 C 
ENDBRANCH  14  15
ENDBRANCH  13  14
ENDBRANCH  12  13
ENDBRANCH   9  12
ENDBRANCH   3   6
ENDBRANCH   1   2
BRANCH   1  17
HETATM   17  C   UNL     1       5.782  26.896  53.555  1.00  0.00     0.255 C 
HETATM   18  N   UNL     1       5.909  26.648  52.198  1.00  0.00    -0.246 N 
HETATM   19  H   UNL     1       6.821  26.366  51.828  1.00  0.00     0.192 HD
HETATM   20  O   UNL     1       4.781  27.371  54.091  1.00  0.00    -0.270 OA
BRANCH  18  21
HETATM   21  N   UNL     1       4.868  26.881  51.354  1.00  0.00    -0.184 NA
HETATM   22  C   UNL     1       5.000  26.377  50.168  1.00  0.00     0.153 C 
BRANCH  22  23
HETATM   23  C   UNL     1       3.953  26.568  49.145  1.00  0.00     0.016 A 
HETATM   24  C   UNL     1       3.201  27.747  49.061  1.00  0.00     0.080 A 
HETATM   25  C   UNL     1       2.228  27.896  48.074  1.00  0.00     0.074 A 
HETATM   26  C   UNL     1       2.008  26.857  47.176  1.00  0.00     0.068 A 
HETATM   27  C   UNL     1       2.742  25.677  47.250  1.00  0.00     0.037 A 
HETATM   28  C   UNL     1       3.721  25.529  48.236  1.00  0.00     0.018 A 
BRANCH  24  29
HETATM   29  O   UNL     1       3.367  28.807  49.913  1.00  0.00    -0.360 OA
HETATM   30  H   UNL     1       4.195  28.663  50.428  1.00  0.00     0.217 HD
ENDBRANCH  24  29
BRANCH  26  31
HETATM   31  O   UNL     1       1.067  26.955  46.193  1.00  0.00    -0.361 OA
HETATM   32  H   UNL     1       1.104  26.149  45.651  1.00  0.00     0.217 HD
ENDBRANCH  26  31
ENDBRANCH  22  23
ENDBRANCH  18  21
ENDBRANCH   1  17
TORSDOF 11
ENDMDL
