MODEL 1
REMARK VINA RESULT:      -9.1      0.000      0.000
REMARK  4 active torsions:
REMARK  status: ('A' for Active; 'I' for Inactive)
REMARK    1  A    between atoms: C_6  and  C_7 
REMARK    2  A    between atoms: C_8  and  C_9 
REMARK       I    between atoms: C_9  and  N_10 
REMARK    3  A    between atoms: N_10  and  C_11 
REMARK    4  A    between atoms: C_18  and  C_19 
REMARK       I    between atoms: C_19  and  N_20 
ROOT
HETATM    1  C   UNL     1       5.610  25.798  52.047  1.00  0.00     0.035 A 
HETATM    2  C   UNL     1       5.412  26.024  50.674  1.00  0.00     0.046 A 
HETATM    3  C   UNL     1       4.690  27.158  50.249  1.00  0.00     0.030 A 
HETATM    4  C   UNL     1       4.169  28.016  51.207  1.00  0.00     0.063 A 
HETATM    5  N   UNL     1       3.531  29.001  50.506  1.00  0.00    -0.277 N 
HETATM    6  H   UNL     1       3.033  29.799  50.884  1.00  0.00     0.189 HD
HETATM    7  N   UNL     1       3.602  28.867  49.170  1.00  0.00    -0.168 NA
HETATM    8  C   UNL     1       4.315  27.731  48.998  1.00  0.00     0.156 A 
HETATM    9  C   UNL     1       4.329  27.812  52.578  1.00  0.00     0.034 A 
HETATM   10  C   UNL     1       5.064  26.686  52.977  1.00  0.00     0.032 A 
ENDROOT
BRANCH   1  11
HETATM   11  N   UNL     1       6.355  24.656  52.406  1.00  0.00    -0.327 N 
HETATM   12  C   UNL     1       7.726  24.557  52.508  1.00  0.00     0.227 C 
HETATM   13  O   UNL     1       8.553  25.403  52.202  1.00  0.00    -0.273 OA
HETATM   14  H   UNL     1       5.829  23.804  52.549  1.00  0.00     0.169 HD
BRANCH  12  15
HETATM   15  C   UNL     1       8.213  23.218  52.944  1.00  0.00     0.087 A 
HETATM   16  C   UNL     1       8.451  22.886  54.407  1.00  0.00     0.032 A 
HETATM   17  C   UNL     1       7.346  22.202  53.634  1.00  0.00     0.025 A 
BRANCH  16  18
HETATM   18  C   UNL     1       8.072  23.794  55.558  1.00  0.00    -0.051 A 
HETATM   19  C   UNL     1       6.737  24.140  55.826  1.00  0.00     0.031 A 
HETATM   20  C   UNL     1       6.406  24.989  56.884  1.00  0.00     0.034 A 
HETATM   21  C   UNL     1       7.401  25.539  57.686  1.00  0.00     0.024 A 
HETATM   22 CL   UNL     1       4.755  25.365  57.198  1.00  0.00    -0.084 Cl
HETATM   23  C   UNL     1       8.734  25.239  57.424  1.00  0.00     0.002 A 
HETATM   24  C   UNL     1       9.061  24.379  56.371  1.00  0.00     0.007 A 
ENDBRANCH  16  18
ENDBRANCH  12  15
ENDBRANCH   1  11
BRANCH   8  25
HETATM   25  C   UNL     1       4.633  27.223  47.657  1.00  0.00     0.270 C 
HETATM   26  N   UNL     1       5.880  27.564  47.211  1.00  0.00    -0.365 N 
HETATM   27  H   UNL     1       6.479  28.113  47.818  1.00  0.00     0.159 HD
HETATM   28  H   UNL     1       6.200  27.245  46.310  1.00  0.00     0.159 HD
HETATM   29  O   UNL     1       3.873  26.544  46.973  1.00  0.00    -0.266 OA
ENDBRANCH   8  25
TORSDOF 4
ENDMDL
MODEL 2
REMARK VINA RESULT:      -8.9      7.073      9.395
REMARK  4 active torsions:
REMARK  status: ('A' for Active; 'I' for Inactive)
REMARK    1  A    between atoms: C_6  and  C_7 
REMARK    2  A    between atoms: C_8  and  C_9 
REMARK       I    between atoms: C_9  and  N_10 
REMARK    3  A    between atoms: N_10  and  C_11 
REMARK    4  A    between atoms: C_18  and  C_19 
REMARK       I    between atoms: C_19  and  N_20 
ROOT
HETATM    1  C   UNL     1       8.766  29.985  58.433  1.00  0.00     0.035 A 
HETATM    2  C   UNL     1       7.471  29.642  58.008  1.00  0.00     0.046 A 
HETATM    3  C   UNL     1       7.263  29.207  56.683  1.00  0.00     0.030 A 
HETATM    4  C   UNL     1       8.347  29.151  55.819  1.00  0.00     0.063 A 
HETATM    5  N   UNL     1       7.842  28.705  54.630  1.00  0.00    -0.277 N 
HETATM    6  H   UNL     1       8.353  28.547  53.768  1.00  0.00     0.189 HD
HETATM    7  N   UNL     1       6.522  28.451  54.646  1.00  0.00    -0.168 NA
HETATM    8  C   UNL     1       6.151  28.758  55.910  1.00  0.00     0.156 A 
HETATM    9  C   UNL     1       9.642  29.504  56.201  1.00  0.00     0.034 A 
HETATM   10  C   UNL     1       9.828  29.919  57.527  1.00  0.00     0.032 A 
ENDROOT
BRANCH   1  11
HETATM   11  N   UNL     1       8.912  30.397  59.774  1.00  0.00    -0.327 N 
HETATM   12  C   UNL     1       9.116  31.681  60.232  1.00  0.00     0.227 C 
HETATM   13  O   UNL     1       9.317  32.681  59.560  1.00  0.00    -0.273 OA
HETATM   14  H   UNL     1       8.924  29.662  60.469  1.00  0.00     0.169 HD
BRANCH  12  15
HETATM   15  C   UNL     1       9.198  31.796  61.714  1.00  0.00     0.087 A 
HETATM   16  C   UNL     1       8.130  32.512  62.525  1.00  0.00     0.032 A 
HETATM   17  C   UNL     1       8.325  31.017  62.659  1.00  0.00     0.025 A 
BRANCH  16  18
HETATM   18  C   UNL     1       6.825  33.020  61.950  1.00  0.00    -0.051 A 
HETATM   19  C   UNL     1       6.070  32.268  61.035  1.00  0.00     0.031 A 
HETATM   20  C   UNL     1       4.874  32.758  60.506  1.00  0.00     0.034 A 
HETATM   21  C   UNL     1       4.414  34.024  60.853  1.00  0.00     0.024 A 
HETATM   22 CL   UNL     1       3.962  31.792  59.410  1.00  0.00    -0.084 Cl
HETATM   23  C   UNL     1       5.158  34.804  61.734  1.00  0.00     0.002 A 
HETATM   24  C   UNL     1       6.348  34.305  62.271  1.00  0.00     0.007 A 
ENDBRANCH  16  18
ENDBRANCH  12  15
ENDBRANCH   1  11
BRANCH   8  25
HETATM   25  C   UNL     1       4.760  28.608  56.357  1.00  0.00     0.270 C 
HETATM   26  N   UNL     1       4.390  27.316  56.608  1.00  0.00    -0.365 N 
HETATM   27  H   UNL     1       5.078  26.582  56.484  1.00  0.00     0.159 HD
HETATM   28  H   UNL     1       3.460  27.113  56.940  1.00  0.00     0.159 HD
HETATM   29  O   UNL     1       3.975  29.540  56.507  1.00  0.00    -0.266 OA
ENDBRANCH   8  25
TORSDOF 4
ENDMDL
MODEL 3
REMARK VINA RESULT:      -8.9      2.492      3.827
REMARK  4 active torsions:
REMARK  status: ('A' for Active; 'I' for Inactive)
REMARK    1  A    between atoms: C_6  and  C_7 
REMARK    2  A    between atoms: C_8  and  C_9 
REMARK       I    between atoms: C_9  and  N_10 
REMARK    3  A    between atoms: N_10  and  C_11 
REMARK    4  A    between atoms: C_18  and  C_19 
REMARK       I    between atoms: C_19  and  N_20 
ROOT
HETATM    1  C   UNL     1       5.518  27.524  55.308  1.00  0.00     0.035 A 
HETATM    2  C   UNL     1       5.476  27.178  53.947  1.00  0.00     0.046 A 
HETATM    3  C   UNL     1       4.622  27.881  53.072  1.00  0.00     0.030 A 
HETATM    4  C   UNL     1       3.820  28.890  53.588  1.00  0.00     0.063 A 
HETATM    5  N   UNL     1       3.116  29.376  52.523  1.00  0.00    -0.277 N 
HETATM    6  H   UNL     1       2.429  30.122  52.531  1.00  0.00     0.189 HD
HETATM    7  N   UNL     1       3.397  28.779  51.351  1.00  0.00    -0.168 NA
HETATM    8  C   UNL     1       4.326  27.853  51.677  1.00  0.00     0.156 A 
HETATM    9  C   UNL     1       3.821  29.247  54.937  1.00  0.00     0.034 A 
HETATM   10  C   UNL     1       4.690  28.544  55.785  1.00  0.00     0.032 A 
ENDROOT
BRANCH   1  11
HETATM   11  N   UNL     1       6.405  26.795  56.127  1.00  0.00    -0.327 N 
HETATM   12  C   UNL     1       6.143  25.616  56.791  1.00  0.00     0.227 C 
HETATM   13  O   UNL     1       5.067  25.043  56.882  1.00  0.00    -0.273 OA
HETATM   14  H   UNL     1       7.311  27.212  56.289  1.00  0.00     0.169 HD
BRANCH  12  15
HETATM   15  C   UNL     1       7.301  25.072  57.553  1.00  0.00     0.087 A 
HETATM   16  C   UNL     1       8.170  23.953  57.004  1.00  0.00     0.032 A 
HETATM   17  C   UNL     1       8.735  25.344  57.193  1.00  0.00     0.025 A 
BRANCH  16  18
HETATM   18  C   UNL     1       8.061  23.403  55.598  1.00  0.00    -0.051 A 
HETATM   19  C   UNL     1       8.023  24.241  54.471  1.00  0.00     0.031 A 
HETATM   20  C   UNL     1       7.909  23.717  53.181  1.00  0.00     0.034 A 
HETATM   21  C   UNL     1       7.802  22.344  52.984  1.00  0.00     0.024 A 
HETATM   22 CL   UNL     1       7.896  24.776  51.824  1.00  0.00    -0.084 Cl
HETATM   23  C   UNL     1       7.807  21.492  54.084  1.00  0.00     0.002 A 
HETATM   24  C   UNL     1       7.933  22.020  55.373  1.00  0.00     0.007 A 
ENDBRANCH  16  18
ENDBRANCH  12  15
ENDBRANCH   1  11
BRANCH   8  25
HETATM   25  C   UNL     1       4.919  26.973  50.661  1.00  0.00     0.270 C 
HETATM   26  N   UNL     1       5.588  27.636  49.669  1.00  0.00    -0.365 N 
HETATM   27  H   UNL     1       5.636  28.648  49.709  1.00  0.00     0.159 HD
HETATM   28  H   UNL     1       6.047  27.118  48.937  1.00  0.00     0.159 HD
HETATM   29  O   UNL     1       4.844  25.748  50.674  1.00  0.00    -0.266 OA
ENDBRANCH   8  25
TORSDOF 4
ENDMDL
MODEL 4
REMARK VINA RESULT:      -8.9      5.643      8.390
REMARK  4 active torsions:
REMARK  status: ('A' for Active; 'I' for Inactive)
REMARK    1  A    between atoms: C_6  and  C_7 
REMARK    2  A    between atoms: C_8  and  C_9 
REMARK       I    between atoms: C_9  and  N_10 
REMARK    3  A    between atoms: N_10  and  C_11 
REMARK    4  A    between atoms: C_18  and  C_19 
REMARK       I    between atoms: C_19  and  N_20 
ROOT
HETATM    1  C   UNL     1       8.157  28.293  57.564  1.00  0.00     0.035 A 
HETATM    2  C   UNL     1       7.904  29.231  58.578  1.00  0.00     0.046 A 
HETATM    3  C   UNL     1       8.727  30.370  58.698  1.00  0.00     0.030 A 
HETATM    4  C   UNL     1       9.790  30.522  57.819  1.00  0.00     0.063 A 
HETATM    5  N   UNL     1      10.394  31.694  58.178  1.00  0.00    -0.277 N 
HETATM    6  H   UNL     1      11.210  32.119  57.750  1.00  0.00     0.189 HD
HETATM    7  N   UNL     1       9.809  32.329  59.208  1.00  0.00    -0.168 NA
HETATM    8  C   UNL     1       8.777  31.521  59.540  1.00  0.00     0.156 A 
HETATM    9  C   UNL     1      10.083  29.599  56.814  1.00  0.00     0.034 A 
HETATM   10  C   UNL     1       9.241  28.483  56.704  1.00  0.00     0.032 A 
ENDROOT
BRANCH   1  11
HETATM   11  N   UNL     1       7.287  27.185  57.485  1.00  0.00    -0.327 N 
HETATM   12  C   UNL     1       6.180  27.054  56.674  1.00  0.00     0.227 C 
HETATM   13  O   UNL     1       5.685  27.910  55.956  1.00  0.00    -0.273 OA
HETATM   14  H   UNL     1       7.462  26.430  58.135  1.00  0.00     0.169 HD
BRANCH  12  15
HETATM   15  C   UNL     1       5.482  25.744  56.798  1.00  0.00     0.087 A 
HETATM   16  C   UNL     1       5.377  24.775  55.632  1.00  0.00     0.032 A 
HETATM   17  C   UNL     1       6.196  24.422  56.855  1.00  0.00     0.025 A 
BRANCH  16  18
HETATM   18  C   UNL     1       6.094  24.954  54.311  1.00  0.00    -0.051 A 
HETATM   19  C   UNL     1       5.471  25.546  53.199  1.00  0.00     0.031 A 
HETATM   20  C   UNL     1       6.143  25.692  51.984  1.00  0.00     0.034 A 
HETATM   21  C   UNL     1       7.445  25.225  51.836  1.00  0.00     0.024 A 
HETATM   22 CL   UNL     1       5.354  26.449  50.654  1.00  0.00    -0.084 Cl
HETATM   23  C   UNL     1       8.076  24.608  52.912  1.00  0.00     0.002 A 
HETATM   24  C   UNL     1       7.404  24.474  54.131  1.00  0.00     0.007 A 
ENDBRANCH  16  18
ENDBRANCH  12  15
ENDBRANCH   1  11
BRANCH   8  25
HETATM   25  C   UNL     1       7.859  31.861  60.635  1.00  0.00     0.270 C 
HETATM   26  N   UNL     1       7.735  30.884  61.584  1.00  0.00    -0.365 N 
HETATM   27  H   UNL     1       8.272  30.031  61.475  1.00  0.00     0.159 HD
HETATM   28  H   UNL     1       7.143  31.032  62.386  1.00  0.00     0.159 HD
HETATM   29  O   UNL     1       7.248  32.922  60.724  1.00  0.00    -0.266 OA
ENDBRANCH   8  25
TORSDOF 4
ENDMDL
MODEL 5
REMARK VINA RESULT:      -8.7      4.582      6.888
REMARK  4 active torsions:
REMARK  status: ('A' for Active; 'I' for Inactive)
REMARK    1  A    between atoms: C_6  and  C_7 
REMARK    2  A    between atoms: C_8  and  C_9 
REMARK       I    between atoms: C_9  and  N_10 
REMARK    3  A    between atoms: N_10  and  C_11 
REMARK    4  A    between atoms: C_18  and  C_19 
REMARK       I    between atoms: C_19  and  N_20 
ROOT
HETATM    1  C   UNL     1       7.245  28.177  55.474  1.00  0.00     0.035 A 
HETATM    2  C   UNL     1       8.286  28.947  56.021  1.00  0.00     0.046 A 
HETATM    3  C   UNL     1       8.077  29.651  57.225  1.00  0.00     0.030 A 
HETATM    4  C   UNL     1       6.830  29.584  57.830  1.00  0.00     0.063 A 
HETATM    5  N   UNL     1       6.930  30.355  58.954  1.00  0.00    -0.277 N 
HETATM    6  H   UNL     1       6.204  30.536  59.640  1.00  0.00     0.189 HD
HETATM    7  N   UNL     1       8.140  30.910  59.143  1.00  0.00    -0.168 NA
HETATM    8  C   UNL     1       8.858  30.483  58.080  1.00  0.00     0.156 A 
HETATM    9  C   UNL     1       5.768  28.847  57.305  1.00  0.00     0.034 A 
HETATM   10  C   UNL     1       6.004  28.142  56.115  1.00  0.00     0.032 A 
ENDROOT
BRANCH   1  11
HETATM   11  N   UNL     1       7.523  27.483  54.278  1.00  0.00    -0.327 N 
HETATM   12  C   UNL     1       6.693  26.602  53.617  1.00  0.00     0.227 C 
HETATM   13  O   UNL     1       5.613  26.178  53.998  1.00  0.00    -0.273 OA
HETATM   14  H   UNL     1       8.452  27.601  53.896  1.00  0.00     0.169 HD
BRANCH  12  15
HETATM   15  C   UNL     1       7.263  26.054  52.355  1.00  0.00     0.087 A 
HETATM   16  C   UNL     1       7.943  24.696  52.304  1.00  0.00     0.032 A 
HETATM   17  C   UNL     1       6.636  24.930  51.578  1.00  0.00     0.025 A 
BRANCH  16  18
HETATM   18  C   UNL     1       7.964  23.711  53.454  1.00  0.00    -0.051 A 
HETATM   19  C   UNL     1       8.277  24.104  54.766  1.00  0.00     0.031 A 
HETATM   20  C   UNL     1       8.304  23.180  55.812  1.00  0.00     0.034 A 
HETATM   21  C   UNL     1       8.046  21.834  55.573  1.00  0.00     0.024 A 
HETATM   22 CL   UNL     1       8.663  23.707  57.412  1.00  0.00    -0.084 Cl
HETATM   23  C   UNL     1       7.763  21.412  54.277  1.00  0.00     0.002 A 
HETATM   24  C   UNL     1       7.726  22.342  53.234  1.00  0.00     0.007 A 
ENDBRANCH  16  18
ENDBRANCH  12  15
ENDBRANCH   1  11
BRANCH   8  25
HETATM   25  C   UNL     1      10.267  30.863  57.906  1.00  0.00     0.270 C 
HETATM   26  N   UNL     1      11.055  29.868  57.398  1.00  0.00    -0.365 N 
HETATM   27  H   UNL     1      10.627  28.976  57.176  1.00  0.00     0.159 HD
HETATM   28  H   UNL     1      12.033  30.038  57.223  1.00  0.00     0.159 HD
HETATM   29  O   UNL     1      10.725  31.969  58.176  1.00  0.00    -0.266 OA
ENDBRANCH   8  25
TORSDOF 4
ENDMDL
MODEL 6
REMARK VINA RESULT:      -8.5      2.638      3.863
REMARK  4 active torsions:
REMARK  status: ('A' for Active; 'I' for Inactive)
REMARK    1  A    between atoms: C_6  and  C_7 
REMARK    2  A    between atoms: C_8  and  C_9 
REMARK       I    between atoms: C_9  and  N_10 
REMARK    3  A    between atoms: N_10  and  C_11 
REMARK    4  A    between atoms: C_18  and  C_19 
REMARK       I    between atoms: C_19  and  N_20 
ROOT
HETATM    1  C   UNL     1       6.275  25.754  53.580  1.00  0.00     0.035 A 
HETATM    2  C   UNL     1       6.192  27.024  52.984  1.00  0.00     0.046 A 
HETATM    3  C   UNL     1       5.471  27.186  51.783  1.00  0.00     0.030 A 
HETATM    4  C   UNL     1       4.879  26.074  51.203  1.00  0.00     0.063 A 
HETATM    5  N   UNL     1       4.267  26.535  50.071  1.00  0.00    -0.277 N 
HETATM    6  H   UNL     1       3.737  25.994  49.397  1.00  0.00     0.189 HD
HETATM    7  N   UNL     1       4.399  27.858  49.868  1.00  0.00    -0.168 NA
HETATM    8  C   UNL     1       5.142  28.272  50.918  1.00  0.00     0.156 A 
HETATM    9  C   UNL     1       4.958  24.795  51.756  1.00  0.00     0.034 A 
HETATM   10  C   UNL     1       5.666  24.661  52.959  1.00  0.00     0.032 A 
ENDROOT
BRANCH   1  11
HETATM   11  N   UNL     1       6.995  25.661  54.790  1.00  0.00    -0.327 N 
HETATM   12  C   UNL     1       6.499  25.309  56.027  1.00  0.00     0.227 C 
HETATM   13  O   UNL     1       5.329  25.120  56.327  1.00  0.00    -0.273 OA
HETATM   14  H   UNL     1       7.967  25.937  54.755  1.00  0.00     0.169 HD
BRANCH  12  15
HETATM   15  C   UNL     1       7.522  25.270  57.108  1.00  0.00     0.087 A 
HETATM   16  C   UNL     1       8.323  24.015  57.411  1.00  0.00     0.032 A 
HETATM   17  C   UNL     1       9.003  25.245  56.852  1.00  0.00     0.025 A 
BRANCH  16  18
HETATM   18  C   UNL     1       8.291  22.760  56.564  1.00  0.00    -0.051 A 
HETATM   19  C   UNL     1       8.231  22.809  55.162  1.00  0.00     0.031 A 
HETATM   20  C   UNL     1       8.190  21.641  54.397  1.00  0.00     0.034 A 
HETATM   21  C   UNL     1       8.178  20.393  55.012  1.00  0.00     0.024 A 
HETATM   22 CL   UNL     1       8.147  21.743  52.679  1.00  0.00    -0.084 Cl
HETATM   23  C   UNL     1       8.205  20.316  56.401  1.00  0.00     0.002 A 
HETATM   24  C   UNL     1       8.259  21.487  57.163  1.00  0.00     0.007 A 
ENDBRANCH  16  18
ENDBRANCH  12  15
ENDBRANCH   1  11
BRANCH   8  25
HETATM   25  C   UNL     1       5.511  29.685  51.085  1.00  0.00     0.270 C 
HETATM   26  N   UNL     1       4.966  30.278  52.190  1.00  0.00    -0.365 N 
HETATM   27  H   UNL     1       4.378  29.721  52.799  1.00  0.00     0.159 HD
HETATM   28  H   UNL     1       5.178  31.241  52.401  1.00  0.00     0.159 HD
HETATM   29  O   UNL     1       6.246  30.304  50.322  1.00  0.00    -0.266 OA
ENDBRANCH   8  25
TORSDOF 4
ENDMDL
MODEL 7
REMARK VINA RESULT:      -8.5      1.971      3.335
REMARK  4 active torsions:
REMARK  status: ('A' for Active; 'I' for Inactive)
REMARK    1  A    between atoms: C_6  and  C_7 
REMARK    2  A    between atoms: C_8  and  C_9 
REMARK       I    between atoms: C_9  and  N_10 
REMARK    3  A    between atoms: N_10  and  C_11 
REMARK    4  A    between atoms: C_18  and  C_19 
REMARK       I    between atoms: C_19  and  N_20 
ROOT
HETATM    1  C   UNL     1       5.610  25.953  51.938  1.00  0.00     0.035 A 
HETATM    2  C   UNL     1       5.396  26.856  52.993  1.00  0.00     0.046 A 
HETATM    3  C   UNL     1       4.662  28.038  52.762  1.00  0.00     0.030 A 
HETATM    4  C   UNL     1       4.187  28.292  51.483  1.00  0.00     0.063 A 
HETATM    5  N   UNL     1       3.531  29.487  51.569  1.00  0.00    -0.277 N 
HETATM    6  H   UNL     1       3.059  29.983  50.820  1.00  0.00     0.189 HD
HETATM    7  N   UNL     1       3.525  30.032  52.798  1.00  0.00    -0.168 NA
HETATM    8  C   UNL     1       4.221  29.146  53.546  1.00  0.00     0.156 A 
HETATM    9  C   UNL     1       4.399  27.427  50.409  1.00  0.00     0.034 A 
HETATM   10  C   UNL     1       5.117  26.251  50.665  1.00  0.00     0.032 A 
ENDROOT
BRANCH   1  11
HETATM   11  N   UNL     1       6.337  24.781  52.237  1.00  0.00    -0.327 N 
HETATM   12  C   UNL     1       7.701  24.669  52.400  1.00  0.00     0.227 C 
HETATM   13  O   UNL     1       8.542  25.535  52.209  1.00  0.00    -0.273 OA
HETATM   14  H   UNL     1       5.804  23.923  52.280  1.00  0.00     0.169 HD
BRANCH  12  15
HETATM   15  C   UNL     1       8.165  23.296  52.744  1.00  0.00     0.087 A 
HETATM   16  C   UNL     1       8.422  22.871  54.180  1.00  0.00     0.032 A 
HETATM   17  C   UNL     1       7.288  22.258  53.387  1.00  0.00     0.025 A 
BRANCH  16  18
HETATM   18  C   UNL     1       8.083  23.714  55.390  1.00  0.00    -0.051 A 
HETATM   19  C   UNL     1       6.770  24.132  55.663  1.00  0.00     0.031 A 
HETATM   20  C   UNL     1       6.477  24.921  56.778  1.00  0.00     0.034 A 
HETATM   21  C   UNL     1       7.490  25.338  57.635  1.00  0.00     0.024 A 
HETATM   22 CL   UNL     1       4.850  25.388  57.094  1.00  0.00    -0.084 Cl
HETATM   23  C   UNL     1       8.805  24.964  57.371  1.00  0.00     0.002 A 
HETATM   24  C   UNL     1       9.092  24.164  56.261  1.00  0.00     0.007 A 
ENDBRANCH  16  18
ENDBRANCH  12  15
ENDBRANCH   1  11
BRANCH   8  25
HETATM   25  C   UNL     1       4.443  29.364  54.982  1.00  0.00     0.270 C 
HETATM   26  N   UNL     1       5.341  30.355  55.264  1.00  0.00    -0.365 N 
HETATM   27  H   UNL     1       5.766  30.859  54.494  1.00  0.00     0.159 HD
HETATM   28  H   UNL     1       5.545  30.593  56.222  1.00  0.00     0.159 HD
HETATM   29  O   UNL     1       3.883  28.733  55.873  1.00  0.00    -0.266 OA
ENDBRANCH   8  25
TORSDOF 4
ENDMDL
MODEL 8
REMARK VINA RESULT:      -8.5     11.420     14.064
REMARK  4 active torsions:
REMARK  status: ('A' for Active; 'I' for Inactive)
REMARK    1  A    between atoms: C_6  and  C_7 
REMARK    2  A    between atoms: C_8  and  C_9 
REMARK       I    between atoms: C_9  and  N_10 
REMARK    3  A    between atoms: N_10  and  C_11 
REMARK    4  A    between atoms: C_18  and  C_19 
REMARK       I    between atoms: C_19  and  N_20 
ROOT
HETATM    1  C   UNL     1       6.957  33.225  63.195  1.00  0.00     0.035 A 
HETATM    2  C   UNL     1       6.340  33.246  61.933  1.00  0.00     0.046 A 
HETATM    3  C   UNL     1       6.820  32.406  60.906  1.00  0.00     0.030 A 
HETATM    4  C   UNL     1       7.913  31.591  61.165  1.00  0.00     0.063 A 
HETATM    5  N   UNL     1       8.142  30.909  60.003  1.00  0.00    -0.277 N 
HETATM    6  H   UNL     1       8.869  30.224  59.827  1.00  0.00     0.189 HD
HETATM    7  N   UNL     1       7.283  31.199  59.010  1.00  0.00    -0.168 NA
HETATM    8  C   UNL     1       6.461  32.124  59.555  1.00  0.00     0.156 A 
HETATM    9  C   UNL     1       8.562  31.560  62.400  1.00  0.00     0.034 A 
HETATM   10  C   UNL     1       8.058  32.392  63.410  1.00  0.00     0.032 A 
ENDROOT
BRANCH   1  11
HETATM   11  N   UNL     1       6.421  34.076  64.184  1.00  0.00    -0.327 N 
HETATM   12  C   UNL     1       5.278  33.869  64.927  1.00  0.00     0.227 C 
HETATM   13  O   UNL     1       4.462  32.969  64.792  1.00  0.00    -0.273 OA
HETATM   14  H   UNL     1       6.895  34.958  64.322  1.00  0.00     0.169 HD
BRANCH  12  15
HETATM   15  C   UNL     1       4.991  34.941  65.920  1.00  0.00     0.087 A 
HETATM   16  C   UNL     1       4.814  36.393  65.507  1.00  0.00     0.032 A 
HETATM   17  C   UNL     1       3.649  35.604  66.064  1.00  0.00     0.025 A 
BRANCH  16  18
HETATM   18  C   UNL     1       4.745  36.866  64.071  1.00  0.00    -0.051 A 
HETATM   19  C   UNL     1       5.821  37.520  63.449  1.00  0.00     0.031 A 
HETATM   20  C   UNL     1       5.735  37.961  62.126  1.00  0.00     0.034 A 
HETATM   21  C   UNL     1       4.563  37.787  61.399  1.00  0.00     0.024 A 
HETATM   22 CL   UNL     1       7.088  38.732  61.391  1.00  0.00    -0.084 Cl
HETATM   23  C   UNL     1       3.470  37.170  62.000  1.00  0.00     0.002 A 
HETATM   24  C   UNL     1       3.564  36.719  63.320  1.00  0.00     0.007 A 
ENDBRANCH  16  18
ENDBRANCH  12  15
ENDBRANCH   1  11
BRANCH   8  25
HETATM   25  C   UNL     1       5.351  32.708  58.789  1.00  0.00     0.270 C 
HETATM   26  N   UNL     1       4.112  32.309  59.209  1.00  0.00    -0.365 N 
HETATM   27  H   UNL     1       4.048  31.672  59.994  1.00  0.00     0.159 HD
HETATM   28  H   UNL     1       3.286  32.672  58.759  1.00  0.00     0.159 HD
HETATM   29  O   UNL     1       5.490  33.492  57.856  1.00  0.00    -0.266 OA
ENDBRANCH   8  25
TORSDOF 4
ENDMDL
MODEL 9
REMARK VINA RESULT:      -8.4      3.083      4.597
REMARK  4 active torsions:
REMARK  status: ('A' for Active; 'I' for Inactive)
REMARK    1  A    between atoms: C_6  and  C_7 
REMARK    2  A    between atoms: C_8  and  C_9 
REMARK       I    between atoms: C_9  and  N_10 
REMARK    3  A    between atoms: N_10  and  C_11 
REMARK    4  A    between atoms: C_18  and  C_19 
REMARK       I    between atoms: C_19  and  N_20 
ROOT
HETATM    1  C   UNL     1       5.417  28.328  56.466  1.00  0.00     0.035 A 
HETATM    2  C   UNL     1       4.842  28.232  55.188  1.00  0.00     0.046 A 
HETATM    3  C   UNL     1       4.266  29.374  54.593  1.00  0.00     0.030 A 
HETATM    4  C   UNL     1       4.261  30.567  55.301  1.00  0.00     0.063 A 
HETATM    5  N   UNL     1       3.646  31.473  54.485  1.00  0.00    -0.277 N 
HETATM    6  H   UNL     1       3.465  32.451  54.681  1.00  0.00     0.189 HD
HETATM    7  N   UNL     1       3.259  30.977  53.296  1.00  0.00    -0.168 NA
HETATM    8  C   UNL     1       3.636  29.680  53.350  1.00  0.00     0.156 A 
HETATM    9  C   UNL     1       4.805  30.693  56.581  1.00  0.00     0.034 A 
HETATM   10  C   UNL     1       5.386  29.549  57.146  1.00  0.00     0.032 A 
ENDROOT
BRANCH   1  11
HETATM   11  N   UNL     1       5.992  27.155  56.999  1.00  0.00    -0.327 N 
HETATM   12  C   UNL     1       7.332  26.833  57.043  1.00  0.00     0.227 C 
HETATM   13  O   UNL     1       8.257  27.448  56.533  1.00  0.00    -0.273 OA
HETATM   14  H   UNL     1       5.347  26.452  57.333  1.00  0.00     0.169 HD
BRANCH  12  15
HETATM   15  C   UNL     1       7.627  25.531  57.702  1.00  0.00     0.087 A 
HETATM   16  C   UNL     1       7.586  24.216  56.940  1.00  0.00     0.032 A 
HETATM   17  C   UNL     1       8.894  24.753  57.479  1.00  0.00     0.025 A 
BRANCH  16  18
HETATM   18  C   UNL     1       7.413  24.109  55.440  1.00  0.00    -0.051 A 
HETATM   19  C   UNL     1       6.225  24.492  54.797  1.00  0.00     0.031 A 
HETATM   20  C   UNL     1       6.079  24.374  53.412  1.00  0.00     0.034 A 
HETATM   21  C   UNL     1       7.104  23.843  52.637  1.00  0.00     0.024 A 
HETATM   22 CL   UNL     1       4.616  24.882  52.659  1.00  0.00    -0.084 Cl
HETATM   23  C   UNL     1       8.281  23.427  53.251  1.00  0.00     0.002 A 
HETATM   24  C   UNL     1       8.428  23.558  54.635  1.00  0.00     0.007 A 
ENDBRANCH  16  18
ENDBRANCH  12  15
ENDBRANCH   1  11
BRANCH   8  25
HETATM   25  C   UNL     1       3.402  28.767  52.223  1.00  0.00     0.270 C 
HETATM   26  N   UNL     1       2.087  28.639  51.872  1.00  0.00    -0.365 N 
HETATM   27  H   UNL     1       1.393  29.171  52.386  1.00  0.00     0.159 HD
HETATM   28  H   UNL     1       1.826  28.051  51.096  1.00  0.00     0.159 HD
HETATM   29  O   UNL     1       4.286  28.163  51.625  1.00  0.00    -0.266 OA
ENDBRANCH   8  25
TORSDOF 4
ENDMDL
MODEL 10
REMARK VINA RESULT:      -8.3      4.546      6.506
REMARK  4 active torsions:
REMARK  status: ('A' for Active; 'I' for Inactive)
REMARK    1  A    between atoms: C_6  and  C_7 
REMARK    2  A    between atoms: C_8  and  C_9 
REMARK       I    between atoms: C_9  and  N_10 
REMARK    3  A    between atoms: N_10  and  C_11 
REMARK    4  A    between atoms: C_18  and  C_19 
REMARK       I    between atoms: C_19  and  N_20 
ROOT
HETATM    1  C   UNL     1       5.236  27.771  56.419  1.00  0.00     0.035 A 
HETATM    2  C   UNL     1       4.890  28.802  57.309  1.00  0.00     0.046 A 
HETATM    3  C   UNL     1       4.145  29.906  56.845  1.00  0.00     0.030 A 
HETATM    4  C   UNL     1       3.791  29.958  55.504  1.00  0.00     0.063 A 
HETATM    5  N   UNL     1       3.092  31.122  55.357  1.00  0.00    -0.277 N 
HETATM    6  H   UNL     1       2.681  31.487  54.505  1.00  0.00     0.189 HD
HETATM    7  N   UNL     1       2.947  31.831  56.491  1.00  0.00    -0.168 NA
HETATM    8  C   UNL     1       3.594  31.090  57.418  1.00  0.00     0.156 A 
HETATM    9  C   UNL     1       4.136  28.963  54.588  1.00  0.00     0.034 A 
HETATM   10  C   UNL     1       4.863  27.867  55.076  1.00  0.00     0.032 A 
ENDROOT
BRANCH   1  11
HETATM   11  N   UNL     1       5.967  26.686  56.948  1.00  0.00    -0.327 N 
HETATM   12  C   UNL     1       7.338  26.552  56.992  1.00  0.00     0.227 C 
HETATM   13  O   UNL     1       8.170  27.290  56.487  1.00  0.00    -0.273 OA
HETATM   14  H   UNL     1       5.425  25.900  57.277  1.00  0.00     0.169 HD
BRANCH  12  15
HETATM   15  C   UNL     1       7.809  25.299  57.646  1.00  0.00     0.087 A 
HETATM   16  C   UNL     1       7.879  23.979  56.897  1.00  0.00     0.032 A 
HETATM   17  C   UNL     1       9.144  24.665  57.366  1.00  0.00     0.025 A 
BRANCH  16  18
HETATM   18  C   UNL     1       7.648  23.832  55.408  1.00  0.00    -0.051 A 
HETATM   19  C   UNL     1       6.495  24.332  54.781  1.00  0.00     0.031 A 
HETATM   20  C   UNL     1       6.292  24.176  53.407  1.00  0.00     0.034 A 
HETATM   21  C   UNL     1       7.220  23.493  52.629  1.00  0.00     0.024 A 
HETATM   22 CL   UNL     1       4.879  24.830  52.671  1.00  0.00    -0.084 Cl
HETATM   23  C   UNL     1       8.357  22.961  53.230  1.00  0.00     0.002 A 
HETATM   24  C   UNL     1       8.562  23.129  54.603  1.00  0.00     0.007 A 
ENDBRANCH  16  18
ENDBRANCH  12  15
ENDBRANCH   1  11
BRANCH   8  25
HETATM   25  C   UNL     1       3.665  31.514  58.823  1.00  0.00     0.270 C 
HETATM   26  N   UNL     1       3.144  30.610  59.707  1.00  0.00    -0.365 N 
HETATM   27  H   UNL     1       2.769  29.740  59.346  1.00  0.00     0.159 HD
HETATM   28  H   UNL     1       3.165  30.801  60.696  1.00  0.00     0.159 HD
HETATM   29  O   UNL     1       4.149  32.575  59.204  1.00  0.00    -0.266 OA
ENDBRANCH   8  25
TORSDOF 4
ENDMDL
