MODEL 1
REMARK VINA RESULT:      -9.4      0.000      0.000
REMARK  2 active torsions:
REMARK  status: ('A' for Active; 'I' for Inactive)
REMARK    1  A    between atoms: C_2  and  N_3 
REMARK    2  A    between atoms: N_3  and  C_4 
ROOT
HETATM    1  C   UNL     1       5.664  25.970  55.098  1.00  0.00     0.143 A 
HETATM    2  N   UNL     1       5.378  26.959  55.982  1.00  0.00    -0.223 NA
HETATM    3  C   UNL     1       6.116  27.100  57.088  1.00  0.00     0.236 A 
HETATM    4  N   UNL     1       7.152  26.359  57.464  1.00  0.00    -0.234 NA
HETATM    5  C   UNL     1       7.427  25.383  56.585  1.00  0.00     0.114 A 
HETATM    6  C   UNL     1       6.761  25.114  55.392  1.00  0.00     0.053 A 
HETATM    7  S   UNL     1       8.713  24.313  56.898  1.00  0.00    -0.073 SA
HETATM    8  C   UNL     1       8.416  23.446  55.473  1.00  0.00    -0.008 A 
HETATM    9  C   UNL     1       7.374  23.973  54.726  1.00  0.00    -0.028 A 
HETATM   10  C   UNL     1       6.961  23.333  53.428  1.00  0.00     0.041 C 
HETATM   11  C   UNL     1       7.977  22.297  52.918  1.00  0.00     0.005 C 
HETATM   12  C   UNL     1       8.519  21.413  54.045  1.00  0.00     0.005 C 
HETATM   13  C   UNL     1       9.245  22.254  55.102  1.00  0.00     0.047 C 
ENDROOT
BRANCH   1  14
HETATM   14  N   UNL     1       4.905  25.851  53.925  1.00  0.00    -0.340 N 
HETATM   15  H   UNL     1       4.113  25.236  54.001  1.00  0.00     0.167 HD
BRANCH  14  16
HETATM   16  C   UNL     1       5.070  26.406  52.643  1.00  0.00     0.036 A 
HETATM   17  C   UNL     1       4.862  25.690  51.458  1.00  0.00     0.032 A 
HETATM   18  C   UNL     1       5.006  26.300  50.208  1.00  0.00     0.042 A 
HETATM   19  C   UNL     1       5.312  27.654  50.123  1.00  0.00     0.102 A 
HETATM   20  C   UNL     1       5.509  28.390  51.290  1.00  0.00     0.104 A 
HETATM   21  O   UNL     1       5.498  28.171  48.871  1.00  0.00    -0.348 OA
HETATM   22  C   UNL     1       5.406  27.765  52.537  1.00  0.00     0.069 A 
HETATM   23  O   UNL     1       5.891  29.704  51.292  1.00  0.00    -0.348 OA
HETATM   24  C   UNL     1       4.910  30.546  50.686  1.00  0.00     0.178 C 
HETATM   25  C   UNL     1       5.015  30.550  49.168  1.00  0.00     0.053 C 
HETATM   26  C   UNL     1       4.570  29.217  48.583  1.00  0.00     0.178 C 
ENDBRANCH  14  16
ENDBRANCH   1  14
TORSDOF 2
ENDMDL
MODEL 2
REMARK VINA RESULT:      -9.3      1.496      2.221
REMARK  2 active torsions:
REMARK  status: ('A' for Active; 'I' for Inactive)
REMARK    1  A    between atoms: C_2  and  N_3 
REMARK    2  A    between atoms: N_3  and  C_4 
ROOT
HETATM    1  C   UNL     1       7.363  25.849  54.217  1.00  0.00     0.143 A 
HETATM    2  N   UNL     1       7.269  26.981  54.959  1.00  0.00    -0.223 NA
HETATM    3  C   UNL     1       7.519  26.943  56.272  1.00  0.00     0.236 A 
HETATM    4  N   UNL     1       7.867  25.883  56.993  1.00  0.00    -0.234 NA
HETATM    5  C   UNL     1       7.956  24.768  56.253  1.00  0.00     0.114 A 
HETATM    6  C   UNL     1       7.737  24.649  54.883  1.00  0.00     0.053 A 
HETATM    7  S   UNL     1       8.375  23.298  57.001  1.00  0.00    -0.073 SA
HETATM    8  C   UNL     1       8.258  22.452  55.538  1.00  0.00    -0.008 A 
HETATM    9  C   UNL     1       7.942  23.269  54.465  1.00  0.00    -0.028 A 
HETATM   10  C   UNL     1       7.792  22.694  53.082  1.00  0.00     0.041 C 
HETATM   11  C   UNL     1       8.312  21.251  52.970  1.00  0.00     0.005 C 
HETATM   12  C   UNL     1       7.918  20.398  54.179  1.00  0.00     0.005 C 
HETATM   13  C   UNL     1       8.503  20.975  55.473  1.00  0.00     0.047 C 
ENDROOT
BRANCH   1  14
HETATM   14  N   UNL     1       7.131  25.906  52.835  1.00  0.00    -0.340 N 
HETATM   15  H   UNL     1       7.765  25.355  52.283  1.00  0.00     0.167 HD
BRANCH  14  16
HETATM   16  C   UNL     1       6.194  26.627  52.072  1.00  0.00     0.036 A 
HETATM   17  C   UNL     1       5.891  27.975  52.295  1.00  0.00     0.032 A 
HETATM   18  C   UNL     1       4.975  28.655  51.485  1.00  0.00     0.042 A 
HETATM   19  C   UNL     1       4.384  28.008  50.405  1.00  0.00     0.102 A 
HETATM   20  C   UNL     1       4.682  26.670  50.156  1.00  0.00     0.104 A 
HETATM   21  O   UNL     1       3.454  28.713  49.693  1.00  0.00    -0.348 OA
HETATM   22  C   UNL     1       5.566  25.983  50.994  1.00  0.00     0.069 A 
HETATM   23  O   UNL     1       4.084  25.940  49.165  1.00  0.00    -0.348 OA
HETATM   24  C   UNL     1       4.382  26.457  47.868  1.00  0.00     0.178 C 
HETATM   25  C   UNL     1       3.488  27.632  47.499  1.00  0.00     0.053 C 
HETATM   26  C   UNL     1       3.832  28.864  48.324  1.00  0.00     0.178 C 
ENDBRANCH  14  16
ENDBRANCH   1  14
TORSDOF 2
ENDMDL
MODEL 3
REMARK VINA RESULT:      -9.3      4.033      6.919
REMARK  2 active torsions:
REMARK  status: ('A' for Active; 'I' for Inactive)
REMARK    1  A    between atoms: C_2  and  N_3 
REMARK    2  A    between atoms: N_3  and  C_4 
ROOT
HETATM    1  C   UNL     1       6.428  27.794  55.274  1.00  0.00     0.143 A 
HETATM    2  N   UNL     1       5.158  27.559  54.857  1.00  0.00    -0.223 NA
HETATM    3  C   UNL     1       4.151  28.302  55.329  1.00  0.00     0.236 A 
HETATM    4  N   UNL     1       4.229  29.298  56.205  1.00  0.00    -0.234 NA
HETATM    5  C   UNL     1       5.488  29.522  56.613  1.00  0.00     0.114 A 
HETATM    6  C   UNL     1       6.635  28.845  56.211  1.00  0.00     0.053 A 
HETATM    7  S   UNL     1       5.792  30.751  57.751  1.00  0.00    -0.073 SA
HETATM    8  C   UNL     1       7.451  30.410  57.763  1.00  0.00    -0.008 A 
HETATM    9  C   UNL     1       7.802  29.398  56.884  1.00  0.00    -0.028 A 
HETATM   10  C   UNL     1       9.234  28.953  56.759  1.00  0.00     0.041 C 
HETATM   11  C   UNL     1      10.224  29.914  57.440  1.00  0.00     0.005 C 
HETATM   12  C   UNL     1       9.712  30.407  58.796  1.00  0.00     0.005 C 
HETATM   13  C   UNL     1       8.394  31.175  58.640  1.00  0.00     0.047 C 
ENDROOT
BRANCH   1  14
HETATM   14  N   UNL     1       7.481  27.031  54.748  1.00  0.00    -0.340 N 
HETATM   15  H   UNL     1       8.358  27.518  54.686  1.00  0.00     0.167 HD
BRANCH  14  16
HETATM   16  C   UNL     1       7.526  25.714  54.255  1.00  0.00     0.036 A 
HETATM   17  C   UNL     1       7.790  25.400  52.916  1.00  0.00     0.032 A 
HETATM   18  C   UNL     1       7.859  24.072  52.483  1.00  0.00     0.042 A 
HETATM   19  C   UNL     1       7.713  23.033  53.396  1.00  0.00     0.102 A 
HETATM   20  C   UNL     1       7.464  23.322  54.736  1.00  0.00     0.104 A 
HETATM   21  O   UNL     1       7.731  21.760  52.895  1.00  0.00    -0.348 OA
HETATM   22  C   UNL     1       7.355  24.651  55.155  1.00  0.00     0.069 A 
HETATM   23  O   UNL     1       7.230  22.359  55.680  1.00  0.00    -0.348 OA
HETATM   24  C   UNL     1       8.361  21.507  55.865  1.00  0.00     0.178 C 
HETATM   25  C   UNL     1       8.433  20.412  54.810  1.00  0.00     0.053 C 
HETATM   26  C   UNL     1       8.794  20.984  53.447  1.00  0.00     0.178 C 
ENDBRANCH  14  16
ENDBRANCH   1  14
TORSDOF 2
ENDMDL
MODEL 4
REMARK VINA RESULT:      -9.2      3.774      6.025
REMARK  2 active torsions:
REMARK  status: ('A' for Active; 'I' for Inactive)
REMARK    1  A    between atoms: C_2  and  N_3 
REMARK    2  A    between atoms: N_3  and  C_4 
ROOT
HETATM    1  C   UNL     1       7.616  25.408  54.780  1.00  0.00     0.143 A 
HETATM    2  N   UNL     1       7.380  26.234  53.730  1.00  0.00    -0.223 NA
HETATM    3  C   UNL     1       7.317  25.736  52.490  1.00  0.00     0.236 A 
HETATM    4  N   UNL     1       7.464  24.468  52.124  1.00  0.00    -0.234 NA
HETATM    5  C   UNL     1       7.698  23.659  53.169  1.00  0.00     0.114 A 
HETATM    6  C   UNL     1       7.784  24.021  54.510  1.00  0.00     0.053 A 
HETATM    7  S   UNL     1       7.932  21.994  52.901  1.00  0.00    -0.073 SA
HETATM    8  C   UNL     1       8.175  21.703  54.553  1.00  0.00    -0.008 A 
HETATM    9  C   UNL     1       8.045  22.845  55.328  1.00  0.00    -0.028 A 
HETATM   10  C   UNL     1       8.230  22.784  56.820  1.00  0.00     0.041 C 
HETATM   11  C   UNL     1       8.259  21.345  57.364  1.00  0.00     0.005 C 
HETATM   12  C   UNL     1       9.074  20.404  56.472  1.00  0.00     0.005 C 
HETATM   13  C   UNL     1       8.475  20.327  55.063  1.00  0.00     0.047 C 
ENDROOT
BRANCH   1  14
HETATM   14  N   UNL     1       7.648  25.934  56.080  1.00  0.00    -0.340 N 
HETATM   15  H   UNL     1       7.872  25.265  56.796  1.00  0.00     0.167 HD
BRANCH  14  16
HETATM   16  C   UNL     1       7.386  27.225  56.573  1.00  0.00     0.036 A 
HETATM   17  C   UNL     1       6.108  27.671  56.929  1.00  0.00     0.032 A 
HETATM   18  C   UNL     1       5.905  28.954  57.447  1.00  0.00     0.042 A 
HETATM   19  C   UNL     1       6.990  29.797  57.667  1.00  0.00     0.102 A 
HETATM   20  C   UNL     1       8.274  29.368  57.334  1.00  0.00     0.104 A 
HETATM   21  O   UNL     1       6.715  31.058  58.118  1.00  0.00    -0.348 OA
HETATM   22  C   UNL     1       8.465  28.100  56.776  1.00  0.00     0.069 A 
HETATM   23  O   UNL     1       9.382  30.164  57.443  1.00  0.00    -0.348 OA
HETATM   24  C   UNL     1       9.639  30.538  58.797  1.00  0.00     0.178 C 
HETATM   25  C   UNL     1       8.786  31.717  59.239  1.00  0.00     0.053 C 
HETATM   26  C   UNL     1       7.325  31.316  59.383  1.00  0.00     0.178 C 
ENDBRANCH  14  16
ENDBRANCH   1  14
TORSDOF 2
ENDMDL
MODEL 5
REMARK VINA RESULT:      -9.0      3.447      6.972
REMARK  2 active torsions:
REMARK  status: ('A' for Active; 'I' for Inactive)
REMARK    1  A    between atoms: C_2  and  N_3 
REMARK    2  A    between atoms: N_3  and  C_4 
ROOT
HETATM    1  C   UNL     1       6.862  27.571  53.930  1.00  0.00     0.143 A 
HETATM    2  N   UNL     1       7.101  28.097  55.157  1.00  0.00    -0.223 NA
HETATM    3  C   UNL     1       6.282  29.030  55.655  1.00  0.00     0.236 A 
HETATM    4  N   UNL     1       5.203  29.545  55.075  1.00  0.00    -0.234 NA
HETATM    5  C   UNL     1       4.976  29.020  53.861  1.00  0.00     0.114 A 
HETATM    6  C   UNL     1       5.726  28.042  53.215  1.00  0.00     0.053 A 
HETATM    7  S   UNL     1       3.645  29.564  52.950  1.00  0.00    -0.073 SA
HETATM    8  C   UNL     1       4.033  28.536  51.661  1.00  0.00    -0.008 A 
HETATM    9  C   UNL     1       5.142  27.744  51.915  1.00  0.00    -0.028 A 
HETATM   10  C   UNL     1       5.640  26.769  50.882  1.00  0.00     0.041 C 
HETATM   11  C   UNL     1       4.644  26.551  49.731  1.00  0.00     0.005 C 
HETATM   12  C   UNL     1       3.996  27.859  49.269  1.00  0.00     0.005 C 
HETATM   13  C   UNL     1       3.209  28.515  50.410  1.00  0.00     0.047 C 
ENDROOT
BRANCH   1  14
HETATM   14  N   UNL     1       7.708  26.569  53.431  1.00  0.00    -0.340 N 
HETATM   15  H   UNL     1       8.467  26.907  52.865  1.00  0.00     0.167 HD
BRANCH  14  16
HETATM   16  C   UNL     1       7.668  25.167  53.547  1.00  0.00     0.036 A 
HETATM   17  C   UNL     1       7.823  24.298  52.460  1.00  0.00     0.032 A 
HETATM   18  C   UNL     1       7.810  22.910  52.634  1.00  0.00     0.042 A 
HETATM   19  C   UNL     1       7.690  22.369  53.910  1.00  0.00     0.102 A 
HETATM   20  C   UNL     1       7.549  23.216  55.008  1.00  0.00     0.104 A 
HETATM   21  O   UNL     1       7.623  21.006  54.002  1.00  0.00    -0.348 OA
HETATM   22  C   UNL     1       7.520  24.601  54.823  1.00  0.00     0.069 A 
HETATM   23  O   UNL     1       7.346  22.762  56.283  1.00  0.00    -0.348 OA
HETATM   24  C   UNL     1       8.453  21.997  56.761  1.00  0.00     0.178 C 
HETATM   25  C   UNL     1       8.408  20.556  56.274  1.00  0.00     0.053 C 
HETATM   26  C   UNL     1       8.693  20.471  54.782  1.00  0.00     0.178 C 
ENDBRANCH  14  16
ENDBRANCH   1  14
TORSDOF 2
ENDMDL
MODEL 6
REMARK VINA RESULT:      -9.0      3.371      7.183
REMARK  2 active torsions:
REMARK  status: ('A' for Active; 'I' for Inactive)
REMARK    1  A    between atoms: C_2  and  N_3 
REMARK    2  A    between atoms: N_3  and  C_4 
ROOT
HETATM    1  C   UNL     1       4.222  27.540  52.941  1.00  0.00     0.143 A 
HETATM    2  N   UNL     1       4.017  28.277  54.062  1.00  0.00    -0.223 NA
HETATM    3  C   UNL     1       3.815  29.595  53.967  1.00  0.00     0.236 A 
HETATM    4  N   UNL     1       3.789  30.327  52.859  1.00  0.00    -0.234 NA
HETATM    5  C   UNL     1       3.995  29.591  51.756  1.00  0.00     0.114 A 
HETATM    6  C   UNL     1       4.209  28.217  51.690  1.00  0.00     0.053 A 
HETATM    7  S   UNL     1       4.014  30.352  50.234  1.00  0.00    -0.073 SA
HETATM    8  C   UNL     1       4.329  28.889  49.440  1.00  0.00    -0.008 A 
HETATM    9  C   UNL     1       4.383  27.806  50.304  1.00  0.00    -0.028 A 
HETATM   10  C   UNL     1       4.656  26.422  49.781  1.00  0.00     0.041 C 
HETATM   11  C   UNL     1       4.552  26.325  48.250  1.00  0.00     0.005 C 
HETATM   12  C   UNL     1       5.192  27.527  47.548  1.00  0.00     0.005 C 
HETATM   13  C   UNL     1       4.499  28.833  47.953  1.00  0.00     0.047 C 
ENDROOT
BRANCH   1  14
HETATM   14  N   UNL     1       4.399  26.153  53.048  1.00  0.00    -0.340 N 
HETATM   15  H   UNL     1       3.687  25.605  52.597  1.00  0.00     0.167 HD
BRANCH  14  16
HETATM   16  C   UNL     1       5.375  25.382  53.707  1.00  0.00     0.036 A 
HETATM   17  C   UNL     1       5.541  25.371  55.097  1.00  0.00     0.032 A 
HETATM   18  C   UNL     1       6.504  24.559  55.705  1.00  0.00     0.042 A 
HETATM   19  C   UNL     1       7.285  23.706  54.933  1.00  0.00     0.102 A 
HETATM   20  C   UNL     1       7.127  23.690  53.548  1.00  0.00     0.104 A 
HETATM   21  O   UNL     1       8.248  22.986  55.585  1.00  0.00    -0.348 OA
HETATM   22  C   UNL     1       6.192  24.534  52.942  1.00  0.00     0.069 A 
HETATM   23  O   UNL     1       7.909  22.940  52.713  1.00  0.00    -0.348 OA
HETATM   24  C   UNL     1       7.754  21.540  52.949  1.00  0.00     0.178 C 
HETATM   25  C   UNL     1       8.597  21.059  54.121  1.00  0.00     0.053 C 
HETATM   26  C   UNL     1       8.051  21.579  55.442  1.00  0.00     0.178 C 
ENDBRANCH  14  16
ENDBRANCH   1  14
TORSDOF 2
ENDMDL
MODEL 7
REMARK VINA RESULT:      -9.0      3.828      6.672
REMARK  2 active torsions:
REMARK  status: ('A' for Active; 'I' for Inactive)
REMARK    1  A    between atoms: C_2  and  N_3 
REMARK    2  A    between atoms: N_3  and  C_4 
ROOT
HETATM    1  C   UNL     1       5.400  27.272  55.444  1.00  0.00     0.143 A 
HETATM    2  N   UNL     1       4.558  28.042  54.708  1.00  0.00    -0.223 NA
HETATM    3  C   UNL     1       4.247  27.684  53.458  1.00  0.00     0.236 A 
HETATM    4  N   UNL     1       4.676  26.614  52.798  1.00  0.00    -0.234 NA
HETATM    5  C   UNL     1       5.508  25.860  53.532  1.00  0.00     0.114 A 
HETATM    6  C   UNL     1       5.919  26.093  54.842  1.00  0.00     0.053 A 
HETATM    7  S   UNL     1       6.180  24.451  52.853  1.00  0.00    -0.073 SA
HETATM    8  C   UNL     1       7.053  24.116  54.266  1.00  0.00    -0.008 A 
HETATM    9  C   UNL     1       6.820  25.035  55.276  1.00  0.00    -0.028 A 
HETATM   10  C   UNL     1       7.511  24.904  56.607  1.00  0.00     0.041 C 
HETATM   11  C   UNL     1       8.203  23.543  56.793  1.00  0.00     0.005 C 
HETATM   12  C   UNL     1       8.931  23.084  55.526  1.00  0.00     0.005 C 
HETATM   13  C   UNL     1       7.951  22.920  54.358  1.00  0.00     0.047 C 
ENDROOT
BRANCH   1  14
HETATM   14  N   UNL     1       5.694  27.639  56.766  1.00  0.00    -0.340 N 
HETATM   15  H   UNL     1       5.603  26.894  57.435  1.00  0.00     0.167 HD
BRANCH  14  16
HETATM   16  C   UNL     1       6.057  28.873  57.336  1.00  0.00     0.036 A 
HETATM   17  C   UNL     1       5.179  29.957  57.453  1.00  0.00     0.032 A 
HETATM   18  C   UNL     1       5.580  31.152  58.061  1.00  0.00     0.042 A 
HETATM   19  C   UNL     1       6.855  31.263  58.607  1.00  0.00     0.102 A 
HETATM   20  C   UNL     1       7.740  30.191  58.514  1.00  0.00     0.104 A 
HETATM   21  O   UNL     1       7.202  32.478  59.130  1.00  0.00    -0.348 OA
HETATM   22  C   UNL     1       7.348  29.014  57.869  1.00  0.00     0.069 A 
HETATM   23  O   UNL     1       9.035  30.248  58.954  1.00  0.00    -0.348 OA
HETATM   24  C   UNL     1       9.111  30.450  60.365  1.00  0.00     0.178 C 
HETATM   25  C   UNL     1       8.951  31.916  60.744  1.00  0.00     0.053 C 
HETATM   26  C   UNL     1       7.522  32.388  60.519  1.00  0.00     0.178 C 
ENDBRANCH  14  16
ENDBRANCH   1  14
TORSDOF 2
ENDMDL
MODEL 8
REMARK VINA RESULT:      -8.9      3.943      6.433
REMARK  2 active torsions:
REMARK  status: ('A' for Active; 'I' for Inactive)
REMARK    1  A    between atoms: C_2  and  N_3 
REMARK    2  A    between atoms: N_3  and  C_4 
ROOT
HETATM    1  C   UNL     1       6.480  27.252  54.264  1.00  0.00     0.143 A 
HETATM    2  N   UNL     1       5.897  28.028  53.315  1.00  0.00    -0.223 NA
HETATM    3  C   UNL     1       5.748  27.564  52.070  1.00  0.00     0.236 A 
HETATM    4  N   UNL     1       6.117  26.374  51.606  1.00  0.00    -0.234 NA
HETATM    5  C   UNL     1       6.693  25.615  52.550  1.00  0.00     0.114 A 
HETATM    6  C   UNL     1       6.911  25.951  53.883  1.00  0.00     0.053 A 
HETATM    7  S   UNL     1       7.250  24.058  52.146  1.00  0.00    -0.073 SA
HETATM    8  C   UNL     1       7.816  23.787  53.719  1.00  0.00    -0.008 A 
HETATM    9  C   UNL     1       7.558  24.846  54.576  1.00  0.00    -0.028 A 
HETATM   10  C   UNL     1       7.991  24.789  56.016  1.00  0.00     0.041 C 
HETATM   11  C   UNL     1       8.432  23.383  56.457  1.00  0.00     0.005 C 
HETATM   12  C   UNL     1       9.283  22.682  55.395  1.00  0.00     0.005 C 
HETATM   13  C   UNL     1       8.498  22.506  54.090  1.00  0.00     0.047 C 
ENDROOT
BRANCH   1  14
HETATM   14  N   UNL     1       6.602  27.736  55.574  1.00  0.00    -0.340 N 
HETATM   15  H   UNL     1       5.799  27.571  56.156  1.00  0.00     0.167 HD
BRANCH  14  16
HETATM   16  C   UNL     1       7.630  28.448  56.217  1.00  0.00     0.036 A 
HETATM   17  C   UNL     1       8.774  28.916  55.559  1.00  0.00     0.032 A 
HETATM   18  C   UNL     1       9.752  29.650  56.238  1.00  0.00     0.042 A 
HETATM   19  C   UNL     1       9.576  29.971  57.580  1.00  0.00     0.102 A 
HETATM   20  C   UNL     1       8.439  29.528  58.252  1.00  0.00     0.104 A 
HETATM   21  O   UNL     1      10.599  30.638  58.197  1.00  0.00    -0.348 OA
HETATM   22  C   UNL     1       7.485  28.759  57.579  1.00  0.00     0.069 A 
HETATM   23  O   UNL     1       8.231  29.732  59.589  1.00  0.00    -0.348 OA
HETATM   24  C   UNL     1       8.124  31.120  59.907  1.00  0.00     0.178 C 
HETATM   25  C   UNL     1       9.486  31.783  60.049  1.00  0.00     0.053 C 
HETATM   26  C   UNL     1      10.181  31.906  58.701  1.00  0.00     0.178 C 
ENDBRANCH  14  16
ENDBRANCH   1  14
TORSDOF 2
ENDMDL
MODEL 9
REMARK VINA RESULT:      -8.9      2.030      2.507
REMARK  2 active torsions:
REMARK  status: ('A' for Active; 'I' for Inactive)
REMARK    1  A    between atoms: C_2  and  N_3 
REMARK    2  A    between atoms: N_3  and  C_4 
ROOT
HETATM    1  C   UNL     1       5.617  27.328  53.526  1.00  0.00     0.143 A 
HETATM    2  N   UNL     1       4.931  28.335  54.123  1.00  0.00    -0.223 NA
HETATM    3  C   UNL     1       4.645  28.267  55.428  1.00  0.00     0.236 A 
HETATM    4  N   UNL     1       4.959  27.288  56.270  1.00  0.00    -0.234 NA
HETATM    5  C   UNL     1       5.636  26.297  55.671  1.00  0.00     0.114 A 
HETATM    6  C   UNL     1       6.014  26.225  54.333  1.00  0.00     0.053 A 
HETATM    7  S   UNL     1       6.114  24.941  56.582  1.00  0.00    -0.073 SA
HETATM    8  C   UNL     1       6.819  24.206  55.228  1.00  0.00    -0.008 A 
HETATM    9  C   UNL     1       6.739  24.987  54.086  1.00  0.00    -0.028 A 
HETATM   10  C   UNL     1       7.308  24.498  52.781  1.00  0.00     0.041 C 
HETATM   11  C   UNL     1       8.205  23.259  52.943  1.00  0.00     0.005 C 
HETATM   12  C   UNL     1       7.621  22.244  53.928  1.00  0.00     0.005 C 
HETATM   13  C   UNL     1       7.467  22.859  55.325  1.00  0.00     0.047 C 
ENDROOT
BRANCH   1  14
HETATM   14  N   UNL     1       5.940  27.424  52.164  1.00  0.00    -0.340 N 
HETATM   15  H   UNL     1       6.900  27.659  51.980  1.00  0.00     0.167 HD
BRANCH  14  16
HETATM   16  C   UNL     1       5.156  27.288  51.005  1.00  0.00     0.036 A 
HETATM   17  C   UNL     1       4.957  26.070  50.345  1.00  0.00     0.032 A 
HETATM   18  C   UNL     1       4.139  25.983  49.214  1.00  0.00     0.042 A 
HETATM   19  C   UNL     1       3.464  27.109  48.753  1.00  0.00     0.102 A 
HETATM   20  C   UNL     1       3.635  28.329  49.403  1.00  0.00     0.104 A 
HETATM   21  O   UNL     1       2.730  26.967  47.608  1.00  0.00    -0.348 OA
HETATM   22  C   UNL     1       4.488  28.419  50.508  1.00  0.00     0.069 A 
HETATM   23  O   UNL     1       3.072  29.497  48.966  1.00  0.00    -0.348 OA
HETATM   24  C   UNL     1       1.646  29.448  49.003  1.00  0.00     0.178 C 
HETATM   25  C   UNL     1       1.063  28.747  47.785  1.00  0.00     0.053 C 
HETATM   26  C   UNL     1       1.348  27.253  47.822  1.00  0.00     0.178 C 
ENDBRANCH  14  16
ENDBRANCH   1  14
TORSDOF 2
ENDMDL
MODEL 10
REMARK VINA RESULT:      -8.7      3.202      5.801
REMARK  2 active torsions:
REMARK  status: ('A' for Active; 'I' for Inactive)
REMARK    1  A    between atoms: C_2  and  N_3 
REMARK    2  A    between atoms: N_3  and  C_4 
ROOT
HETATM    1  C   UNL     1       5.533  26.722  53.944  1.00  0.00     0.143 A 
HETATM    2  N   UNL     1       4.952  27.229  52.827  1.00  0.00    -0.223 NA
HETATM    3  C   UNL     1       5.164  26.647  51.642  1.00  0.00     0.236 A 
HETATM    4  N   UNL     1       5.912  25.578  51.393  1.00  0.00    -0.234 NA
HETATM    5  C   UNL     1       6.483  25.085  52.502  1.00  0.00     0.114 A 
HETATM    6  C   UNL     1       6.354  25.569  53.801  1.00  0.00     0.053 A 
HETATM    7  S   UNL     1       7.495  23.721  52.387  1.00  0.00    -0.073 SA
HETATM    8  C   UNL     1       7.811  23.742  54.051  1.00  0.00    -0.008 A 
HETATM    9  C   UNL     1       7.129  24.747  54.719  1.00  0.00    -0.028 A 
HETATM   10  C   UNL     1       7.288  24.924  56.205  1.00  0.00     0.041 C 
HETATM   11  C   UNL     1       7.993  23.737  56.881  1.00  0.00     0.005 C 
HETATM   12  C   UNL     1       9.180  23.224  56.061  1.00  0.00     0.005 C 
HETATM   13  C   UNL     1       8.725  22.735  54.680  1.00  0.00     0.047 C 
ENDROOT
BRANCH   1  14
HETATM   14  N   UNL     1       5.278  27.320  55.187  1.00  0.00    -0.340 N 
HETATM   15  H   UNL     1       4.405  27.051  55.608  1.00  0.00     0.167 HD
BRANCH  14  16
HETATM   16  C   UNL     1       6.004  28.260  55.940  1.00  0.00     0.036 A 
HETATM   17  C   UNL     1       5.527  28.836  57.124  1.00  0.00     0.032 A 
HETATM   18  C   UNL     1       6.304  29.741  57.854  1.00  0.00     0.042 A 
HETATM   19  C   UNL     1       7.596  30.047  57.436  1.00  0.00     0.102 A 
HETATM   20  C   UNL     1       8.096  29.474  56.269  1.00  0.00     0.104 A 
HETATM   21  O   UNL     1       8.277  30.984  58.163  1.00  0.00    -0.348 OA
HETATM   22  C   UNL     1       7.299  28.603  55.520  1.00  0.00     0.069 A 
HETATM   23  O   UNL     1       9.323  29.785  55.748  1.00  0.00    -0.348 OA
HETATM   24  C   UNL     1      10.386  29.412  56.626  1.00  0.00     0.178 C 
HETATM   25  C   UNL     1      10.620  30.448  57.716  1.00  0.00     0.053 C 
HETATM   26  C   UNL     1       9.479  30.456  58.722  1.00  0.00     0.178 C 
ENDBRANCH  14  16
ENDBRANCH   1  14
TORSDOF 2
ENDMDL
