MODEL 1
REMARK VINA RESULT:      -7.6      0.000      0.000
REMARK  6 active torsions:
REMARK  status: ('A' for Active; 'I' for Inactive)
REMARK    1  A    between atoms: C_2  and  O_3 
REMARK    2  A    between atoms: O_3  and  C_4 
REMARK    3  A    between atoms: C_4  and  C_5 
REMARK    4  A    between atoms: C_6  and  O_7 
REMARK    5  A    between atoms: C_12  and  O_13 
REMARK    6  A    between atoms: C_17  and  C_18 
ROOT
HETATM    1  C   UNL     1       5.462  26.662  53.889  1.00  0.00     0.133 C 
HETATM    2  C   UNL     1       5.242  25.509  52.862  1.00  0.00     0.073 C 
HETATM    3  C   UNL     1       4.946  26.021  51.444  1.00  0.00     0.047 C 
HETATM    4  C   UNL     1       6.419  24.490  52.806  1.00  0.00     0.097 C 
HETATM    5  C   UNL     1       6.901  24.197  54.179  1.00  0.00     0.042 A 
HETATM    6  C   UNL     1       6.667  24.936  55.320  1.00  0.00     0.030 A 
HETATM    7  C   UNL     1       7.252  24.151  56.330  1.00  0.00     0.190 A 
HETATM    8  N   UNL     1       7.851  23.056  55.878  1.00  0.00    -0.149 NA
HETATM    9  N   UNL     1       7.613  23.097  54.556  1.00  0.00    -0.279 N 
HETATM   10  H   UNL     1       7.947  22.327  53.984  1.00  0.00     0.189 HD
HETATM   11  C   UNL     1       5.839  26.180  55.323  1.00  0.00     0.075 C 
ENDROOT
BRANCH  11  12
HETATM   12  C   UNL     1       6.513  27.232  56.194  1.00  0.00    -0.045 A 
HETATM   13  C   UNL     1       7.908  27.373  56.300  1.00  0.00     0.050 A 
HETATM   14  C   UNL     1       8.462  28.396  57.065  1.00  0.00     0.117 A 
HETATM   15  F   UNL     1       9.794  28.510  57.144  1.00  0.00    -0.206 F 
HETATM   16  C   UNL     1       7.656  29.302  57.736  1.00  0.00     0.042 A 
HETATM   17  C   UNL     1       6.272  29.188  57.640  1.00  0.00     0.004 A 
HETATM   18  C   UNL     1       5.706  28.164  56.872  1.00  0.00     0.008 A 
ENDBRANCH  11  12
BRANCH   1  19
HETATM   19  C   UNL     1       6.375  27.744  53.349  1.00  0.00     0.267 C 
HETATM   20  O   UNL     1       7.584  27.584  53.234  1.00  0.00    -0.265 OA
BRANCH  19  21
HETATM   21  O   UNL     1       5.713  28.891  53.050  1.00  0.00    -0.316 OA
BRANCH  21  22
HETATM   22  C   UNL     1       4.376  29.003  53.576  1.00  0.00     0.123 C 
HETATM   23  C   UNL     1       3.379  29.133  52.428  1.00  0.00     0.040 C 
HETATM   24  C   UNL     1       4.336  30.243  54.460  1.00  0.00     0.040 C 
ENDBRANCH  21  22
ENDBRANCH  19  21
ENDBRANCH   1  19
BRANCH   2  25
HETATM   25  O   UNL     1       4.066  24.778  53.276  1.00  0.00    -0.389 OA
HETATM   26  H   UNL     1       4.338  24.059  53.874  1.00  0.00     0.210 HD
ENDBRANCH   2  25
BRANCH   7  27
HETATM   27  O   UNL     1       7.290  24.342  57.651  1.00  0.00    -0.343 OA
HETATM   28  H   UNL     1       8.083  24.847  57.885  1.00  0.00     0.219 HD
ENDBRANCH   7  27
TORSDOF 6
ENDMDL
MODEL 2
REMARK VINA RESULT:      -7.6      2.342      4.654
REMARK  6 active torsions:
REMARK  status: ('A' for Active; 'I' for Inactive)
REMARK    1  A    between atoms: C_2  and  O_3 
REMARK    2  A    between atoms: O_3  and  C_4 
REMARK    3  A    between atoms: C_4  and  C_5 
REMARK    4  A    between atoms: C_6  and  O_7 
REMARK    5  A    between atoms: C_12  and  O_13 
REMARK    6  A    between atoms: C_17  and  C_18 
ROOT
HETATM    1  C   UNL     1       7.248  25.706  53.944  1.00  0.00     0.133 C 
HETATM    2  C   UNL     1       6.475  25.027  52.771  1.00  0.00     0.073 C 
HETATM    3  C   UNL     1       6.730  23.515  52.684  1.00  0.00     0.047 C 
HETATM    4  C   UNL     1       4.940  25.290  52.799  1.00  0.00     0.097 C 
HETATM    5  C   UNL     1       4.676  26.706  53.161  1.00  0.00     0.042 A 
HETATM    6  C   UNL     1       5.549  27.593  53.753  1.00  0.00     0.030 A 
HETATM    7  C   UNL     1       4.823  28.797  53.758  1.00  0.00     0.190 A 
HETATM    8  N   UNL     1       3.592  28.682  53.275  1.00  0.00    -0.149 NA
HETATM    9  N   UNL     1       3.525  27.393  52.902  1.00  0.00    -0.279 N 
HETATM   10  H   UNL     1       2.673  27.064  52.459  1.00  0.00     0.189 HD
HETATM   11  C   UNL     1       6.954  27.228  54.109  1.00  0.00     0.075 C 
ENDROOT
BRANCH  11  12
HETATM   12  C   UNL     1       7.292  27.798  55.481  1.00  0.00    -0.045 A 
HETATM   13  C   UNL     1       8.579  28.230  55.845  1.00  0.00     0.050 A 
HETATM   14  C   UNL     1       8.810  28.799  57.095  1.00  0.00     0.117 A 
HETATM   15  F   UNL     1      10.044  29.207  57.414  1.00  0.00    -0.206 F 
HETATM   16  C   UNL     1       7.778  28.959  58.008  1.00  0.00     0.042 A 
HETATM   17  C   UNL     1       6.493  28.547  57.666  1.00  0.00     0.004 A 
HETATM   18  C   UNL     1       6.251  27.974  56.412  1.00  0.00     0.008 A 
ENDBRANCH  11  12
BRANCH   1  19
HETATM   19  C   UNL     1       7.136  24.919  55.234  1.00  0.00     0.267 C 
HETATM   20  O   UNL     1       6.094  24.859  55.877  1.00  0.00    -0.265 OA
BRANCH  19  21
HETATM   21  O   UNL     1       8.305  24.335  55.598  1.00  0.00    -0.316 OA
BRANCH  21  22
HETATM   22  C   UNL     1       8.275  22.900  55.742  1.00  0.00     0.123 C 
HETATM   23  C   UNL     1       8.422  22.527  57.214  1.00  0.00     0.040 C 
HETATM   24  C   UNL     1       9.435  22.336  54.931  1.00  0.00     0.040 C 
ENDBRANCH  21  22
ENDBRANCH  19  21
ENDBRANCH   1  19
BRANCH   2  25
HETATM   25  O   UNL     1       6.980  25.588  51.538  1.00  0.00    -0.389 OA
HETATM   26  H   UNL     1       6.441  25.255  50.798  1.00  0.00     0.210 HD
ENDBRANCH   2  25
BRANCH   7  27
HETATM   27  O   UNL     1       5.186  30.015  54.166  1.00  0.00    -0.343 OA
HETATM   28  H   UNL     1       5.881  29.941  54.837  1.00  0.00     0.219 HD
ENDBRANCH   7  27
TORSDOF 6
ENDMDL
MODEL 3
REMARK VINA RESULT:      -7.4      2.401      4.489
REMARK  6 active torsions:
REMARK  status: ('A' for Active; 'I' for Inactive)
REMARK    1  A    between atoms: C_2  and  O_3 
REMARK    2  A    between atoms: O_3  and  C_4 
REMARK    3  A    between atoms: C_4  and  C_5 
REMARK    4  A    between atoms: C_6  and  O_7 
REMARK    5  A    between atoms: C_12  and  O_13 
REMARK    6  A    between atoms: C_17  and  C_18 
ROOT
HETATM    1  C   UNL     1       7.156  27.741  55.723  1.00  0.00     0.133 C 
HETATM    2  C   UNL     1       7.816  27.833  57.134  1.00  0.00     0.073 C 
HETATM    3  C   UNL     1       7.354  29.063  57.930  1.00  0.00     0.047 C 
HETATM    4  C   UNL     1       7.617  26.554  58.001  1.00  0.00     0.097 C 
HETATM    5  C   UNL     1       7.791  25.342  57.162  1.00  0.00     0.042 A 
HETATM    6  C   UNL     1       7.755  25.267  55.786  1.00  0.00     0.030 A 
HETATM    7  C   UNL     1       8.088  23.925  55.533  1.00  0.00     0.190 A 
HETATM    8  N   UNL     1       8.259  23.200  56.631  1.00  0.00    -0.149 NA
HETATM    9  N   UNL     1       8.085  24.091  57.621  1.00  0.00    -0.279 N 
HETATM   10  H   UNL     1       8.206  23.776  58.578  1.00  0.00     0.189 HD
HETATM   11  C   UNL     1       7.544  26.464  54.916  1.00  0.00     0.075 C 
ENDROOT
BRANCH  11  12
HETATM   12  C   UNL     1       6.585  26.106  53.789  1.00  0.00    -0.045 A 
HETATM   13  C   UNL     1       6.687  26.631  52.488  1.00  0.00     0.050 A 
HETATM   14  C   UNL     1       5.815  26.216  51.485  1.00  0.00     0.117 A 
HETATM   15  F   UNL     1       5.939  26.727  50.253  1.00  0.00    -0.206 F 
HETATM   16  C   UNL     1       4.830  25.273  51.739  1.00  0.00     0.042 A 
HETATM   17  C   UNL     1       4.715  24.734  53.017  1.00  0.00     0.004 A 
HETATM   18  C   UNL     1       5.587  25.144  54.032  1.00  0.00     0.008 A 
ENDBRANCH  11  12
BRANCH   1  19
HETATM   19  C   UNL     1       5.664  28.003  55.770  1.00  0.00     0.267 C 
HETATM   20  O   UNL     1       4.899  27.317  56.437  1.00  0.00    -0.265 OA
BRANCH  19  21
HETATM   21  O   UNL     1       5.286  29.039  54.979  1.00  0.00    -0.316 OA
BRANCH  21  22
HETATM   22  C   UNL     1       3.879  29.122  54.677  1.00  0.00     0.123 C 
HETATM   23  C   UNL     1       3.610  28.516  53.303  1.00  0.00     0.040 C 
HETATM   24  C   UNL     1       3.494  30.596  54.695  1.00  0.00     0.040 C 
ENDBRANCH  21  22
ENDBRANCH  19  21
ENDBRANCH   1  19
BRANCH   2  25
HETATM   25  O   UNL     1       9.238  27.996  56.937  1.00  0.00    -0.389 OA
HETATM   26  H   UNL     1       9.644  28.260  57.782  1.00  0.00     0.210 HD
ENDBRANCH   2  25
BRANCH   7  27
HETATM   27  O   UNL     1       8.256  23.287  54.372  1.00  0.00    -0.343 OA
HETATM   28  H   UNL     1       7.448  22.801  54.147  1.00  0.00     0.219 HD
ENDBRANCH   7  27
TORSDOF 6
ENDMDL
MODEL 4
REMARK VINA RESULT:      -7.4      2.645      4.728
REMARK  6 active torsions:
REMARK  status: ('A' for Active; 'I' for Inactive)
REMARK    1  A    between atoms: C_2  and  O_3 
REMARK    2  A    between atoms: O_3  and  C_4 
REMARK    3  A    between atoms: C_4  and  C_5 
REMARK    4  A    between atoms: C_6  and  O_7 
REMARK    5  A    between atoms: C_12  and  O_13 
REMARK    6  A    between atoms: C_17  and  C_18 
ROOT
HETATM    1  C   UNL     1       7.525  25.679  53.622  1.00  0.00     0.133 C 
HETATM    2  C   UNL     1       7.025  24.665  52.547  1.00  0.00     0.073 C 
HETATM    3  C   UNL     1       7.206  23.201  52.977  1.00  0.00     0.047 C 
HETATM    4  C   UNL     1       5.547  24.895  52.111  1.00  0.00     0.097 C 
HETATM    5  C   UNL     1       5.285  26.349  51.961  1.00  0.00     0.042 A 
HETATM    6  C   UNL     1       6.036  27.389  52.465  1.00  0.00     0.030 A 
HETATM    7  C   UNL     1       5.402  28.525  51.932  1.00  0.00     0.190 A 
HETATM    8  N   UNL     1       4.322  28.247  51.212  1.00  0.00    -0.149 NA
HETATM    9  N   UNL     1       4.274  26.904  51.232  1.00  0.00    -0.279 N 
HETATM   10  H   UNL     1       3.539  26.442  50.706  1.00  0.00     0.189 HD
HETATM   11  C   UNL     1       7.288  27.175  53.252  1.00  0.00     0.075 C 
ENDROOT
BRANCH  11  12
HETATM   12  C   UNL     1       7.312  28.136  54.434  1.00  0.00    -0.045 A 
HETATM   13  C   UNL     1       6.158  28.536  55.131  1.00  0.00     0.050 A 
HETATM   14  C   UNL     1       6.253  29.369  56.242  1.00  0.00     0.117 A 
HETATM   15  F   UNL     1       5.138  29.730  56.891  1.00  0.00    -0.206 F 
HETATM   16  C   UNL     1       7.484  29.822  56.692  1.00  0.00     0.042 A 
HETATM   17  C   UNL     1       8.641  29.432  56.023  1.00  0.00     0.004 A 
HETATM   18  C   UNL     1       8.556  28.594  54.906  1.00  0.00     0.008 A 
ENDBRANCH  11  12
BRANCH   1  19
HETATM   19  C   UNL     1       7.056  25.313  55.016  1.00  0.00     0.267 C 
HETATM   20  O   UNL     1       5.869  25.230  55.307  1.00  0.00    -0.265 OA
BRANCH  19  21
HETATM   21  O   UNL     1       8.081  25.128  55.886  1.00  0.00    -0.316 OA
BRANCH  21  22
HETATM   22  C   UNL     1       7.715  24.997  57.274  1.00  0.00     0.123 C 
HETATM   23  C   UNL     1       7.609  26.378  57.912  1.00  0.00     0.040 C 
HETATM   24  C   UNL     1       8.802  24.176  57.956  1.00  0.00     0.040 C 
ENDBRANCH  21  22
ENDBRANCH  19  21
ENDBRANCH   1  19
BRANCH   2  25
HETATM   25  O   UNL     1       7.848  24.841  51.371  1.00  0.00    -0.389 OA
HETATM   26  H   UNL     1       8.539  25.498  51.567  1.00  0.00     0.210 HD
ENDBRANCH   2  25
BRANCH   7  27
HETATM   27  O   UNL     1       5.723  29.816  52.040  1.00  0.00    -0.343 OA
HETATM   28  H   UNL     1       5.287  30.197  52.818  1.00  0.00     0.219 HD
ENDBRANCH   7  27
TORSDOF 6
ENDMDL
MODEL 5
REMARK VINA RESULT:      -7.3      2.955      5.453
REMARK  6 active torsions:
REMARK  status: ('A' for Active; 'I' for Inactive)
REMARK    1  A    between atoms: C_2  and  O_3 
REMARK    2  A    between atoms: O_3  and  C_4 
REMARK    3  A    between atoms: C_4  and  C_5 
REMARK    4  A    between atoms: C_6  and  O_7 
REMARK    5  A    between atoms: C_12  and  O_13 
REMARK    6  A    between atoms: C_17  and  C_18 
ROOT
HETATM    1  C   UNL     1       5.860  27.474  54.737  1.00  0.00     0.133 C 
HETATM    2  C   UNL     1       5.102  28.828  54.577  1.00  0.00     0.073 C 
HETATM    3  C   UNL     1       5.624  29.920  55.524  1.00  0.00     0.047 C 
HETATM    4  C   UNL     1       5.097  29.373  53.117  1.00  0.00     0.097 C 
HETATM    5  C   UNL     1       4.866  28.259  52.163  1.00  0.00     0.042 A 
HETATM    6  C   UNL     1       5.005  26.909  52.406  1.00  0.00     0.030 A 
HETATM    7  C   UNL     1       4.556  26.324  51.209  1.00  0.00     0.190 A 
HETATM    8  N   UNL     1       4.222  27.205  50.275  1.00  0.00    -0.149 NA
HETATM    9  N   UNL     1       4.408  28.388  50.884  1.00  0.00    -0.279 N 
HETATM   10  H   UNL     1       4.178  29.234  50.372  1.00  0.00     0.189 HD
HETATM   11  C   UNL     1       5.408  26.365  53.738  1.00  0.00     0.075 C 
ENDROOT
BRANCH  11  12
HETATM   12  C   UNL     1       6.413  25.238  53.539  1.00  0.00    -0.045 A 
HETATM   13  C   UNL     1       6.466  24.094  54.355  1.00  0.00     0.050 A 
HETATM   14  C   UNL     1       7.368  23.069  54.084  1.00  0.00     0.117 A 
HETATM   15  F   UNL     1       7.393  21.988  54.873  1.00  0.00    -0.206 F 
HETATM   16  C   UNL     1       8.232  23.146  53.002  1.00  0.00     0.042 A 
HETATM   17  C   UNL     1       8.192  24.265  52.175  1.00  0.00     0.004 A 
HETATM   18  C   UNL     1       7.288  25.300  52.439  1.00  0.00     0.008 A 
ENDBRANCH  11  12
BRANCH   1  19
HETATM   19  C   UNL     1       7.363  27.663  54.800  1.00  0.00     0.267 C 
HETATM   20  O   UNL     1       7.981  28.293  53.950  1.00  0.00    -0.265 OA
BRANCH  19  21
HETATM   21  O   UNL     1       7.928  27.037  55.863  1.00  0.00    -0.316 OA
BRANCH  21  22
HETATM   22  C   UNL     1       7.144  27.018  57.074  1.00  0.00     0.123 C 
HETATM   23  C   UNL     1       7.612  28.130  58.008  1.00  0.00     0.040 C 
HETATM   24  C   UNL     1       7.344  25.655  57.725  1.00  0.00     0.040 C 
ENDBRANCH  21  22
ENDBRANCH  19  21
ENDBRANCH   1  19
BRANCH   2  25
HETATM   25  O   UNL     1       3.725  28.600  54.951  1.00  0.00    -0.389 OA
HETATM   26  H   UNL     1       3.165  29.259  54.502  1.00  0.00     0.210 HD
ENDBRANCH   2  25
BRANCH   7  27
HETATM   27  O   UNL     1       4.417  25.037  50.884  1.00  0.00    -0.343 OA
HETATM   28  H   UNL     1       5.202  24.543  51.165  1.00  0.00     0.219 HD
ENDBRANCH   7  27
TORSDOF 6
ENDMDL
MODEL 6
REMARK VINA RESULT:      -7.3      3.435      6.231
REMARK  6 active torsions:
REMARK  status: ('A' for Active; 'I' for Inactive)
REMARK    1  A    between atoms: C_2  and  O_3 
REMARK    2  A    between atoms: O_3  and  C_4 
REMARK    3  A    between atoms: C_4  and  C_5 
REMARK    4  A    between atoms: C_6  and  O_7 
REMARK    5  A    between atoms: C_12  and  O_13 
REMARK    6  A    between atoms: C_17  and  C_18 
ROOT
HETATM    1  C   UNL     1       6.046  27.631  55.737  1.00  0.00     0.133 C 
HETATM    2  C   UNL     1       6.181  28.694  56.871  1.00  0.00     0.073 C 
HETATM    3  C   UNL     1       7.407  28.457  57.767  1.00  0.00     0.047 C 
HETATM    4  C   UNL     1       6.198  30.162  56.352  1.00  0.00     0.097 C 
HETATM    5  C   UNL     1       5.190  30.330  55.274  1.00  0.00     0.042 A 
HETATM    6  C   UNL     1       4.579  29.334  54.541  1.00  0.00     0.030 A 
HETATM    7  C   UNL     1       3.651  30.043  53.758  1.00  0.00     0.190 A 
HETATM    8  N   UNL     1       3.702  31.358  53.926  1.00  0.00    -0.149 NA
HETATM    9  N   UNL     1       4.645  31.513  54.870  1.00  0.00    -0.279 N 
HETATM   10  H   UNL     1       4.842  32.452  55.203  1.00  0.00     0.189 HD
HETATM   11  C   UNL     1       4.855  27.882  54.762  1.00  0.00     0.075 C 
ENDROOT
BRANCH  11  12
HETATM   12  C   UNL     1       4.974  27.181  53.415  1.00  0.00    -0.045 A 
HETATM   13  C   UNL     1       5.353  27.837  52.230  1.00  0.00     0.050 A 
HETATM   14  C   UNL     1       5.503  27.127  51.042  1.00  0.00     0.117 A 
HETATM   15  F   UNL     1       5.870  27.776  49.930  1.00  0.00    -0.206 F 
HETATM   16  C   UNL     1       5.289  25.758  50.997  1.00  0.00     0.042 A 
HETATM   17  C   UNL     1       4.922  25.085  52.159  1.00  0.00     0.004 A 
HETATM   18  C   UNL     1       4.769  25.790  53.358  1.00  0.00     0.008 A 
ENDBRANCH  11  12
BRANCH   1  19
HETATM   19  C   UNL     1       7.364  27.369  55.036  1.00  0.00     0.267 C 
HETATM   20  O   UNL     1       8.022  28.266  54.523  1.00  0.00    -0.265 OA
BRANCH  19  21
HETATM   21  O   UNL     1       7.698  26.054  55.017  1.00  0.00    -0.316 OA
BRANCH  21  22
HETATM   22  C   UNL     1       7.289  25.283  56.164  1.00  0.00     0.123 C 
HETATM   23  C   UNL     1       8.458  25.142  57.134  1.00  0.00     0.040 C 
HETATM   24  C   UNL     1       6.848  23.914  55.660  1.00  0.00     0.040 C 
ENDBRANCH  21  22
ENDBRANCH  19  21
ENDBRANCH   1  19
BRANCH   2  25
HETATM   25  O   UNL     1       5.027  28.560  57.730  1.00  0.00    -0.389 OA
HETATM   26  H   UNL     1       5.273  28.835  58.632  1.00  0.00     0.210 HD
ENDBRANCH   2  25
BRANCH   7  27
HETATM   27  O   UNL     1       2.742  29.593  52.890  1.00  0.00    -0.343 OA
HETATM   28  H   UNL     1       2.735  30.159  52.103  1.00  0.00     0.219 HD
ENDBRANCH   7  27
TORSDOF 6
ENDMDL
MODEL 7
REMARK VINA RESULT:      -7.3      3.114      5.662
REMARK  6 active torsions:
REMARK  status: ('A' for Active; 'I' for Inactive)
REMARK    1  A    between atoms: C_2  and  O_3 
REMARK    2  A    between atoms: O_3  and  C_4 
REMARK    3  A    between atoms: C_4  and  C_5 
REMARK    4  A    between atoms: C_6  and  O_7 
REMARK    5  A    between atoms: C_12  and  O_13 
REMARK    6  A    between atoms: C_17  and  C_18 
ROOT
HETATM    1  C   UNL     1       5.902  28.518  57.436  1.00  0.00     0.133 C 
HETATM    2  C   UNL     1       5.429  30.000  57.557  1.00  0.00     0.073 C 
HETATM    3  C   UNL     1       6.209  30.791  58.618  1.00  0.00     0.047 C 
HETATM    4  C   UNL     1       5.462  30.778  56.207  1.00  0.00     0.097 C 
HETATM    5  C   UNL     1       4.960  29.910  55.111  1.00  0.00     0.042 A 
HETATM    6  C   UNL     1       4.832  28.537  55.126  1.00  0.00     0.030 A 
HETATM    7  C   UNL     1       4.214  28.264  53.893  1.00  0.00     0.190 A 
HETATM    8  N   UNL     1       4.021  29.340  53.141  1.00  0.00    -0.149 NA
HETATM    9  N   UNL     1       4.475  30.342  53.912  1.00  0.00    -0.279 N 
HETATM   10  H   UNL     1       4.397  31.292  53.561  1.00  0.00     0.189 HD
HETATM   11  C   UNL     1       5.183  27.705  56.317  1.00  0.00     0.075 C 
ENDROOT
BRANCH  11  12
HETATM   12  C   UNL     1       5.925  26.456  55.859  1.00  0.00    -0.045 A 
HETATM   13  C   UNL     1       6.753  26.420  54.723  1.00  0.00     0.050 A 
HETATM   14  C   UNL     1       7.454  25.263  54.392  1.00  0.00     0.117 A 
HETATM   15  F   UNL     1       8.240  25.257  53.308  1.00  0.00    -0.206 F 
HETATM   16  C   UNL     1       7.357  24.121  55.174  1.00  0.00     0.042 A 
HETATM   17  C   UNL     1       6.550  24.136  56.308  1.00  0.00     0.004 A 
HETATM   18  C   UNL     1       5.843  25.295  56.649  1.00  0.00     0.008 A 
ENDBRANCH  11  12
BRANCH   1  19
HETATM   19  C   UNL     1       7.412  28.400  57.403  1.00  0.00     0.267 C 
HETATM   20  O   UNL     1       8.027  27.646  58.149  1.00  0.00    -0.265 OA
BRANCH  19  21
HETATM   21  O   UNL     1       7.986  29.231  56.498  1.00  0.00    -0.316 OA
BRANCH  21  22
HETATM   22  C   UNL     1       9.427  29.208  56.444  1.00  0.00     0.123 C 
HETATM   23  C   UNL     1       9.993  30.347  57.285  1.00  0.00     0.040 C 
HETATM   24  C   UNL     1       9.831  29.370  54.983  1.00  0.00     0.040 C 
ENDBRANCH  21  22
ENDBRANCH  19  21
ENDBRANCH   1  19
BRANCH   2  25
HETATM   25  O   UNL     1       4.055  29.981  58.004  1.00  0.00    -0.389 OA
HETATM   26  H   UNL     1       3.474  29.878  57.228  1.00  0.00     0.210 HD
ENDBRANCH   2  25
BRANCH   7  27
HETATM   27  O   UNL     1       3.799  27.103  53.381  1.00  0.00    -0.343 OA
HETATM   28  H   UNL     1       4.564  26.542  53.181  1.00  0.00     0.219 HD
ENDBRANCH   7  27
TORSDOF 6
ENDMDL
MODEL 8
REMARK VINA RESULT:      -7.0      3.163      4.996
REMARK  6 active torsions:
REMARK  status: ('A' for Active; 'I' for Inactive)
REMARK    1  A    between atoms: C_2  and  O_3 
REMARK    2  A    between atoms: O_3  and  C_4 
REMARK    3  A    between atoms: C_4  and  C_5 
REMARK    4  A    between atoms: C_6  and  O_7 
REMARK    5  A    between atoms: C_12  and  O_13 
REMARK    6  A    between atoms: C_17  and  C_18 
ROOT
HETATM    1  C   UNL     1       6.245  27.818  52.922  1.00  0.00     0.133 C 
HETATM    2  C   UNL     1       5.485  28.536  51.764  1.00  0.00     0.073 C 
HETATM    3  C   UNL     1       5.489  27.728  50.456  1.00  0.00     0.047 C 
HETATM    4  C   UNL     1       4.020  28.923  52.124  1.00  0.00     0.097 C 
HETATM    5  C   UNL     1       3.963  29.455  53.509  1.00  0.00     0.042 A 
HETATM    6  C   UNL     1       4.913  29.309  54.498  1.00  0.00     0.030 A 
HETATM    7  C   UNL     1       4.402  30.096  55.546  1.00  0.00     0.190 A 
HETATM    8  N   UNL     1       3.221  30.640  55.280  1.00  0.00    -0.149 NA
HETATM    9  N   UNL     1       2.974  30.244  54.020  1.00  0.00    -0.279 N 
HETATM   10  H   UNL     1       2.126  30.573  53.571  1.00  0.00     0.189 HD
HETATM   11  C   UNL     1       6.197  28.574  54.285  1.00  0.00     0.075 C 
ENDROOT
BRANCH  11  12
HETATM   12  C   UNL     1       6.492  27.711  55.504  1.00  0.00    -0.045 A 
HETATM   13  C   UNL     1       5.535  26.886  56.121  1.00  0.00     0.050 A 
HETATM   14  C   UNL     1       5.884  26.073  57.196  1.00  0.00     0.117 A 
HETATM   15  F   UNL     1       4.954  25.294  57.760  1.00  0.00    -0.206 F 
HETATM   16  C   UNL     1       7.183  26.052  57.682  1.00  0.00     0.042 A 
HETATM   17  C   UNL     1       8.150  26.853  57.082  1.00  0.00     0.004 A 
HETATM   18  C   UNL     1       7.809  27.673  56.000  1.00  0.00     0.008 A 
ENDBRANCH  11  12
BRANCH   1  19
HETATM   19  C   UNL     1       5.880  26.351  53.024  1.00  0.00     0.267 C 
HETATM   20  O   UNL     1       4.718  25.965  53.046  1.00  0.00    -0.265 OA
BRANCH  19  21
HETATM   21  O   UNL     1       6.967  25.544  53.122  1.00  0.00    -0.316 OA
BRANCH  21  22
HETATM   22  C   UNL     1       6.695  24.141  53.317  1.00  0.00     0.123 C 
HETATM   23  C   UNL     1       6.884  23.779  54.786  1.00  0.00     0.040 C 
HETATM   24  C   UNL     1       7.672  23.362  52.445  1.00  0.00     0.040 C 
ENDBRANCH  21  22
ENDBRANCH  19  21
ENDBRANCH   1  19
BRANCH   2  25
HETATM   25  O   UNL     1       6.191  29.763  51.476  1.00  0.00    -0.389 OA
HETATM   26  H   UNL     1       6.945  29.842  52.088  1.00  0.00     0.210 HD
ENDBRANCH   2  25
BRANCH   7  27
HETATM   27  O   UNL     1       4.923  30.372  56.744  1.00  0.00    -0.343 OA
HETATM   28  H   UNL     1       4.736  29.645  57.356  1.00  0.00     0.219 HD
ENDBRANCH   7  27
TORSDOF 6
ENDMDL
MODEL 9
REMARK VINA RESULT:      -6.9      7.622     10.163
REMARK  6 active torsions:
REMARK  status: ('A' for Active; 'I' for Inactive)
REMARK    1  A    between atoms: C_2  and  O_3 
REMARK    2  A    between atoms: O_3  and  C_4 
REMARK    3  A    between atoms: C_4  and  C_5 
REMARK    4  A    between atoms: C_6  and  O_7 
REMARK    5  A    between atoms: C_12  and  O_13 
REMARK    6  A    between atoms: C_17  and  C_18 
ROOT
HETATM    1  C   UNL     1       5.168  34.114  60.914  1.00  0.00     0.133 C 
HETATM    2  C   UNL     1       3.857  34.854  61.322  1.00  0.00     0.073 C 
HETATM    3  C   UNL     1       2.831  34.922  60.180  1.00  0.00     0.047 C 
HETATM    4  C   UNL     1       3.175  34.263  62.592  1.00  0.00     0.097 C 
HETATM    5  C   UNL     1       4.204  33.930  63.610  1.00  0.00     0.042 A 
HETATM    6  C   UNL     1       5.559  33.780  63.408  1.00  0.00     0.030 A 
HETATM    7  C   UNL     1       6.053  33.586  64.710  1.00  0.00     0.190 A 
HETATM    8  N   UNL     1       5.109  33.555  65.642  1.00  0.00    -0.149 NA
HETATM    9  N   UNL     1       3.981  33.780  64.947  1.00  0.00    -0.279 N 
HETATM   10  H   UNL     1       3.106  33.842  65.458  1.00  0.00     0.189 HD
HETATM   11  C   UNL     1       6.203  33.960  62.071  1.00  0.00     0.075 C 
ENDROOT
BRANCH  11  12
HETATM   12  C   UNL     1       7.239  32.864  61.858  1.00  0.00    -0.045 A 
HETATM   13  C   UNL     1       8.385  33.026  61.060  1.00  0.00     0.050 A 
HETATM   14  C   UNL     1       9.327  32.006  60.955  1.00  0.00     0.117 A 
HETATM   15  F   UNL     1      10.413  32.189  60.193  1.00  0.00    -0.206 F 
HETATM   16  C   UNL     1       9.163  30.810  61.637  1.00  0.00     0.042 A 
HETATM   17  C   UNL     1       8.040  30.630  62.440  1.00  0.00     0.004 A 
HETATM   18  C   UNL     1       7.088  31.649  62.552  1.00  0.00     0.008 A 
ENDBRANCH  11  12
BRANCH   1  19
HETATM   19  C   UNL     1       4.891  32.826  60.167  1.00  0.00     0.267 C 
HETATM   20  O   UNL     1       4.220  31.920  60.648  1.00  0.00    -0.265 OA
BRANCH  19  21
HETATM   21  O   UNL     1       5.489  32.784  58.949  1.00  0.00    -0.316 OA
BRANCH  21  22
HETATM   22  C   UNL     1       5.490  31.501  58.291  1.00  0.00     0.123 C 
HETATM   23  C   UNL     1       6.879  30.878  58.378  1.00  0.00     0.040 C 
HETATM   24  C   UNL     1       5.100  31.734  56.837  1.00  0.00     0.040 C 
ENDBRANCH  21  22
ENDBRANCH  19  21
ENDBRANCH   1  19
BRANCH   2  25
HETATM   25  O   UNL     1       4.207  36.223  61.625  1.00  0.00    -0.389 OA
HETATM   26  H   UNL     1       3.469  36.801  61.362  1.00  0.00     0.210 HD
ENDBRANCH   2  25
BRANCH   7  27
HETATM   27  O   UNL     1       7.309  33.435  65.136  1.00  0.00    -0.343 OA
HETATM   28  H   UNL     1       7.819  32.938  64.479  1.00  0.00     0.219 HD
ENDBRANCH   7  27
TORSDOF 6
ENDMDL
MODEL 10
REMARK VINA RESULT:      -6.7      7.125      9.824
REMARK  6 active torsions:
REMARK  status: ('A' for Active; 'I' for Inactive)
REMARK    1  A    between atoms: C_2  and  O_3 
REMARK    2  A    between atoms: O_3  and  C_4 
REMARK    3  A    between atoms: C_4  and  C_5 
REMARK    4  A    between atoms: C_6  and  O_7 
REMARK    5  A    between atoms: C_12  and  O_13 
REMARK    6  A    between atoms: C_17  and  C_18 
ROOT
HETATM    1  C   UNL     1       7.218  31.496  61.137  1.00  0.00     0.133 C 
HETATM    2  C   UNL     1       8.271  31.192  62.247  1.00  0.00     0.073 C 
HETATM    3  C   UNL     1       9.647  30.814  61.677  1.00  0.00     0.047 C 
HETATM    4  C   UNL     1       8.440  32.347  63.279  1.00  0.00     0.097 C 
HETATM    5  C   UNL     1       7.112  32.911  63.630  1.00  0.00     0.042 A 
HETATM    6  C   UNL     1       5.932  32.762  62.933  1.00  0.00     0.030 A 
HETATM    7  C   UNL     1       4.992  33.398  63.763  1.00  0.00     0.190 A 
HETATM    8  N   UNL     1       5.522  33.948  64.848  1.00  0.00    -0.149 NA
HETATM    9  N   UNL     1       6.824  33.628  64.754  1.00  0.00    -0.279 N 
HETATM   10  H   UNL     1       7.444  33.912  65.506  1.00  0.00     0.189 HD
HETATM   11  C   UNL     1       5.830  31.956  61.678  1.00  0.00     0.075 C 
ENDROOT
BRANCH  11  12
HETATM   12  C   UNL     1       4.966  32.701  60.669  1.00  0.00    -0.045 A 
HETATM   13  C   UNL     1       4.945  34.102  60.552  1.00  0.00     0.050 A 
HETATM   14  C   UNL     1       4.179  34.720  59.567  1.00  0.00     0.117 A 
HETATM   15  F   UNL     1       4.182  36.056  59.474  1.00  0.00    -0.206 F 
HETATM   16  C   UNL     1       3.424  33.973  58.675  1.00  0.00     0.042 A 
HETATM   17  C   UNL     1       3.437  32.584  58.766  1.00  0.00     0.004 A 
HETATM   18  C   UNL     1       4.204  31.953  59.753  1.00  0.00     0.008 A 
ENDBRANCH  11  12
BRANCH   1  19
HETATM   19  C   UNL     1       7.775  32.390  60.047  1.00  0.00     0.267 C 
HETATM   20  O   UNL     1       8.364  33.435  60.295  1.00  0.00    -0.265 OA
BRANCH  19  21
HETATM   21  O   UNL     1       7.519  31.922  58.800  1.00  0.00    -0.316 OA
BRANCH  21  22
HETATM   22  C   UNL     1       7.607  30.492  58.632  1.00  0.00     0.123 C 
HETATM   23  C   UNL     1       8.983  30.120  58.089  1.00  0.00     0.040 C 
HETATM   24  C   UNL     1       6.517  30.081  57.650  1.00  0.00     0.040 C 
ENDBRANCH  21  22
ENDBRANCH  19  21
ENDBRANCH   1  19
BRANCH   2  25
HETATM   25  O   UNL     1       7.809  30.033  62.977  1.00  0.00    -0.389 OA
HETATM   26  H   UNL     1       6.840  30.082  63.062  1.00  0.00     0.210 HD
ENDBRANCH   2  25
BRANCH   7  27
HETATM   27  O   UNL     1       3.670  33.522  63.623  1.00  0.00    -0.343 OA
HETATM   28  H   UNL     1       3.374  34.346  64.039  1.00  0.00     0.219 HD
ENDBRANCH   7  27
TORSDOF 6
ENDMDL
