MODEL 1
REMARK VINA RESULT:     -11.2      0.000      0.000
REMARK  6 active torsions:
REMARK  status: ('A' for Active; 'I' for Inactive)
REMARK    1  A    between atoms: C_2  and  O_3 
REMARK    2  A    between atoms: O_3  and  C_4 
REMARK    3  A    between atoms: C_5  and  C_6 
REMARK       I    between atoms: C_6  and  N_7 
REMARK    4  A    between atoms: N_7  and  C_8 
REMARK    5  A    between atoms: N_9  and  C_10 
REMARK    6  A    between atoms: C_21  and  C_22 
ROOT
HETATM    1  C   UNL     1       5.575  26.136  52.517  1.00  0.00     0.152 A 
HETATM    2  N   UNL     1       5.149  27.442  52.708  1.00  0.00    -0.044 N 
HETATM    3  N   UNL     1       4.552  27.965  51.596  1.00  0.00    -0.148 NA
HETATM    4  C   UNL     1       4.613  26.969  50.702  1.00  0.00     0.115 A 
HETATM    5  C   UNL     1       5.266  25.828  51.213  1.00  0.00     0.087 A 
ENDROOT
BRANCH   1   6
HETATM    6  N   UNL     1       6.149  25.398  53.539  1.00  0.00    -0.307 N 
HETATM    7  C   UNL     1       7.462  24.980  53.538  1.00  0.00     0.261 C 
HETATM    8  O   UNL     1       8.359  25.335  52.784  1.00  0.00    -0.267 OA
HETATM    9  H   UNL     1       5.536  25.094  54.298  1.00  0.00     0.170 HD
BRANCH   7  10
HETATM   10  C   UNL     1       7.747  24.003  54.613  1.00  0.00     0.076 A 
HETATM   11  C   UNL     1       7.796  24.488  55.934  1.00  0.00     0.085 A 
HETATM   12  C   UNL     1       8.114  23.601  56.960  1.00  0.00     0.039 A 
HETATM   13  C   UNL     1       8.384  22.260  56.671  1.00  0.00     0.015 A 
HETATM   14  C   UNL     1       8.344  21.774  55.354  1.00  0.00    -0.025 A 
HETATM   15  C   UNL     1       8.013  22.648  54.292  1.00  0.00    -0.007 A 
HETATM   16  C   UNL     1       8.637  20.427  55.085  1.00  0.00     0.012 A 
HETATM   17  C   UNL     1       7.981  22.119  52.980  1.00  0.00     0.013 A 
HETATM   18  C   UNL     1       8.277  20.778  52.730  1.00  0.00     0.001 A 
HETATM   19  C   UNL     1       8.607  19.933  53.782  1.00  0.00     0.001 A 
BRANCH  11  20
HETATM   20  O   UNL     1       7.553  25.823  56.106  1.00  0.00    -0.350 OA
BRANCH  20  21
HETATM   21  C   UNL     1       6.812  26.234  57.252  1.00  0.00     0.171 C 
HETATM   22  C   UNL     1       5.340  26.016  56.951  1.00  0.00     0.034 C 
ENDBRANCH  20  21
ENDBRANCH  11  20
ENDBRANCH   7  10
ENDBRANCH   1   6
BRANCH   2  23
HETATM   23  C   UNL     1       5.264  28.224  53.875  1.00  0.00     0.732 A 
HETATM   24  N   UNL     1       4.237  28.686  54.526  1.00  0.00    -0.067 NA
HETATM   25  C   UNL     1       4.560  29.410  55.637  1.00  0.00     0.065 A 
HETATM   26  C   UNL     1       5.794  29.670  56.073  1.00  0.00     0.036 A 
HETATM   27  C   UNL     1       3.530  30.018  56.530  1.00  0.00     0.061 C 
HETATM   28  C   UNL     1       5.825  30.480  57.311  1.00  0.00     0.047 C 
HETATM   29  C   UNL     1       6.938  29.150  55.325  1.00  0.00     0.268 A 
HETATM   30  C   UNL     1       4.357  30.426  57.758  1.00  0.00     0.011 C 
HETATM   31  O   UNL     1       8.095  29.352  55.664  1.00  0.00    -0.267 OA
HETATM   32  N   UNL     1       6.580  28.425  54.223  1.00  0.00    -0.152 N 
HETATM   33  H   UNL     1       7.309  28.022  53.642  1.00  0.00     0.188 HD
ENDBRANCH   2  23
BRANCH   4  34
HETATM   34  C   UNL     1       4.025  27.075  49.335  1.00  0.00     0.105 A 
HETATM   35  O   UNL     1       3.685  28.252  48.727  1.00  0.00    -0.320 OA
HETATM   36  C   UNL     1       3.206  27.948  47.493  1.00  0.00     0.142 A 
HETATM   37  C   UNL     1       3.229  26.590  47.290  1.00  0.00     0.027 A 
HETATM   38  C   UNL     1       3.755  26.024  48.478  1.00  0.00     0.041 A 
ENDBRANCH   4  34
TORSDOF 6
ENDMDL
MODEL 2
REMARK VINA RESULT:     -10.7      1.690      2.332
REMARK  6 active torsions:
REMARK  status: ('A' for Active; 'I' for Inactive)
REMARK    1  A    between atoms: C_2  and  O_3 
REMARK    2  A    between atoms: O_3  and  C_4 
REMARK    3  A    between atoms: C_5  and  C_6 
REMARK       I    between atoms: C_6  and  N_7 
REMARK    4  A    between atoms: N_7  and  C_8 
REMARK    5  A    between atoms: N_9  and  C_10 
REMARK    6  A    between atoms: C_21  and  C_22 
ROOT
HETATM    1  C   UNL     1       6.695  26.679  52.638  1.00  0.00     0.152 A 
HETATM    2  N   UNL     1       6.649  27.967  53.150  1.00  0.00    -0.044 N 
HETATM    3  N   UNL     1       6.028  28.844  52.306  1.00  0.00    -0.148 NA
HETATM    4  C   UNL     1       5.687  28.087  51.254  1.00  0.00     0.115 A 
HETATM    5  C   UNL     1       6.105  26.748  51.397  1.00  0.00     0.087 A 
ENDROOT
BRANCH   1   6
HETATM    6  N   UNL     1       7.224  25.623  53.361  1.00  0.00    -0.307 N 
HETATM    7  C   UNL     1       6.467  24.595  53.880  1.00  0.00     0.261 C 
HETATM    8  O   UNL     1       5.295  24.333  53.640  1.00  0.00    -0.267 OA
HETATM    9  H   UNL     1       8.224  25.655  53.572  1.00  0.00     0.170 HD
BRANCH   7  10
HETATM   10  C   UNL     1       7.236  23.742  54.814  1.00  0.00     0.076 A 
HETATM   11  C   UNL     1       7.504  24.259  56.096  1.00  0.00     0.085 A 
HETATM   12  C   UNL     1       8.270  23.499  56.977  1.00  0.00     0.039 A 
HETATM   13  C   UNL     1       8.764  22.253  56.582  1.00  0.00     0.015 A 
HETATM   14  C   UNL     1       8.506  21.736  55.302  1.00  0.00    -0.025 A 
HETATM   15  C   UNL     1       7.721  22.479  54.390  1.00  0.00    -0.007 A 
HETATM   16  C   UNL     1       9.029  20.489  54.921  1.00  0.00     0.012 A 
HETATM   17  C   UNL     1       7.482  21.923  53.110  1.00  0.00     0.013 A 
HETATM   18  C   UNL     1       8.011  20.683  52.747  1.00  0.00     0.001 A 
HETATM   19  C   UNL     1       8.785  19.968  53.651  1.00  0.00     0.001 A 
BRANCH  11  20
HETATM   20  O   UNL     1       7.007  25.504  56.370  1.00  0.00    -0.350 OA
BRANCH  20  21
HETATM   21  C   UNL     1       6.224  25.675  57.549  1.00  0.00     0.171 C 
HETATM   22  C   UNL     1       4.782  25.360  57.194  1.00  0.00     0.034 C 
ENDBRANCH  20  21
ENDBRANCH  11  20
ENDBRANCH   7  10
ENDBRANCH   1   6
BRANCH   2  23
HETATM   23  C   UNL     1       7.150  28.420  54.386  1.00  0.00     0.732 A 
HETATM   24  N   UNL     1       8.412  28.654  54.600  1.00  0.00    -0.067 NA
HETATM   25  C   UNL     1       8.692  29.098  55.860  1.00  0.00     0.065 A 
HETATM   26  C   UNL     1       7.806  29.293  56.838  1.00  0.00     0.036 A 
HETATM   27  C   UNL     1      10.075  29.436  56.307  1.00  0.00     0.061 C 
HETATM   28  C   UNL     1       8.411  29.786  58.095  1.00  0.00     0.047 C 
HETATM   29  C   UNL     1       6.392  29.018  56.584  1.00  0.00     0.268 A 
HETATM   30  C   UNL     1       9.825  30.168  57.633  1.00  0.00     0.011 C 
HETATM   31  O   UNL     1       5.527  29.170  57.435  1.00  0.00    -0.267 OA
HETATM   32  N   UNL     1       6.145  28.580  55.313  1.00  0.00    -0.152 N 
HETATM   33  H   UNL     1       5.190  28.366  55.043  1.00  0.00     0.188 HD
ENDBRANCH   2  23
BRANCH   4  34
HETATM   34  C   UNL     1       4.927  28.623  50.088  1.00  0.00     0.105 A 
HETATM   35  O   UNL     1       3.733  29.286  50.179  1.00  0.00    -0.320 OA
HETATM   36  C   UNL     1       3.366  29.635  48.919  1.00  0.00     0.142 A 
HETATM   37  C   UNL     1       4.303  29.209  48.010  1.00  0.00     0.027 A 
HETATM   38  C   UNL     1       5.309  28.554  48.761  1.00  0.00     0.041 A 
ENDBRANCH   4  34
TORSDOF 6
ENDMDL
MODEL 3
REMARK VINA RESULT:      -9.9      2.905      7.889
REMARK  6 active torsions:
REMARK  status: ('A' for Active; 'I' for Inactive)
REMARK    1  A    between atoms: C_2  and  O_3 
REMARK    2  A    between atoms: O_3  and  C_4 
REMARK    3  A    between atoms: C_5  and  C_6 
REMARK       I    between atoms: C_6  and  N_7 
REMARK    4  A    between atoms: N_7  and  C_8 
REMARK    5  A    between atoms: N_9  and  C_10 
REMARK    6  A    between atoms: C_21  and  C_22 
ROOT
HETATM    1  C   UNL     1       6.746  27.100  55.664  1.00  0.00     0.152 A 
HETATM    2  N   UNL     1       7.762  27.188  56.604  1.00  0.00    -0.044 N 
HETATM    3  N   UNL     1       8.271  25.966  56.940  1.00  0.00    -0.148 NA
HETATM    4  C   UNL     1       7.557  25.107  56.199  1.00  0.00     0.115 A 
HETATM    5  C   UNL     1       6.579  25.757  55.417  1.00  0.00     0.087 A 
ENDROOT
BRANCH   1   6
HETATM    6  N   UNL     1       6.136  28.226  55.138  1.00  0.00    -0.307 N 
HETATM    7  C   UNL     1       4.846  28.608  55.436  1.00  0.00     0.261 C 
HETATM    8  O   UNL     1       4.120  28.168  56.318  1.00  0.00    -0.267 OA
HETATM    9  H   UNL     1       6.659  28.759  54.439  1.00  0.00     0.170 HD
BRANCH   7  10
HETATM   10  C   UNL     1       4.359  29.694  54.555  1.00  0.00     0.076 A 
HETATM   11  C   UNL     1       3.887  29.333  53.279  1.00  0.00     0.085 A 
HETATM   12  C   UNL     1       3.472  30.339  52.410  1.00  0.00     0.039 A 
HETATM   13  C   UNL     1       3.535  31.678  52.806  1.00  0.00     0.015 A 
HETATM   14  C   UNL     1       4.012  32.044  54.075  1.00  0.00    -0.025 A 
HETATM   15  C   UNL     1       4.430  31.044  54.983  1.00  0.00    -0.007 A 
HETATM   16  C   UNL     1       4.084  33.398  54.443  1.00  0.00     0.012 A 
HETATM   17  C   UNL     1       4.903  31.453  56.253  1.00  0.00     0.013 A 
HETATM   18  C   UNL     1       4.969  32.803  56.603  1.00  0.00     0.001 A 
HETATM   19  C   UNL     1       4.562  33.774  55.698  1.00  0.00     0.001 A 
BRANCH  11  20
HETATM   20  O   UNL     1       3.902  27.999  52.975  1.00  0.00    -0.350 OA
BRANCH  20  21
HETATM   21  C   UNL     1       4.627  27.574  51.825  1.00  0.00     0.171 C 
HETATM   22  C   UNL     1       5.118  26.161  52.085  1.00  0.00     0.034 C 
ENDBRANCH  20  21
ENDBRANCH  11  20
ENDBRANCH   7  10
ENDBRANCH   1   6
BRANCH   2  23
HETATM   23  C   UNL     1       8.284  28.353  57.200  1.00  0.00     0.732 A 
HETATM   24  N   UNL     1       7.587  29.127  57.980  1.00  0.00    -0.067 NA
HETATM   25  C   UNL     1       8.279  30.198  58.466  1.00  0.00     0.065 A 
HETATM   26  C   UNL     1       9.554  30.494  58.204  1.00  0.00     0.036 A 
HETATM   27  C   UNL     1       7.669  31.202  59.387  1.00  0.00     0.061 C 
HETATM   28  C   UNL     1      10.028  31.720  58.883  1.00  0.00     0.047 C 
HETATM   29  C   UNL     1      10.321  29.618  57.319  1.00  0.00     0.268 A 
HETATM   30  C   UNL     1       8.894  31.983  59.884  1.00  0.00     0.011 C 
HETATM   31  O   UNL     1      11.490  29.830  57.032  1.00  0.00    -0.267 OA
HETATM   32  N   UNL     1       9.601  28.553  56.854  1.00  0.00    -0.152 N 
HETATM   33  H   UNL     1      10.052  27.887  56.234  1.00  0.00     0.188 HD
ENDBRANCH   2  23
BRANCH   4  34
HETATM   34  C   UNL     1       7.808  23.637  56.203  1.00  0.00     0.105 A 
HETATM   35  O   UNL     1       8.384  22.951  57.237  1.00  0.00    -0.320 OA
HETATM   36  C   UNL     1       8.425  21.641  56.882  1.00  0.00     0.142 A 
HETATM   37  C   UNL     1       7.885  21.464  55.632  1.00  0.00     0.027 A 
HETATM   38  C   UNL     1       7.489  22.750  55.190  1.00  0.00     0.041 A 
ENDBRANCH   4  34
TORSDOF 6
ENDMDL
MODEL 4
REMARK VINA RESULT:      -9.7      1.972      7.489
REMARK  6 active torsions:
REMARK  status: ('A' for Active; 'I' for Inactive)
REMARK    1  A    between atoms: C_2  and  O_3 
REMARK    2  A    between atoms: O_3  and  C_4 
REMARK    3  A    between atoms: C_5  and  C_6 
REMARK       I    between atoms: C_6  and  N_7 
REMARK    4  A    between atoms: N_7  and  C_8 
REMARK    5  A    between atoms: N_9  and  C_10 
REMARK    6  A    between atoms: C_21  and  C_22 
ROOT
HETATM    1  C   UNL     1       5.835  25.929  53.961  1.00  0.00     0.152 A 
HETATM    2  N   UNL     1       5.927  25.613  52.613  1.00  0.00    -0.044 N 
HETATM    3  N   UNL     1       6.513  24.397  52.400  1.00  0.00    -0.148 NA
HETATM    4  C   UNL     1       6.791  23.955  53.635  1.00  0.00     0.115 A 
HETATM    5  C   UNL     1       6.419  24.881  54.633  1.00  0.00     0.087 A 
ENDROOT
BRANCH   1   6
HETATM    6  N   UNL     1       5.215  27.087  54.399  1.00  0.00    -0.307 N 
HETATM    7  C   UNL     1       5.880  28.275  54.619  1.00  0.00     0.261 C 
HETATM    8  O   UNL     1       7.024  28.563  54.293  1.00  0.00    -0.267 OA
HETATM    9  H   UNL     1       4.222  27.027  54.634  1.00  0.00     0.170 HD
BRANCH   7  10
HETATM   10  C   UNL     1       5.040  29.273  55.319  1.00  0.00     0.076 A 
HETATM   11  C   UNL     1       5.011  29.226  56.725  1.00  0.00     0.085 A 
HETATM   12  C   UNL     1       4.188  30.119  57.407  1.00  0.00     0.039 A 
HETATM   13  C   UNL     1       3.405  31.034  56.698  1.00  0.00     0.015 A 
HETATM   14  C   UNL     1       3.424  31.080  55.294  1.00  0.00    -0.025 A 
HETATM   15  C   UNL     1       4.259  30.193  54.575  1.00  0.00    -0.007 A 
HETATM   16  C   UNL     1       2.615  31.996  54.602  1.00  0.00     0.012 A 
HETATM   17  C   UNL     1       4.251  30.272  53.161  1.00  0.00     0.013 A 
HETATM   18  C   UNL     1       3.438  31.187  52.489  1.00  0.00     0.001 A 
HETATM   19  C   UNL     1       2.620  32.046  53.209  1.00  0.00     0.001 A 
BRANCH  11  20
HETATM   20  O   UNL     1       5.785  28.269  57.322  1.00  0.00    -0.350 OA
BRANCH  20  21
HETATM   21  C   UNL     1       7.061  28.650  57.830  1.00  0.00     0.171 C 
HETATM   22  C   UNL     1       8.041  27.541  57.490  1.00  0.00     0.034 C 
ENDBRANCH  20  21
ENDBRANCH  11  20
ENDBRANCH   7  10
ENDBRANCH   1   6
BRANCH   2  23
HETATM   23  C   UNL     1       5.493  26.384  51.517  1.00  0.00     0.732 A 
HETATM   24  N   UNL     1       5.811  27.636  51.357  1.00  0.00    -0.067 NA
HETATM   25  C   UNL     1       5.300  28.200  50.224  1.00  0.00     0.065 A 
HETATM   26  C   UNL     1       4.532  27.589  49.320  1.00  0.00     0.036 A 
HETATM   27  C   UNL     1       5.554  29.622  49.847  1.00  0.00     0.061 C 
HETATM   28  C   UNL     1       4.137  28.463  48.193  1.00  0.00     0.047 C 
HETATM   29  C   UNL     1       4.178  26.184  49.518  1.00  0.00     0.268 A 
HETATM   30  C   UNL     1       5.062  29.672  48.393  1.00  0.00     0.011 C 
HETATM   31  O   UNL     1       3.477  25.563  48.734  1.00  0.00    -0.267 OA
HETATM   32  N   UNL     1       4.709  25.648  50.658  1.00  0.00    -0.152 N 
HETATM   33  H   UNL     1       4.520  24.675  50.878  1.00  0.00     0.188 HD
ENDBRANCH   2  23
BRANCH   4  34
HETATM   34  C   UNL     1       7.400  22.619  53.895  1.00  0.00     0.105 A 
HETATM   35  O   UNL     1       7.516  22.047  55.132  1.00  0.00    -0.320 OA
HETATM   36  C   UNL     1       8.098  20.832  54.964  1.00  0.00     0.142 A 
HETATM   37  C   UNL     1       8.363  20.605  53.636  1.00  0.00     0.027 A 
HETATM   38  C   UNL     1       7.917  21.758  52.944  1.00  0.00     0.041 A 
ENDBRANCH   4  34
TORSDOF 6
ENDMDL
MODEL 5
REMARK VINA RESULT:      -9.6      5.774     10.463
REMARK  6 active torsions:
REMARK  status: ('A' for Active; 'I' for Inactive)
REMARK    1  A    between atoms: C_2  and  O_3 
REMARK    2  A    between atoms: O_3  and  C_4 
REMARK    3  A    between atoms: C_5  and  C_6 
REMARK       I    between atoms: C_6  and  N_7 
REMARK    4  A    between atoms: N_7  and  C_8 
REMARK    5  A    between atoms: N_9  and  C_10 
REMARK    6  A    between atoms: C_21  and  C_22 
ROOT
HETATM    1  C   UNL     1       5.478  32.569  60.027  1.00  0.00     0.152 A 
HETATM    2  N   UNL     1       6.685  31.978  60.370  1.00  0.00    -0.044 N 
HETATM    3  N   UNL     1       6.991  32.144  61.692  1.00  0.00    -0.148 NA
HETATM    4  C   UNL     1       5.959  32.851  62.173  1.00  0.00     0.115 A 
HETATM    5  C   UNL     1       5.013  33.167  61.175  1.00  0.00     0.087 A 
ENDROOT
BRANCH   1   6
HETATM    6  N   UNL     1       4.950  32.465  58.751  1.00  0.00    -0.307 N 
HETATM    7  C   UNL     1       3.849  31.697  58.439  1.00  0.00     0.261 C 
HETATM    8  O   UNL     1       3.063  31.165  59.214  1.00  0.00    -0.267 OA
HETATM    9  H   UNL     1       5.454  32.933  57.995  1.00  0.00     0.170 HD
BRANCH   7  10
HETATM   10  C   UNL     1       3.648  31.560  56.979  1.00  0.00     0.076 A 
HETATM   11  C   UNL     1       3.048  32.639  56.302  1.00  0.00     0.085 A 
HETATM   12  C   UNL     1       2.800  32.517  54.937  1.00  0.00     0.039 A 
HETATM   13  C   UNL     1       3.138  31.339  54.265  1.00  0.00     0.015 A 
HETATM   14  C   UNL     1       3.730  30.257  54.936  1.00  0.00    -0.025 A 
HETATM   15  C   UNL     1       4.004  30.356  56.320  1.00  0.00    -0.007 A 
HETATM   16  C   UNL     1       4.043  29.076  54.244  1.00  0.00     0.012 A 
HETATM   17  C   UNL     1       4.603  29.245  56.961  1.00  0.00     0.013 A 
HETATM   18  C   UNL     1       4.906  28.077  56.258  1.00  0.00     0.001 A 
HETATM   19  C   UNL     1       4.625  27.993  54.901  1.00  0.00     0.001 A 
BRANCH  11  20
HETATM   20  O   UNL     1       2.722  33.732  57.058  1.00  0.00    -0.350 OA
BRANCH  20  21
HETATM   21  C   UNL     1       2.976  35.027  56.520  1.00  0.00     0.171 C 
HETATM   22  C   UNL     1       4.443  35.342  56.751  1.00  0.00     0.034 C 
ENDBRANCH  20  21
ENDBRANCH  11  20
ENDBRANCH   7  10
ENDBRANCH   1   6
BRANCH   2  23
HETATM   23  C   UNL     1       7.563  31.264  59.532  1.00  0.00     0.732 A 
HETATM   24  N   UNL     1       7.265  30.110  59.008  1.00  0.00    -0.067 NA
HETATM   25  C   UNL     1       8.246  29.587  58.216  1.00  0.00     0.065 A 
HETATM   26  C   UNL     1       9.431  30.146  57.961  1.00  0.00     0.036 A 
HETATM   27  C   UNL     1       8.102  28.280  57.511  1.00  0.00     0.061 C 
HETATM   28  C   UNL     1      10.284  29.341  57.060  1.00  0.00     0.047 C 
HETATM   29  C   UNL     1       9.753  31.440  58.565  1.00  0.00     0.268 A 
HETATM   30  C   UNL     1       9.287  28.298  56.534  1.00  0.00     0.011 C 
HETATM   31  O   UNL     1      10.820  32.007  58.379  1.00  0.00    -0.267 OA
HETATM   32  N   UNL     1       8.749  31.937  59.347  1.00  0.00    -0.152 N 
HETATM   33  H   UNL     1       8.881  32.833  59.805  1.00  0.00     0.188 HD
ENDBRANCH   2  23
BRANCH   4  34
HETATM   34  C   UNL     1       5.840  33.226  63.611  1.00  0.00     0.105 A 
HETATM   35  O   UNL     1       4.669  33.219  64.320  1.00  0.00    -0.320 OA
HETATM   36  C   UNL     1       4.962  33.596  65.591  1.00  0.00     0.142 A 
HETATM   37  C   UNL     1       6.306  33.848  65.720  1.00  0.00     0.027 A 
HETATM   38  C   UNL     1       6.874  33.613  64.444  1.00  0.00     0.041 A 
ENDBRANCH   4  34
TORSDOF 6
ENDMDL
MODEL 6
REMARK VINA RESULT:      -9.5      3.014      7.561
REMARK  6 active torsions:
REMARK  status: ('A' for Active; 'I' for Inactive)
REMARK    1  A    between atoms: C_2  and  O_3 
REMARK    2  A    between atoms: O_3  and  C_4 
REMARK    3  A    between atoms: C_5  and  C_6 
REMARK       I    between atoms: C_6  and  N_7 
REMARK    4  A    between atoms: N_7  and  C_8 
REMARK    5  A    between atoms: N_9  and  C_10 
REMARK    6  A    between atoms: C_21  and  C_22 
ROOT
HETATM    1  C   UNL     1       6.730  27.566  55.683  1.00  0.00     0.152 A 
HETATM    2  N   UNL     1       7.740  27.557  56.633  1.00  0.00    -0.044 N 
HETATM    3  N   UNL     1       8.228  26.303  56.866  1.00  0.00    -0.148 NA
HETATM    4  C   UNL     1       7.506  25.522  56.051  1.00  0.00     0.115 A 
HETATM    5  C   UNL     1       6.544  26.252  55.322  1.00  0.00     0.087 A 
ENDROOT
BRANCH   1   6
HETATM    6  N   UNL     1       6.142  28.742  55.252  1.00  0.00    -0.307 N 
HETATM    7  C   UNL     1       4.796  29.016  55.374  1.00  0.00     0.261 C 
HETATM    8  O   UNL     1       3.964  28.399  56.027  1.00  0.00    -0.267 OA
HETATM    9  H   UNL     1       6.737  29.409  54.756  1.00  0.00     0.170 HD
BRANCH   7  10
HETATM   10  C   UNL     1       4.391  30.220  54.613  1.00  0.00     0.076 A 
HETATM   11  C   UNL     1       4.628  31.474  55.208  1.00  0.00     0.085 A 
HETATM   12  C   UNL     1       4.209  32.621  54.538  1.00  0.00     0.039 A 
HETATM   13  C   UNL     1       3.562  32.516  53.303  1.00  0.00     0.015 A 
HETATM   14  C   UNL     1       3.316  31.267  52.710  1.00  0.00    -0.025 A 
HETATM   15  C   UNL     1       3.740  30.085  53.361  1.00  0.00    -0.007 A 
HETATM   16  C   UNL     1       2.647  31.185  51.478  1.00  0.00     0.012 A 
HETATM   17  C   UNL     1       3.476  28.846  52.730  1.00  0.00     0.013 A 
HETATM   18  C   UNL     1       2.807  28.782  51.506  1.00  0.00     0.001 A 
HETATM   19  C   UNL     1       2.392  29.951  50.882  1.00  0.00     0.001 A 
BRANCH  11  20
HETATM   20  O   UNL     1       5.235  31.466  56.434  1.00  0.00    -0.350 OA
BRANCH  20  21
HETATM   21  C   UNL     1       4.603  32.160  57.506  1.00  0.00     0.171 C 
HETATM   22  C   UNL     1       3.830  31.140  58.323  1.00  0.00     0.034 C 
ENDBRANCH  20  21
ENDBRANCH  11  20
ENDBRANCH   7  10
ENDBRANCH   1   6
BRANCH   2  23
HETATM   23  C   UNL     1       8.278  28.658  57.328  1.00  0.00     0.732 A 
HETATM   24  N   UNL     1       7.600  29.350  58.198  1.00  0.00    -0.067 NA
HETATM   25  C   UNL     1       8.304  30.369  58.771  1.00  0.00     0.065 A 
HETATM   26  C   UNL     1       9.571  30.693  58.508  1.00  0.00     0.036 A 
HETATM   27  C   UNL     1       7.716  31.275  59.801  1.00  0.00     0.061 C 
HETATM   28  C   UNL     1      10.062  31.847  59.293  1.00  0.00     0.047 C 
HETATM   29  C   UNL     1      10.316  29.911  57.521  1.00  0.00     0.268 A 
HETATM   30  C   UNL     1       8.953  32.006  60.343  1.00  0.00     0.011 C 
HETATM   31  O   UNL     1      11.478  30.154  57.228  1.00  0.00    -0.267 OA
HETATM   32  N   UNL     1       9.585  28.896  56.971  1.00  0.00    -0.152 N 
HETATM   33  H   UNL     1      10.021  28.296  56.277  1.00  0.00     0.188 HD
ENDBRANCH   2  23
BRANCH   4  34
HETATM   34  C   UNL     1       7.734  24.053  55.931  1.00  0.00     0.105 A 
HETATM   35  O   UNL     1       8.274  23.269  56.913  1.00  0.00    -0.320 OA
HETATM   36  C   UNL     1       8.303  21.994  56.446  1.00  0.00     0.142 A 
HETATM   37  C   UNL     1       7.789  21.937  55.173  1.00  0.00     0.027 A 
HETATM   38  C   UNL     1       7.424  23.264  54.838  1.00  0.00     0.041 A 
ENDBRANCH   4  34
TORSDOF 6
ENDMDL
MODEL 7
REMARK VINA RESULT:      -9.4      1.948      7.412
REMARK  6 active torsions:
REMARK  status: ('A' for Active; 'I' for Inactive)
REMARK    1  A    between atoms: C_2  and  O_3 
REMARK    2  A    between atoms: O_3  and  C_4 
REMARK    3  A    between atoms: C_5  and  C_6 
REMARK       I    between atoms: C_6  and  N_7 
REMARK    4  A    between atoms: N_7  and  C_8 
REMARK    5  A    between atoms: N_9  and  C_10 
REMARK    6  A    between atoms: C_21  and  C_22 
ROOT
HETATM    1  C   UNL     1       6.278  25.943  54.132  1.00  0.00     0.152 A 
HETATM    2  N   UNL     1       6.196  25.605  52.789  1.00  0.00    -0.044 N 
HETATM    3  N   UNL     1       6.628  24.331  52.544  1.00  0.00    -0.148 NA
HETATM    4  C   UNL     1       6.986  23.877  53.753  1.00  0.00     0.115 A 
HETATM    5  C   UNL     1       6.819  24.848  54.763  1.00  0.00     0.087 A 
ENDROOT
BRANCH   1   6
HETATM    6  N   UNL     1       5.831  27.165  54.606  1.00  0.00    -0.307 N 
HETATM    7  C   UNL     1       6.645  28.265  54.775  1.00  0.00     0.261 C 
HETATM    8  O   UNL     1       7.791  28.417  54.372  1.00  0.00    -0.267 OA
HETATM    9  H   UNL     1       4.856  27.222  54.907  1.00  0.00     0.170 HD
BRANCH   7  10
HETATM   10  C   UNL     1       5.978  29.353  55.526  1.00  0.00     0.076 A 
HETATM   11  C   UNL     1       4.827  29.925  54.954  1.00  0.00     0.085 A 
HETATM   12  C   UNL     1       4.209  30.986  55.612  1.00  0.00     0.039 A 
HETATM   13  C   UNL     1       4.736  31.468  56.814  1.00  0.00     0.015 A 
HETATM   14  C   UNL     1       5.889  30.905  57.385  1.00  0.00    -0.025 A 
HETATM   15  C   UNL     1       6.531  29.820  56.745  1.00  0.00    -0.007 A 
HETATM   16  C   UNL     1       6.411  31.419  58.583  1.00  0.00     0.012 A 
HETATM   17  C   UNL     1       7.689  29.279  57.353  1.00  0.00     0.013 A 
HETATM   18  C   UNL     1       8.197  29.803  58.544  1.00  0.00     0.001 A 
HETATM   19  C   UNL     1       7.559  30.873  59.157  1.00  0.00     0.001 A 
BRANCH  11  20
HETATM   20  O   UNL     1       4.413  29.406  53.757  1.00  0.00    -0.350 OA
BRANCH  20  21
HETATM   21  C   UNL     1       3.408  30.103  53.027  1.00  0.00     0.171 C 
HETATM   22  C   UNL     1       2.660  29.085  52.185  1.00  0.00     0.034 C 
ENDBRANCH  20  21
ENDBRANCH  11  20
ENDBRANCH   7  10
ENDBRANCH   1   6
BRANCH   2  23
HETATM   23  C   UNL     1       5.731  26.404  51.726  1.00  0.00     0.732 A 
HETATM   24  N   UNL     1       6.030  27.664  51.600  1.00  0.00    -0.067 NA
HETATM   25  C   UNL     1       5.490  28.258  50.496  1.00  0.00     0.065 A 
HETATM   26  C   UNL     1       4.712  27.666  49.588  1.00  0.00     0.036 A 
HETATM   27  C   UNL     1       5.720  29.693  50.159  1.00  0.00     0.061 C 
HETATM   28  C   UNL     1       4.283  28.569  48.498  1.00  0.00     0.047 C 
HETATM   29  C   UNL     1       4.378  26.251  49.749  1.00  0.00     0.268 A 
HETATM   30  C   UNL     1       5.198  29.783  48.718  1.00  0.00     0.011 C 
HETATM   31  O   UNL     1       3.667  25.647  48.959  1.00  0.00    -0.267 OA
HETATM   32  N   UNL     1       4.938  25.686  50.861  1.00  0.00    -0.152 N 
HETATM   33  H   UNL     1       4.764  24.704  51.054  1.00  0.00     0.188 HD
ENDBRANCH   2  23
BRANCH   4  34
HETATM   34  C   UNL     1       7.478  22.487  53.978  1.00  0.00     0.105 A 
HETATM   35  O   UNL     1       7.515  21.865  55.196  1.00  0.00    -0.320 OA
HETATM   36  C   UNL     1       8.001  20.613  54.998  1.00  0.00     0.142 A 
HETATM   37  C   UNL     1       8.282  20.411  53.668  1.00  0.00     0.027 A 
HETATM   38  C   UNL     1       7.948  21.619  53.009  1.00  0.00     0.041 A 
ENDBRANCH   4  34
TORSDOF 6
ENDMDL
MODEL 8
REMARK VINA RESULT:      -9.3      2.251      6.782
REMARK  6 active torsions:
REMARK  status: ('A' for Active; 'I' for Inactive)
REMARK    1  A    between atoms: C_2  and  O_3 
REMARK    2  A    between atoms: O_3  and  C_4 
REMARK    3  A    between atoms: C_5  and  C_6 
REMARK       I    between atoms: C_6  and  N_7 
REMARK    4  A    between atoms: N_7  and  C_8 
REMARK    5  A    between atoms: N_9  and  C_10 
REMARK    6  A    between atoms: C_21  and  C_22 
ROOT
HETATM    1  C   UNL     1       6.914  25.590  53.629  1.00  0.00     0.152 A 
HETATM    2  N   UNL     1       7.388  25.638  54.931  1.00  0.00    -0.044 N 
HETATM    3  N   UNL     1       7.862  24.431  55.360  1.00  0.00    -0.148 NA
HETATM    4  C   UNL     1       7.674  23.622  54.308  1.00  0.00     0.115 A 
HETATM    5  C   UNL     1       7.062  24.284  53.224  1.00  0.00     0.087 A 
ENDROOT
BRANCH   1   6
HETATM    6  N   UNL     1       6.449  26.720  52.978  1.00  0.00    -0.307 N 
HETATM    7  C   UNL     1       5.122  26.937  52.673  1.00  0.00     0.261 C 
HETATM    8  O   UNL     1       4.150  26.311  53.076  1.00  0.00    -0.267 OA
HETATM    9  H   UNL     1       7.146  27.393  52.650  1.00  0.00     0.170 HD
BRANCH   7  10
HETATM   10  C   UNL     1       4.931  28.089  51.763  1.00  0.00     0.076 A 
HETATM   11  C   UNL     1       4.851  29.369  52.343  1.00  0.00     0.085 A 
HETATM   12  C   UNL     1       4.619  30.465  51.515  1.00  0.00     0.039 A 
HETATM   13  C   UNL     1       4.462  30.283  50.138  1.00  0.00     0.015 A 
HETATM   14  C   UNL     1       4.534  29.008  49.555  1.00  0.00    -0.025 A 
HETATM   15  C   UNL     1       4.780  27.877  50.369  1.00  0.00    -0.007 A 
HETATM   16  C   UNL     1       4.354  28.848  48.171  1.00  0.00     0.012 A 
HETATM   17  C   UNL     1       4.846  26.609  49.744  1.00  0.00     0.013 A 
HETATM   18  C   UNL     1       4.664  26.467  48.367  1.00  0.00     0.001 A 
HETATM   19  C   UNL     1       4.416  27.586  47.582  1.00  0.00     0.001 A 
BRANCH  11  20
HETATM   20  O   UNL     1       4.980  29.434  53.703  1.00  0.00    -0.350 OA
BRANCH  20  21
HETATM   21  C   UNL     1       3.948  30.071  54.452  1.00  0.00     0.171 C 
HETATM   22  C   UNL     1       4.581  31.205  55.238  1.00  0.00     0.034 C 
ENDBRANCH  20  21
ENDBRANCH  11  20
ENDBRANCH   7  10
ENDBRANCH   1   6
BRANCH   2  23
HETATM   23  C   UNL     1       7.428  26.752  55.793  1.00  0.00     0.732 A 
HETATM   24  N   UNL     1       8.531  27.363  56.116  1.00  0.00    -0.067 NA
HETATM   25  C   UNL     1       8.355  28.427  56.953  1.00  0.00     0.065 A 
HETATM   26  C   UNL     1       7.191  28.857  57.441  1.00  0.00     0.036 A 
HETATM   27  C   UNL     1       9.489  29.268  57.435  1.00  0.00     0.061 C 
HETATM   28  C   UNL     1       7.319  30.040  58.321  1.00  0.00     0.047 C 
HETATM   29  C   UNL     1       5.960  28.155  57.074  1.00  0.00     0.268 A 
HETATM   30  C   UNL     1       8.766  30.475  58.051  1.00  0.00     0.011 C 
HETATM   31  O   UNL     1       4.861  28.492  57.487  1.00  0.00    -0.267 OA
HETATM   32  N   UNL     1       6.171  27.099  56.232  1.00  0.00    -0.152 N 
HETATM   33  H   UNL     1       5.374  26.553  55.920  1.00  0.00     0.188 HD
ENDBRANCH   2  23
BRANCH   4  34
HETATM   34  C   UNL     1       8.100  22.192  54.305  1.00  0.00     0.105 A 
HETATM   35  O   UNL     1       8.382  21.465  55.428  1.00  0.00    -0.320 OA
HETATM   36  C   UNL     1       8.710  20.209  55.028  1.00  0.00     0.142 A 
HETATM   37  C   UNL     1       8.645  20.109  53.659  1.00  0.00     0.027 A 
HETATM   38  C   UNL     1       8.254  21.388  53.191  1.00  0.00     0.041 A 
ENDBRANCH   4  34
TORSDOF 6
ENDMDL
MODEL 9
REMARK VINA RESULT:      -9.2      1.964      2.710
REMARK  6 active torsions:
REMARK  status: ('A' for Active; 'I' for Inactive)
REMARK    1  A    between atoms: C_2  and  O_3 
REMARK    2  A    between atoms: O_3  and  C_4 
REMARK    3  A    between atoms: C_5  and  C_6 
REMARK       I    between atoms: C_6  and  N_7 
REMARK    4  A    between atoms: N_7  and  C_8 
REMARK    5  A    between atoms: N_9  and  C_10 
REMARK    6  A    between atoms: C_21  and  C_22 
ROOT
HETATM    1  C   UNL     1       4.669  28.053  52.945  1.00  0.00     0.152 A 
HETATM    2  N   UNL     1       4.166  29.332  53.132  1.00  0.00    -0.044 N 
HETATM    3  N   UNL     1       3.449  29.775  52.056  1.00  0.00    -0.148 NA
HETATM    4  C   UNL     1       3.512  28.755  51.188  1.00  0.00     0.115 A 
HETATM    5  C   UNL     1       4.282  27.680  51.679  1.00  0.00     0.087 A 
ENDROOT
BRANCH   1   6
HETATM    6  N   UNL     1       5.370  27.391  53.938  1.00  0.00    -0.307 N 
HETATM    7  C   UNL     1       6.743  27.419  54.054  1.00  0.00     0.261 C 
HETATM    8  O   UNL     1       7.529  28.150  53.465  1.00  0.00    -0.267 OA
HETATM    9  H   UNL     1       4.834  26.797  54.574  1.00  0.00     0.170 HD
BRANCH   7  10
HETATM   10  C   UNL     1       7.249  26.434  55.037  1.00  0.00     0.076 A 
HETATM   11  C   UNL     1       7.368  26.854  56.375  1.00  0.00     0.085 A 
HETATM   12  C   UNL     1       7.890  25.965  57.311  1.00  0.00     0.039 A 
HETATM   13  C   UNL     1       8.291  24.685  56.916  1.00  0.00     0.015 A 
HETATM   14  C   UNL     1       8.181  24.264  55.581  1.00  0.00    -0.025 A 
HETATM   15  C   UNL     1       7.644  25.141  54.610  1.00  0.00    -0.007 A 
HETATM   16  C   UNL     1       8.609  22.980  55.204  1.00  0.00     0.012 A 
HETATM   17  C   UNL     1       7.548  24.678  53.276  1.00  0.00     0.013 A 
HETATM   18  C   UNL     1       7.979  23.399  52.917  1.00  0.00     0.001 A 
HETATM   19  C   UNL     1       8.510  22.552  53.881  1.00  0.00     0.001 A 
BRANCH  11  20
HETATM   20  O   UNL     1       6.983  28.138  56.651  1.00  0.00    -0.350 OA
BRANCH  20  21
HETATM   21  C   UNL     1       7.995  29.112  56.891  1.00  0.00     0.171 C 
HETATM   22  C   UNL     1       7.959  29.460  58.368  1.00  0.00     0.034 C 
ENDBRANCH  20  21
ENDBRANCH  11  20
ENDBRANCH   7  10
ENDBRANCH   1   6
BRANCH   2  23
HETATM   23  C   UNL     1       4.316  30.159  54.262  1.00  0.00     0.732 A 
HETATM   24  N   UNL     1       4.204  29.722  55.483  1.00  0.00    -0.067 NA
HETATM   25  C   UNL     1       4.396  30.679  56.438  1.00  0.00     0.065 A 
HETATM   26  C   UNL     1       4.668  31.966  56.216  1.00  0.00     0.036 A 
HETATM   27  C   UNL     1       4.323  30.384  57.899  1.00  0.00     0.061 C 
HETATM   28  C   UNL     1       4.827  32.759  57.455  1.00  0.00     0.047 C 
HETATM   29  C   UNL     1       4.782  32.443  54.838  1.00  0.00     0.268 A 
HETATM   30  C   UNL     1       4.912  31.659  58.522  1.00  0.00     0.011 C 
HETATM   31  O   UNL     1       5.025  33.608  54.561  1.00  0.00    -0.267 OA
HETATM   32  N   UNL     1       4.590  31.460  53.907  1.00  0.00    -0.152 N 
HETATM   33  H   UNL     1       4.653  31.697  52.922  1.00  0.00     0.188 HD
ENDBRANCH   2  23
BRANCH   4  34
HETATM   34  C   UNL     1       2.814  28.774  49.870  1.00  0.00     0.105 A 
HETATM   35  O   UNL     1       3.093  27.927  48.833  1.00  0.00    -0.320 OA
HETATM   36  C   UNL     1       2.244  28.234  47.819  1.00  0.00     0.142 A 
HETATM   37  C   UNL     1       1.416  29.268  48.181  1.00  0.00     0.027 A 
HETATM   38  C   UNL     1       1.784  29.620  49.503  1.00  0.00     0.041 A 
ENDBRANCH   4  34
TORSDOF 6
ENDMDL
MODEL 10
REMARK VINA RESULT:      -9.0      2.283      7.446
REMARK  6 active torsions:
REMARK  status: ('A' for Active; 'I' for Inactive)
REMARK    1  A    between atoms: C_2  and  O_3 
REMARK    2  A    between atoms: O_3  and  C_4 
REMARK    3  A    between atoms: C_5  and  C_6 
REMARK       I    between atoms: C_6  and  N_7 
REMARK    4  A    between atoms: N_7  and  C_8 
REMARK    5  A    between atoms: N_9  and  C_10 
REMARK    6  A    between atoms: C_21  and  C_22 
ROOT
HETATM    1  C   UNL     1       4.957  26.233  53.097  1.00  0.00     0.152 A 
HETATM    2  N   UNL     1       5.529  26.559  54.318  1.00  0.00    -0.044 N 
HETATM    3  N   UNL     1       6.349  25.573  54.792  1.00  0.00    -0.148 NA
HETATM    4  C   UNL     1       6.280  24.621  53.851  1.00  0.00     0.115 A 
HETATM    5  C   UNL     1       5.408  24.968  52.798  1.00  0.00     0.087 A 
ENDROOT
BRANCH   1   6
HETATM    6  N   UNL     1       4.144  27.119  52.412  1.00  0.00    -0.307 N 
HETATM    7  C   UNL     1       4.619  28.086  51.553  1.00  0.00     0.261 C 
HETATM    8  O   UNL     1       5.754  28.201  51.109  1.00  0.00    -0.267 OA
HETATM    9  H   UNL     1       3.142  27.088  52.614  1.00  0.00     0.170 HD
BRANCH   7  10
HETATM   10  C   UNL     1       3.571  29.052  51.152  1.00  0.00     0.076 A 
HETATM   11  C   UNL     1       2.764  28.715  50.050  1.00  0.00     0.085 A 
HETATM   12  C   UNL     1       1.805  29.628  49.618  1.00  0.00     0.039 A 
HETATM   13  C   UNL     1       1.661  30.855  50.271  1.00  0.00     0.015 A 
HETATM   14  C   UNL     1       2.469  31.200  51.367  1.00  0.00    -0.025 A 
HETATM   15  C   UNL     1       3.443  30.289  51.835  1.00  0.00    -0.007 A 
HETATM   16  C   UNL     1       2.319  32.448  51.995  1.00  0.00     0.012 A 
HETATM   17  C   UNL     1       4.236  30.672  52.942  1.00  0.00     0.013 A 
HETATM   18  C   UNL     1       4.076  31.917  53.555  1.00  0.00     0.001 A 
HETATM   19  C   UNL     1       3.119  32.804  53.080  1.00  0.00     0.001 A 
BRANCH  11  20
HETATM   20  O   UNL     1       3.009  27.506  49.458  1.00  0.00    -0.350 OA
BRANCH  20  21
HETATM   21  C   UNL     1       3.363  27.487  48.077  1.00  0.00     0.171 C 
HETATM   22  C   UNL     1       4.656  26.702  47.944  1.00  0.00     0.034 C 
ENDBRANCH  20  21
ENDBRANCH  11  20
ENDBRANCH   7  10
ENDBRANCH   1   6
BRANCH   2  23
HETATM   23  C   UNL     1       5.355  27.742  55.062  1.00  0.00     0.732 A 
HETATM   24  N   UNL     1       4.185  28.218  55.379  1.00  0.00    -0.067 NA
HETATM   25  C   UNL     1       4.231  29.368  56.113  1.00  0.00     0.065 A 
HETATM   26  C   UNL     1       5.335  30.008  56.502  1.00  0.00     0.036 A 
HETATM   27  C   UNL     1       3.002  30.069  56.587  1.00  0.00     0.061 C 
HETATM   28  C   UNL     1       5.064  31.228  57.292  1.00  0.00     0.047 C 
HETATM   29  C   UNL     1       6.642  29.464  56.131  1.00  0.00     0.268 A 
HETATM   30  C   UNL     1       3.567  31.076  57.600  1.00  0.00     0.011 C 
HETATM   31  O   UNL     1       7.693  29.999  56.450  1.00  0.00    -0.267 OA
HETATM   32  N   UNL     1       6.561  28.311  55.402  1.00  0.00    -0.152 N 
HETATM   33  H   UNL     1       7.419  27.858  55.102  1.00  0.00     0.188 HD
ENDBRANCH   2  23
BRANCH   4  34
HETATM   34  C   UNL     1       7.070  23.358  53.923  1.00  0.00     0.105 A 
HETATM   35  O   UNL     1       7.208  22.593  55.049  1.00  0.00    -0.320 OA
HETATM   36  C   UNL     1       7.975  21.522  54.720  1.00  0.00     0.142 A 
HETATM   37  C   UNL     1       8.338  21.578  53.397  1.00  0.00     0.027 A 
HETATM   38  C   UNL     1       7.758  22.763  52.881  1.00  0.00     0.041 A 
ENDBRANCH   4  34
TORSDOF 6
ENDMDL
