MODEL 1
REMARK VINA RESULT:      -9.9      0.000      0.000
REMARK  4 active torsions:
REMARK  status: ('A' for Active; 'I' for Inactive)
REMARK    1  A    between atoms: C_8  and  N_9 
REMARK       I    between atoms: N_9  and  C_10 
REMARK       I    between atoms: C_10  and  N_11 
REMARK    2  A    between atoms: N_11  and  C_12 
REMARK    3  A    between atoms: C_15  and  C_16 
REMARK       I    between atoms: C_16  and  N_17 
REMARK    4  A    between atoms: N_17  and  C_18 
ROOT
HETATM    1  C   UNL     1       7.162  31.797  62.359  1.00  0.00     0.036 A 
HETATM    2  C   UNL     1       5.806  32.049  62.573  1.00  0.00     0.030 A 
HETATM    3  C   UNL     1       5.389  32.855  63.640  1.00  0.00     0.019 A 
HETATM    4  C   UNL     1       6.328  33.401  64.521  1.00  0.00     0.032 A 
HETATM    5  C   UNL     1       7.689  33.201  64.273  1.00  0.00     0.019 A 
HETATM    6  C   UNL     1       8.103  32.406  63.199  1.00  0.00     0.030 A 
ENDROOT
BRANCH   1   7
HETATM    7  N   UNL     1       7.653  30.908  61.380  1.00  0.00    -0.309 N 
HETATM    8  C   UNL     1       7.820  31.150  60.022  1.00  0.00     0.325 C 
HETATM    9  N   UNL     1       7.998  29.951  59.350  1.00  0.00    -0.305 N 
HETATM   10  O   UNL     1       7.772  32.252  59.497  1.00  0.00    -0.247 OA
HETATM   11  H   UNL     1       7.703  29.121  59.838  1.00  0.00     0.171 HD
HETATM   12  H   UNL     1       7.950  30.003  61.709  1.00  0.00     0.170 HD
BRANCH   9  13
HETATM   13  C   UNL     1       8.214  29.790  57.991  1.00  0.00     0.086 A 
HETATM   14  C   UNL     1       7.181  29.490  57.121  1.00  0.00     0.052 A 
HETATM   15  C   UNL     1       5.725  29.293  57.317  1.00  0.00     0.072 C 
HETATM   16  N   UNL     1       7.745  29.427  55.879  1.00  0.00    -0.280 N 
HETATM   17  H   UNL     1       7.289  29.249  54.991  1.00  0.00     0.189 HD
HETATM   18  N   UNL     1       9.065  29.625  55.875  1.00  0.00    -0.177 NA
HETATM   19  C   UNL     1       9.374  29.845  57.163  1.00  0.00     0.079 A 
HETATM   20  C   UNL     1      10.799  30.065  57.511  1.00  0.00     0.075 C 
ENDBRANCH   9  13
ENDBRANCH   1   7
BRANCH   4  21
HETATM   21  C   UNL     1       5.935  34.153  65.749  1.00  0.00     0.252 C 
HETATM   22  N   UNL     1       6.604  33.810  66.908  1.00  0.00    -0.352 N 
HETATM   23  H   UNL     1       7.403  33.198  66.820  1.00  0.00     0.163 HD
HETATM   24  O   UNL     1       5.114  35.060  65.671  1.00  0.00    -0.268 OA
BRANCH  22  25
HETATM   25  C   UNL     1       6.547  34.581  68.134  1.00  0.00     0.084 C 
HETATM   26  C   UNL     1       5.571  34.022  69.168  1.00  0.00     0.025 C 
HETATM   27  C   UNL     1       6.010  34.713  70.447  1.00  0.00     0.002 C 
HETATM   28  C   UNL     1       7.530  34.665  70.368  1.00  0.00     0.002 C 
HETATM   29  C   UNL     1       7.872  34.774  68.880  1.00  0.00     0.025 C 
ENDBRANCH  22  25
ENDBRANCH   4  21
TORSDOF 4
ENDMDL
MODEL 2
REMARK VINA RESULT:      -8.7      5.362     12.012
REMARK  4 active torsions:
REMARK  status: ('A' for Active; 'I' for Inactive)
REMARK    1  A    between atoms: C_8  and  N_9 
REMARK       I    between atoms: N_9  and  C_10 
REMARK       I    between atoms: C_10  and  N_11 
REMARK    2  A    between atoms: N_11  and  C_12 
REMARK    3  A    between atoms: C_15  and  C_16 
REMARK       I    between atoms: C_16  and  N_17 
REMARK    4  A    between atoms: N_17  and  C_18 
ROOT
HETATM    1  C   UNL     1       6.676  28.795  55.723  1.00  0.00     0.036 A 
HETATM    2  C   UNL     1       7.688  28.332  54.880  1.00  0.00     0.030 A 
HETATM    3  C   UNL     1       7.594  27.071  54.276  1.00  0.00     0.019 A 
HETATM    4  C   UNL     1       6.491  26.249  54.527  1.00  0.00     0.032 A 
HETATM    5  C   UNL     1       5.447  26.736  55.320  1.00  0.00     0.019 A 
HETATM    6  C   UNL     1       5.539  28.000  55.913  1.00  0.00     0.030 A 
ENDROOT
BRANCH   1   7
HETATM    7  N   UNL     1       6.750  29.997  56.455  1.00  0.00    -0.309 N 
HETATM    8  C   UNL     1       7.121  30.159  57.785  1.00  0.00     0.325 C 
HETATM    9  N   UNL     1       6.747  31.418  58.228  1.00  0.00    -0.305 N 
HETATM   10  O   UNL     1       7.656  29.300  58.470  1.00  0.00    -0.247 OA
HETATM   11  H   UNL     1       6.049  31.891  57.678  1.00  0.00     0.171 HD
HETATM   12  H   UNL     1       6.543  30.842  55.947  1.00  0.00     0.170 HD
BRANCH   9  13
HETATM   13  C   UNL     1       6.965  31.949  59.488  1.00  0.00     0.086 A 
HETATM   14  C   UNL     1       5.923  32.404  60.276  1.00  0.00     0.052 A 
HETATM   15  C   UNL     1       4.456  32.449  60.075  1.00  0.00     0.072 C 
HETATM   16  N   UNL     1       6.494  32.832  61.440  1.00  0.00    -0.280 N 
HETATM   17  H   UNL     1       6.036  33.211  62.262  1.00  0.00     0.189 HD
HETATM   18  N   UNL     1       7.825  32.726  61.460  1.00  0.00    -0.177 NA
HETATM   19  C   UNL     1       8.135  32.190  60.269  1.00  0.00     0.079 A 
HETATM   20  C   UNL     1       9.568  31.976  59.951  1.00  0.00     0.075 C 
ENDBRANCH   9  13
ENDBRANCH   1   7
BRANCH   4  21
HETATM   21  C   UNL     1       6.401  24.848  54.020  1.00  0.00     0.252 C 
HETATM   22  N   UNL     1       7.379  23.980  54.466  1.00  0.00    -0.352 N 
HETATM   23  H   UNL     1       7.984  24.302  55.208  1.00  0.00     0.163 HD
HETATM   24  O   UNL     1       5.458  24.517  53.310  1.00  0.00    -0.268 OA
BRANCH  22  25
HETATM   25  C   UNL     1       7.325  22.543  54.291  1.00  0.00     0.084 C 
HETATM   26  C   UNL     1       7.993  22.053  53.007  1.00  0.00     0.025 C 
HETATM   27  C   UNL     1       8.180  20.569  53.275  1.00  0.00     0.002 C 
HETATM   28  C   UNL     1       8.638  20.530  54.727  1.00  0.00     0.002 C 
HETATM   29  C   UNL     1       7.928  21.696  55.419  1.00  0.00     0.025 C 
ENDBRANCH  22  25
ENDBRANCH   4  21
TORSDOF 4
ENDMDL
MODEL 3
REMARK VINA RESULT:      -8.7      3.927      6.639
REMARK  4 active torsions:
REMARK  status: ('A' for Active; 'I' for Inactive)
REMARK    1  A    between atoms: C_8  and  N_9 
REMARK       I    between atoms: N_9  and  C_10 
REMARK       I    between atoms: C_10  and  N_11 
REMARK    2  A    between atoms: N_11  and  C_12 
REMARK    3  A    between atoms: C_15  and  C_16 
REMARK       I    between atoms: C_16  and  N_17 
REMARK    4  A    between atoms: N_17  and  C_18 
ROOT
HETATM    1  C   UNL     1       7.895  28.941  56.860  1.00  0.00     0.036 A 
HETATM    2  C   UNL     1       9.161  29.246  57.366  1.00  0.00     0.030 A 
HETATM    3  C   UNL     1       9.317  30.220  58.360  1.00  0.00     0.019 A 
HETATM    4  C   UNL     1       8.206  30.917  58.846  1.00  0.00     0.032 A 
HETATM    5  C   UNL     1       6.931  30.570  58.386  1.00  0.00     0.019 A 
HETATM    6  C   UNL     1       6.778  29.589  57.401  1.00  0.00     0.030 A 
ENDROOT
BRANCH   1   7
HETATM    7  N   UNL     1       7.669  28.060  55.783  1.00  0.00    -0.309 N 
HETATM    8  C   UNL     1       7.481  26.684  55.837  1.00  0.00     0.325 C 
HETATM    9  N   UNL     1       7.629  26.139  54.572  1.00  0.00    -0.305 N 
HETATM   10  O   UNL     1       7.264  26.049  56.858  1.00  0.00    -0.247 OA
HETATM   11  H   UNL     1       8.111  26.711  53.897  1.00  0.00     0.171 HD
HETATM   12  H   UNL     1       7.602  28.481  54.870  1.00  0.00     0.170 HD
BRANCH   9  13
HETATM   13  C   UNL     1       7.495  24.804  54.226  1.00  0.00     0.086 A 
HETATM   14  C   UNL     1       6.588  24.389  53.268  1.00  0.00     0.052 A 
HETATM   15  C   UNL     1       5.623  25.119  52.413  1.00  0.00     0.072 C 
HETATM   16  N   UNL     1       6.742  23.036  53.171  1.00  0.00    -0.280 N 
HETATM   17  H   UNL     1       6.258  22.392  52.554  1.00  0.00     0.189 HD
HETATM   18  N   UNL     1       7.648  22.533  54.011  1.00  0.00    -0.177 NA
HETATM   19  C   UNL     1       8.120  23.602  54.672  1.00  0.00     0.079 A 
HETATM   20  C   UNL     1       9.136  23.377  55.729  1.00  0.00     0.075 C 
ENDBRANCH   9  13
ENDBRANCH   1   7
BRANCH   4  21
HETATM   21  C   UNL     1       8.328  32.055  59.805  1.00  0.00     0.252 C 
HETATM   22  N   UNL     1       7.324  32.160  60.748  1.00  0.00    -0.352 N 
HETATM   23  H   UNL     1       6.673  31.391  60.824  1.00  0.00     0.163 HD
HETATM   24  O   UNL     1       9.314  32.782  59.764  1.00  0.00    -0.268 OA
BRANCH  22  25
HETATM   25  C   UNL     1       7.388  33.032  61.904  1.00  0.00     0.084 C 
HETATM   26  C   UNL     1       6.019  33.446  62.441  1.00  0.00     0.025 C 
HETATM   27  C   UNL     1       6.348  33.957  63.833  1.00  0.00     0.002 C 
HETATM   28  C   UNL     1       7.367  32.948  64.345  1.00  0.00     0.002 C 
HETATM   29  C   UNL     1       8.163  32.500  63.117  1.00  0.00     0.025 C 
ENDBRANCH  22  25
ENDBRANCH   4  21
TORSDOF 4
ENDMDL
MODEL 4
REMARK VINA RESULT:      -8.6      3.544      6.105
REMARK  4 active torsions:
REMARK  status: ('A' for Active; 'I' for Inactive)
REMARK    1  A    between atoms: C_8  and  N_9 
REMARK       I    between atoms: N_9  and  C_10 
REMARK       I    between atoms: C_10  and  N_11 
REMARK    2  A    between atoms: N_11  and  C_12 
REMARK    3  A    between atoms: C_15  and  C_16 
REMARK       I    between atoms: C_16  and  N_17 
REMARK    4  A    between atoms: N_17  and  C_18 
ROOT
HETATM    1  C   UNL     1       6.762  29.124  57.572  1.00  0.00     0.036 A 
HETATM    2  C   UNL     1       5.994  30.288  57.646  1.00  0.00     0.030 A 
HETATM    3  C   UNL     1       6.387  31.353  58.467  1.00  0.00     0.019 A 
HETATM    4  C   UNL     1       7.547  31.255  59.242  1.00  0.00     0.032 A 
HETATM    5  C   UNL     1       8.350  30.116  59.123  1.00  0.00     0.019 A 
HETATM    6  C   UNL     1       7.961  29.060  58.293  1.00  0.00     0.030 A 
ENDROOT
BRANCH   1   7
HETATM    7  N   UNL     1       6.376  27.970  56.861  1.00  0.00    -0.309 N 
HETATM    8  C   UNL     1       6.382  27.779  55.485  1.00  0.00     0.325 C 
HETATM    9  N   UNL     1       5.626  26.663  55.161  1.00  0.00    -0.305 N 
HETATM   10  O   UNL     1       6.934  28.514  54.680  1.00  0.00    -0.247 OA
HETATM   11  H   UNL     1       4.980  26.346  55.866  1.00  0.00     0.171 HD
HETATM   12  H   UNL     1       6.095  27.178  57.417  1.00  0.00     0.170 HD
BRANCH   9  13
HETATM   13  C   UNL     1       5.415  26.147  53.893  1.00  0.00     0.086 A 
HETATM   14  C   UNL     1       4.551  26.751  52.997  1.00  0.00     0.052 A 
HETATM   15  C   UNL     1       3.713  27.970  53.074  1.00  0.00     0.072 C 
HETATM   16  N   UNL     1       4.606  25.997  51.860  1.00  0.00    -0.280 N 
HETATM   17  H   UNL     1       4.121  26.148  50.983  1.00  0.00     0.189 HD
HETATM   18  N   UNL     1       5.406  24.932  51.956  1.00  0.00    -0.177 NA
HETATM   19  C   UNL     1       5.909  25.004  53.199  1.00  0.00     0.079 A 
HETATM   20  C   UNL     1       6.823  23.924  53.645  1.00  0.00     0.075 C 
ENDBRANCH   9  13
ENDBRANCH   1   7
BRANCH   4  21
HETATM   21  C   UNL     1       7.941  32.300  60.233  1.00  0.00     0.252 C 
HETATM   22  N   UNL     1       6.993  32.617  61.186  1.00  0.00    -0.352 N 
HETATM   23  H   UNL     1       6.175  32.027  61.244  1.00  0.00     0.163 HD
HETATM   24  O   UNL     1       9.074  32.767  60.206  1.00  0.00    -0.268 OA
BRANCH  22  25
HETATM   25  C   UNL     1       7.267  33.411  62.367  1.00  0.00     0.084 C 
HETATM   26  C   UNL     1       6.034  34.106  62.942  1.00  0.00     0.025 C 
HETATM   27  C   UNL     1       6.487  34.481  64.343  1.00  0.00     0.002 C 
HETATM   28  C   UNL     1       7.257  33.251  64.804  1.00  0.00     0.002 C 
HETATM   29  C   UNL     1       7.916  32.677  63.547  1.00  0.00     0.025 C 
ENDBRANCH  22  25
ENDBRANCH   4  21
TORSDOF 4
ENDMDL
MODEL 5
REMARK VINA RESULT:      -8.6      4.914      7.701
REMARK  4 active torsions:
REMARK  status: ('A' for Active; 'I' for Inactive)
REMARK    1  A    between atoms: C_8  and  N_9 
REMARK       I    between atoms: N_9  and  C_10 
REMARK       I    between atoms: C_10  and  N_11 
REMARK    2  A    between atoms: N_11  and  C_12 
REMARK    3  A    between atoms: C_15  and  C_16 
REMARK       I    between atoms: C_16  and  N_17 
REMARK    4  A    between atoms: N_17  and  C_18 
ROOT
HETATM    1  C   UNL     1       6.970  27.289  56.952  1.00  0.00     0.036 A 
HETATM    2  C   UNL     1       5.953  28.222  57.167  1.00  0.00     0.030 A 
HETATM    3  C   UNL     1       6.233  29.463  57.754  1.00  0.00     0.019 A 
HETATM    4  C   UNL     1       7.537  29.776  58.152  1.00  0.00     0.032 A 
HETATM    5  C   UNL     1       8.567  28.870  57.881  1.00  0.00     0.019 A 
HETATM    6  C   UNL     1       8.285  27.636  57.285  1.00  0.00     0.030 A 
ENDROOT
BRANCH   1   7
HETATM    7  N   UNL     1       6.750  25.981  56.475  1.00  0.00    -0.309 N 
HETATM    8  C   UNL     1       7.681  24.957  56.348  1.00  0.00     0.325 C 
HETATM    9  N   UNL     1       7.170  23.954  55.541  1.00  0.00    -0.305 N 
HETATM   10  O   UNL     1       8.800  24.965  56.840  1.00  0.00    -0.247 OA
HETATM   11  H   UNL     1       6.391  24.210  54.956  1.00  0.00     0.171 HD
HETATM   12  H   UNL     1       5.801  25.750  56.229  1.00  0.00     0.170 HD
BRANCH   9  13
HETATM   13  C   UNL     1       7.797  22.766  55.201  1.00  0.00     0.086 A 
HETATM   14  C   UNL     1       8.077  22.442  53.886  1.00  0.00     0.052 A 
HETATM   15  C   UNL     1       7.855  23.155  52.605  1.00  0.00     0.072 C 
HETATM   16  N   UNL     1       8.707  21.231  53.925  1.00  0.00    -0.280 N 
HETATM   17  H   UNL     1       9.078  20.691  53.151  1.00  0.00     0.189 HD
HETATM   18  N   UNL     1       8.826  20.725  55.154  1.00  0.00    -0.177 NA
HETATM   19  C   UNL     1       8.269  21.649  55.952  1.00  0.00     0.079 A 
HETATM   20  C   UNL     1       8.204  21.368  57.408  1.00  0.00     0.075 C 
ENDBRANCH   9  13
ENDBRANCH   1   7
BRANCH   4  21
HETATM   21  C   UNL     1       7.870  31.024  58.901  1.00  0.00     0.252 C 
HETATM   22  N   UNL     1       7.127  31.260  60.041  1.00  0.00    -0.352 N 
HETATM   23  H   UNL     1       6.529  30.515  60.370  1.00  0.00     0.163 HD
HETATM   24  O   UNL     1       8.802  31.727  58.528  1.00  0.00    -0.268 OA
BRANCH  22  25
HETATM   25  C   UNL     1       7.457  32.269  61.028  1.00  0.00     0.084 C 
HETATM   26  C   UNL     1       6.253  32.774  61.821  1.00  0.00     0.025 C 
HETATM   27  C   UNL     1       6.901  33.450  63.016  1.00  0.00     0.002 C 
HETATM   28  C   UNL     1       8.026  32.494  63.392  1.00  0.00     0.002 C 
HETATM   29  C   UNL     1       8.507  31.880  62.076  1.00  0.00     0.025 C 
ENDBRANCH  22  25
ENDBRANCH   4  21
TORSDOF 4
ENDMDL
MODEL 6
REMARK VINA RESULT:      -8.5      3.760      6.756
REMARK  4 active torsions:
REMARK  status: ('A' for Active; 'I' for Inactive)
REMARK    1  A    between atoms: C_8  and  N_9 
REMARK       I    between atoms: N_9  and  C_10 
REMARK       I    between atoms: C_10  and  N_11 
REMARK    2  A    between atoms: N_11  and  C_12 
REMARK    3  A    between atoms: C_15  and  C_16 
REMARK       I    between atoms: C_16  and  N_17 
REMARK    4  A    between atoms: N_17  and  C_18 
ROOT
HETATM    1  C   UNL     1       6.933  28.614  57.061  1.00  0.00     0.036 A 
HETATM    2  C   UNL     1       8.173  28.640  57.704  1.00  0.00     0.030 A 
HETATM    3  C   UNL     1       8.486  29.663  58.608  1.00  0.00     0.019 A 
HETATM    4  C   UNL     1       7.567  30.685  58.864  1.00  0.00     0.032 A 
HETATM    5  C   UNL     1       6.302  30.627  58.269  1.00  0.00     0.019 A 
HETATM    6  C   UNL     1       5.989  29.598  57.375  1.00  0.00     0.030 A 
ENDROOT
BRANCH   1   7
HETATM    7  N   UNL     1       6.587  27.687  56.056  1.00  0.00    -0.309 N 
HETATM    8  C   UNL     1       6.661  27.862  54.679  1.00  0.00     0.325 C 
HETATM    9  N   UNL     1       5.928  26.876  54.040  1.00  0.00    -0.305 N 
HETATM   10  O   UNL     1       7.249  28.777  54.122  1.00  0.00    -0.247 OA
HETATM   11  H   UNL     1       5.249  26.391  54.606  1.00  0.00     0.171 HD
HETATM   12  H   UNL     1       6.283  26.780  56.372  1.00  0.00     0.170 HD
BRANCH   9  13
HETATM   13  C   UNL     1       5.781  26.709  52.673  1.00  0.00     0.086 A 
HETATM   14  C   UNL     1       6.550  25.805  51.963  1.00  0.00     0.052 A 
HETATM   15  C   UNL     1       7.606  24.847  52.368  1.00  0.00     0.072 C 
HETATM   16  N   UNL     1       6.127  25.891  50.668  1.00  0.00    -0.280 N 
HETATM   17  H   UNL     1       6.450  25.359  49.866  1.00  0.00     0.189 HD
HETATM   18  N   UNL     1       5.173  26.802  50.470  1.00  0.00    -0.177 NA
HETATM   19  C   UNL     1       4.948  27.320  51.688  1.00  0.00     0.079 A 
HETATM   20  C   UNL     1       3.950  28.411  51.810  1.00  0.00     0.075 C 
ENDBRANCH   9  13
ENDBRANCH   1   7
BRANCH   4  21
HETATM   21  C   UNL     1       7.897  31.869  59.712  1.00  0.00     0.252 C 
HETATM   22  N   UNL     1       7.056  32.097  60.784  1.00  0.00    -0.352 N 
HETATM   23  H   UNL     1       6.383  31.378  61.009  1.00  0.00     0.163 HD
HETATM   24  O   UNL     1       8.904  32.526  59.475  1.00  0.00    -0.268 OA
BRANCH  22  25
HETATM   25  C   UNL     1       7.345  33.031  61.854  1.00  0.00     0.084 C 
HETATM   26  C   UNL     1       6.097  33.623  62.509  1.00  0.00     0.025 C 
HETATM   27  C   UNL     1       6.641  34.186  63.810  1.00  0.00     0.002 C 
HETATM   28  C   UNL     1       7.611  33.111  64.281  1.00  0.00     0.002 C 
HETATM   29  C   UNL     1       8.204  32.501  63.008  1.00  0.00     0.025 C 
ENDBRANCH  22  25
ENDBRANCH   4  21
TORSDOF 4
ENDMDL
MODEL 7
REMARK VINA RESULT:      -8.3      5.561      8.539
REMARK  4 active torsions:
REMARK  status: ('A' for Active; 'I' for Inactive)
REMARK    1  A    between atoms: C_8  and  N_9 
REMARK       I    between atoms: N_9  and  C_10 
REMARK       I    between atoms: C_10  and  N_11 
REMARK    2  A    between atoms: N_11  and  C_12 
REMARK    3  A    between atoms: C_15  and  C_16 
REMARK       I    between atoms: C_16  and  N_17 
REMARK    4  A    between atoms: N_17  and  C_18 
ROOT
HETATM    1  C   UNL     1       7.068  26.411  56.781  1.00  0.00     0.036 A 
HETATM    2  C   UNL     1       6.053  27.316  57.094  1.00  0.00     0.030 A 
HETATM    3  C   UNL     1       6.360  28.601  57.560  1.00  0.00     0.019 A 
HETATM    4  C   UNL     1       7.692  28.987  57.739  1.00  0.00     0.032 A 
HETATM    5  C   UNL     1       8.711  28.104  57.368  1.00  0.00     0.019 A 
HETATM    6  C   UNL     1       8.401  26.826  56.892  1.00  0.00     0.030 A 
ENDROOT
BRANCH   1   7
HETATM    7  N   UNL     1       6.841  25.068  56.418  1.00  0.00    -0.309 N 
HETATM    8  C   UNL     1       7.779  24.047  56.313  1.00  0.00     0.325 C 
HETATM    9  N   UNL     1       7.236  22.980  55.615  1.00  0.00    -0.305 N 
HETATM   10  O   UNL     1       8.924  24.104  56.735  1.00  0.00    -0.247 OA
HETATM   11  H   UNL     1       6.420  23.183  55.060  1.00  0.00     0.171 HD
HETATM   12  H   UNL     1       5.883  24.808  56.247  1.00  0.00     0.170 HD
BRANCH   9  13
HETATM   13  C   UNL     1       7.860  21.777  55.328  1.00  0.00     0.086 A 
HETATM   14  C   UNL     1       8.361  20.961  56.326  1.00  0.00     0.052 A 
HETATM   15  C   UNL     1       8.377  21.074  57.804  1.00  0.00     0.072 C 
HETATM   16  N   UNL     1       8.877  19.868  55.692  1.00  0.00    -0.280 N 
HETATM   17  H   UNL     1       9.311  19.049  56.104  1.00  0.00     0.189 HD
HETATM   18  N   UNL     1       8.786  19.923  54.361  1.00  0.00    -0.177 NA
HETATM   19  C   UNL     1       8.168  21.089  54.117  1.00  0.00     0.079 A 
HETATM   20  C   UNL     1       7.944  21.478  52.702  1.00  0.00     0.075 C 
ENDBRANCH   9  13
ENDBRANCH   1   7
BRANCH   4  21
HETATM   21  C   UNL     1       8.074  30.291  58.357  1.00  0.00     0.252 C 
HETATM   22  N   UNL     1       7.355  30.663  59.476  1.00  0.00    -0.352 N 
HETATM   23  H   UNL     1       6.738  29.975  59.883  1.00  0.00     0.163 HD
HETATM   24  O   UNL     1       9.023  30.923  57.907  1.00  0.00    -0.268 OA
BRANCH  22  25
HETATM   25  C   UNL     1       7.731  31.753  60.354  1.00  0.00     0.084 C 
HETATM   26  C   UNL     1       6.543  32.448  61.017  1.00  0.00     0.025 C 
HETATM   27  C   UNL     1       7.197  33.207  62.159  1.00  0.00     0.002 C 
HETATM   28  C   UNL     1       8.215  32.214  62.703  1.00  0.00     0.002 C 
HETATM   29  C   UNL     1       8.696  31.408  61.495  1.00  0.00     0.025 C 
ENDBRANCH  22  25
ENDBRANCH   4  21
TORSDOF 4
ENDMDL
MODEL 8
REMARK VINA RESULT:      -8.2      2.958     10.204
REMARK  4 active torsions:
REMARK  status: ('A' for Active; 'I' for Inactive)
REMARK    1  A    between atoms: C_8  and  N_9 
REMARK       I    between atoms: N_9  and  C_10 
REMARK       I    between atoms: C_10  and  N_11 
REMARK    2  A    between atoms: N_11  and  C_12 
REMARK    3  A    between atoms: C_15  and  C_16 
REMARK       I    between atoms: C_16  and  N_17 
REMARK    4  A    between atoms: N_17  and  C_18 
ROOT
HETATM    1  C   UNL     1       7.334  31.838  59.470  1.00  0.00     0.036 A 
HETATM    2  C   UNL     1       8.670  31.444  59.369  1.00  0.00     0.030 A 
HETATM    3  C   UNL     1       9.051  30.437  58.473  1.00  0.00     0.019 A 
HETATM    4  C   UNL     1       8.093  29.796  57.681  1.00  0.00     0.032 A 
HETATM    5  C   UNL     1       6.765  30.232  57.736  1.00  0.00     0.019 A 
HETATM    6  C   UNL     1       6.389  31.246  58.623  1.00  0.00     0.030 A 
ENDROOT
BRANCH   1   7
HETATM    7  N   UNL     1       6.855  32.759  60.424  1.00  0.00    -0.309 N 
HETATM    8  C   UNL     1       6.432  32.494  61.721  1.00  0.00     0.325 C 
HETATM    9  N   UNL     1       5.728  33.580  62.217  1.00  0.00    -0.305 N 
HETATM   10  O   UNL     1       6.616  31.442  62.314  1.00  0.00    -0.247 OA
HETATM   11  H   UNL     1       5.381  34.233  61.532  1.00  0.00     0.171 HD
HETATM   12  H   UNL     1       6.851  33.728  60.146  1.00  0.00     0.170 HD
BRANCH   9  13
HETATM   13  C   UNL     1       5.168  33.695  63.478  1.00  0.00     0.086 A 
HETATM   14  C   UNL     1       3.811  33.894  63.656  1.00  0.00     0.052 A 
HETATM   15  C   UNL     1       2.678  34.010  62.708  1.00  0.00     0.072 C 
HETATM   16  N   UNL     1       3.614  33.938  65.007  1.00  0.00    -0.280 N 
HETATM   17  H   UNL     1       2.740  34.049  65.511  1.00  0.00     0.189 HD
HETATM   18  N   UNL     1       4.736  33.821  65.720  1.00  0.00    -0.177 NA
HETATM   19  C   UNL     1       5.703  33.676  64.801  1.00  0.00     0.079 A 
HETATM   20  C   UNL     1       7.104  33.558  65.274  1.00  0.00     0.075 C 
ENDBRANCH   9  13
ENDBRANCH   1   7
BRANCH   4  21
HETATM   21  C   UNL     1       8.420  28.629  56.810  1.00  0.00     0.252 C 
HETATM   22  N   UNL     1       8.169  27.383  57.350  1.00  0.00    -0.352 N 
HETATM   23  H   UNL     1       7.649  27.347  58.216  1.00  0.00     0.163 HD
HETATM   24  O   UNL     1       8.818  28.816  55.666  1.00  0.00    -0.268 OA
BRANCH  22  25
HETATM   25  C   UNL     1       8.183  26.152  56.586  1.00  0.00     0.084 C 
HETATM   26  C   UNL     1       8.556  24.920  57.409  1.00  0.00     0.025 C 
HETATM   27  C   UNL     1       8.087  23.776  56.527  1.00  0.00     0.002 C 
HETATM   28  C   UNL     1       6.745  24.266  56.001  1.00  0.00     0.002 C 
HETATM   29  C   UNL     1       6.883  25.784  55.860  1.00  0.00     0.025 C 
ENDBRANCH  22  25
ENDBRANCH   4  21
TORSDOF 4
ENDMDL
MODEL 9
REMARK VINA RESULT:      -8.0      2.274      3.208
REMARK  4 active torsions:
REMARK  status: ('A' for Active; 'I' for Inactive)
REMARK    1  A    between atoms: C_8  and  N_9 
REMARK       I    between atoms: N_9  and  C_10 
REMARK       I    between atoms: C_10  and  N_11 
REMARK    2  A    between atoms: N_11  and  C_12 
REMARK    3  A    between atoms: C_15  and  C_16 
REMARK       I    between atoms: C_16  and  N_17 
REMARK    4  A    between atoms: N_17  and  C_18 
ROOT
HETATM    1  C   UNL     1       5.883  33.949  64.424  1.00  0.00     0.036 A 
HETATM    2  C   UNL     1       4.627  34.019  65.032  1.00  0.00     0.030 A 
HETATM    3  C   UNL     1       4.512  34.124  66.424  1.00  0.00     0.019 A 
HETATM    4  C   UNL     1       5.657  34.138  67.228  1.00  0.00     0.032 A 
HETATM    5  C   UNL     1       6.916  34.131  66.618  1.00  0.00     0.019 A 
HETATM    6  C   UNL     1       7.027  34.038  65.227  1.00  0.00     0.030 A 
ENDROOT
BRANCH   1   7
HETATM    7  N   UNL     1       6.079  33.728  63.046  1.00  0.00    -0.309 N 
HETATM    8  C   UNL     1       6.405  32.532  62.416  1.00  0.00     0.325 C 
HETATM    9  N   UNL     1       6.839  32.784  61.125  1.00  0.00    -0.305 N 
HETATM   10  O   UNL     1       6.357  31.431  62.942  1.00  0.00    -0.247 OA
HETATM   11  H   UNL     1       7.129  33.729  60.931  1.00  0.00     0.171 HD
HETATM   12  H   UNL     1       5.933  34.521  62.442  1.00  0.00     0.170 HD
BRANCH   9  13
HETATM   13  C   UNL     1       7.231  31.844  60.186  1.00  0.00     0.086 A 
HETATM   14  C   UNL     1       6.562  31.692  58.985  1.00  0.00     0.052 A 
HETATM   15  C   UNL     1       5.400  32.389  58.387  1.00  0.00     0.072 C 
HETATM   16  N   UNL     1       7.224  30.707  58.311  1.00  0.00    -0.280 N 
HETATM   17  H   UNL     1       7.031  30.341  57.385  1.00  0.00     0.189 HD
HETATM   18  N   UNL     1       8.246  30.181  58.989  1.00  0.00    -0.177 NA
HETATM   19  C   UNL     1       8.265  30.862  60.146  1.00  0.00     0.079 A 
HETATM   20  C   UNL     1       9.280  30.485  61.161  1.00  0.00     0.075 C 
ENDBRANCH   9  13
ENDBRANCH   1   7
BRANCH   4  21
HETATM   21  C   UNL     1       5.592  34.113  68.719  1.00  0.00     0.252 C 
HETATM   22  N   UNL     1       6.333  33.126  69.339  1.00  0.00    -0.352 N 
HETATM   23  H   UNL     1       6.976  32.597  68.767  1.00  0.00     0.163 HD
HETATM   24  O   UNL     1       4.963  34.980  69.316  1.00  0.00    -0.268 OA
BRANCH  22  25
HETATM   25  C   UNL     1       6.597  33.087  70.763  1.00  0.00     0.084 C 
HETATM   26  C   UNL     1       7.044  31.716  71.270  1.00  0.00     0.025 C 
HETATM   27  C   UNL     1       7.650  32.044  72.624  1.00  0.00     0.002 C 
HETATM   28  C   UNL     1       8.432  33.324  72.358  1.00  0.00     0.002 C 
HETATM   29  C   UNL     1       7.638  34.082  71.291  1.00  0.00     0.025 C 
ENDBRANCH  22  25
ENDBRANCH   4  21
TORSDOF 4
ENDMDL
MODEL 10
REMARK VINA RESULT:      -7.9      5.477     12.045
REMARK  4 active torsions:
REMARK  status: ('A' for Active; 'I' for Inactive)
REMARK    1  A    between atoms: C_8  and  N_9 
REMARK       I    between atoms: N_9  and  C_10 
REMARK       I    between atoms: C_10  and  N_11 
REMARK    2  A    between atoms: N_11  and  C_12 
REMARK    3  A    between atoms: C_15  and  C_16 
REMARK       I    between atoms: C_16  and  N_17 
REMARK    4  A    between atoms: N_17  and  C_18 
ROOT
HETATM    1  C   UNL     1       5.589  27.935  57.001  1.00  0.00     0.036 A 
HETATM    2  C   UNL     1       6.786  27.337  57.400  1.00  0.00     0.030 A 
HETATM    3  C   UNL     1       7.317  26.256  56.685  1.00  0.00     0.019 A 
HETATM    4  C   UNL     1       6.641  25.745  55.572  1.00  0.00     0.032 A 
HETATM    5  C   UNL     1       5.474  26.381  55.135  1.00  0.00     0.019 A 
HETATM    6  C   UNL     1       4.953  27.468  55.844  1.00  0.00     0.030 A 
ENDROOT
BRANCH   1   7
HETATM    7  N   UNL     1       4.933  28.949  57.730  1.00  0.00    -0.309 N 
HETATM    8  C   UNL     1       5.072  30.324  57.584  1.00  0.00     0.325 C 
HETATM    9  N   UNL     1       4.536  30.970  58.686  1.00  0.00    -0.305 N 
HETATM   10  O   UNL     1       5.626  30.874  56.644  1.00  0.00    -0.247 OA
HETATM   11  H   UNL     1       4.406  30.406  59.511  1.00  0.00     0.171 HD
HETATM   12  H   UNL     1       4.260  28.641  58.414  1.00  0.00     0.170 HD
BRANCH   9  13
HETATM   13  C   UNL     1       4.471  32.339  58.891  1.00  0.00     0.086 A 
HETATM   14  C   UNL     1       4.982  32.927  60.034  1.00  0.00     0.052 A 
HETATM   15  C   UNL     1       5.678  32.380  61.222  1.00  0.00     0.072 C 
HETATM   16  N   UNL     1       4.768  34.268  59.891  1.00  0.00    -0.280 N 
HETATM   17  H   UNL     1       5.030  35.017  60.523  1.00  0.00     0.189 HD
HETATM   18  N   UNL     1       4.128  34.596  58.767  1.00  0.00    -0.177 NA
HETATM   19  C   UNL     1       3.932  33.425  58.140  1.00  0.00     0.079 A 
HETATM   20  C   UNL     1       3.196  33.437  56.852  1.00  0.00     0.075 C 
ENDBRANCH   9  13
ENDBRANCH   1   7
BRANCH   4  21
HETATM   21  C   UNL     1       7.088  24.514  54.856  1.00  0.00     0.252 C 
HETATM   22  N   UNL     1       8.229  23.910  55.348  1.00  0.00    -0.352 N 
HETATM   23  H   UNL     1       8.589  24.243  56.231  1.00  0.00     0.163 HD
HETATM   24  O   UNL     1       6.411  24.064  53.938  1.00  0.00    -0.268 OA
BRANCH  22  25
HETATM   25  C   UNL     1       8.678  22.589  54.956  1.00  0.00     0.084 C 
HETATM   26  C   UNL     1       7.858  21.453  55.567  1.00  0.00     0.025 C 
HETATM   27  C   UNL     1       8.230  20.267  54.694  1.00  0.00     0.002 C 
HETATM   28  C   UNL     1       8.245  20.856  53.290  1.00  0.00     0.002 C 
HETATM   29  C   UNL     1       8.721  22.302  53.450  1.00  0.00     0.025 C 
ENDBRANCH  22  25
ENDBRANCH   4  21
TORSDOF 4
ENDMDL
