MODEL 1
REMARK VINA RESULT:      -9.3      0.000      0.000
REMARK  5 active torsions:
REMARK  status: ('A' for Active; 'I' for Inactive)
REMARK    1  A    between atoms: C_6  and  C_7 
REMARK    2  A    between atoms: C_7  and  N_8 
REMARK       I    between atoms: N_8  and  C_9 
REMARK       I    between atoms: C_9  and  N_10 
REMARK    3  A    between atoms: N_10  and  C_11 
REMARK    4  A    between atoms: C_14  and  C_15 
REMARK       I    between atoms: C_15  and  N_16 
REMARK    5  A    between atoms: N_16  and  C_17 
ROOT
HETATM    1  C   UNL     1       8.046  29.703  57.840  1.00  0.00     0.036 A 
HETATM    2  C   UNL     1       6.707  29.329  57.709  1.00  0.00     0.030 A 
HETATM    3  C   UNL     1       6.368  28.062  57.218  1.00  0.00     0.019 A 
HETATM    4  C   UNL     1       7.365  27.165  56.821  1.00  0.00     0.032 A 
HETATM    5  C   UNL     1       8.706  27.548  56.912  1.00  0.00     0.019 A 
HETATM    6  C   UNL     1       9.039  28.815  57.404  1.00  0.00     0.030 A 
ENDROOT
BRANCH   1   7
HETATM    7  N   UNL     1       8.486  30.932  58.363  1.00  0.00    -0.309 N 
HETATM    8  C   UNL     1       8.449  31.474  59.611  1.00  0.00     0.321 C 
HETATM    9  N   UNL     1       8.118  30.668  60.646  1.00  0.00    -0.337 N 
HETATM   10  O   UNL     1       8.757  32.655  59.765  1.00  0.00    -0.247 OA
HETATM   11  H   UNL     1       8.309  29.682  60.541  1.00  0.00     0.164 HD
HETATM   12  H   UNL     1       8.935  31.567  57.715  1.00  0.00     0.170 HD
BRANCH   9  13
HETATM   13  C   UNL     1       8.166  31.149  62.006  1.00  0.00     0.186 C 
BRANCH  13  14
HETATM   14  C   UNL     1       6.920  31.905  62.308  1.00  0.00     0.083 A 
HETATM   15  C   UNL     1       6.673  32.774  63.351  1.00  0.00     0.076 A 
HETATM   16  C   UNL     1       7.456  33.260  64.501  1.00  0.00     0.079 C 
HETATM   17  O   UNL     1       5.394  33.238  63.220  1.00  0.00    -0.307 OA
HETATM   18  C   UNL     1       4.930  32.616  62.103  1.00  0.00     0.258 A 
HETATM   19  N   UNL     1       5.781  31.800  61.525  1.00  0.00    -0.237 NA
ENDBRANCH  13  14
ENDBRANCH   9  13
ENDBRANCH   1   7
BRANCH   4  20
HETATM   20  C   UNL     1       6.966  25.799  56.373  1.00  0.00     0.256 C 
HETATM   21  N   UNL     1       7.869  25.169  55.536  1.00  0.00    -0.323 N 
HETATM   22  H   UNL     1       8.621  25.732  55.161  1.00  0.00     0.169 HD
HETATM   23  O   UNL     1       5.888  25.359  56.753  1.00  0.00    -0.267 OA
BRANCH  21  24
HETATM   24  C   UNL     1       7.827  23.831  55.091  1.00  0.00     0.035 A 
HETATM   25  C   UNL     1       7.847  22.726  55.944  1.00  0.00     0.029 A 
HETATM   26  C   UNL     1       7.837  21.428  55.425  1.00  0.00     0.002 A 
HETATM   27  C   UNL     1       7.807  21.222  54.048  1.00  0.00     0.000 A 
HETATM   28  C   UNL     1       7.787  22.317  53.188  1.00  0.00     0.002 A 
HETATM   29  C   UNL     1       7.799  23.614  53.707  1.00  0.00     0.029 A 
ENDBRANCH  21  24
ENDBRANCH   4  20
TORSDOF 5
ENDMDL
MODEL 2
REMARK VINA RESULT:      -9.2      1.927      9.783
REMARK  5 active torsions:
REMARK  status: ('A' for Active; 'I' for Inactive)
REMARK    1  A    between atoms: C_6  and  C_7 
REMARK    2  A    between atoms: C_7  and  N_8 
REMARK       I    between atoms: N_8  and  C_9 
REMARK       I    between atoms: C_9  and  N_10 
REMARK    3  A    between atoms: N_10  and  C_11 
REMARK    4  A    between atoms: C_14  and  C_15 
REMARK       I    between atoms: C_15  and  N_16 
REMARK    5  A    between atoms: N_16  and  C_17 
ROOT
HETATM    1  C   UNL     1       7.853  29.201  55.863  1.00  0.00     0.036 A 
HETATM    2  C   UNL     1       6.740  29.787  56.468  1.00  0.00     0.030 A 
HETATM    3  C   UNL     1       6.889  30.589  57.606  1.00  0.00     0.019 A 
HETATM    4  C   UNL     1       8.153  30.790  58.171  1.00  0.00     0.032 A 
HETATM    5  C   UNL     1       9.267  30.174  57.593  1.00  0.00     0.019 A 
HETATM    6  C   UNL     1       9.111  29.374  56.455  1.00  0.00     0.030 A 
ENDROOT
BRANCH   1   7
HETATM    7  N   UNL     1       7.810  28.418  54.694  1.00  0.00    -0.309 N 
HETATM    8  C   UNL     1       7.382  27.151  54.444  1.00  0.00     0.321 C 
HETATM    9  N   UNL     1       6.670  26.518  55.404  1.00  0.00    -0.337 N 
HETATM   10  O   UNL     1       7.614  26.642  53.348  1.00  0.00    -0.247 OA
HETATM   11  H   UNL     1       6.151  27.095  56.049  1.00  0.00     0.164 HD
HETATM   12  H   UNL     1       8.145  28.853  53.844  1.00  0.00     0.170 HD
BRANCH   9  13
HETATM   13  C   UNL     1       6.094  25.217  55.164  1.00  0.00     0.186 C 
BRANCH  13  14
HETATM   14  C   UNL     1       7.090  24.164  55.502  1.00  0.00     0.083 A 
HETATM   15  C   UNL     1       7.700  23.255  54.661  1.00  0.00     0.076 A 
HETATM   16  C   UNL     1       7.618  22.962  53.220  1.00  0.00     0.079 C 
HETATM   17  O   UNL     1       8.548  22.488  55.412  1.00  0.00    -0.307 OA
HETATM   18  C   UNL     1       8.399  22.972  56.674  1.00  0.00     0.258 A 
HETATM   19  N   UNL     1       7.537  23.955  56.798  1.00  0.00    -0.237 NA
ENDBRANCH  13  14
ENDBRANCH   9  13
ENDBRANCH   1   7
BRANCH   4  20
HETATM   20  C   UNL     1       8.281  31.710  59.339  1.00  0.00     0.256 C 
HETATM   21  N   UNL     1       7.260  31.623  60.268  1.00  0.00    -0.323 N 
HETATM   22  H   UNL     1       6.441  31.089  60.006  1.00  0.00     0.169 HD
HETATM   23  O   UNL     1       9.244  32.466  59.374  1.00  0.00    -0.267 OA
BRANCH  21  24
HETATM   24  C   UNL     1       7.201  32.252  61.529  1.00  0.00     0.035 A 
HETATM   25  C   UNL     1       8.081  31.976  62.578  1.00  0.00     0.029 A 
HETATM   26  C   UNL     1       7.937  32.617  63.812  1.00  0.00     0.002 A 
HETATM   27  C   UNL     1       6.913  33.539  64.010  1.00  0.00     0.000 A 
HETATM   28  C   UNL     1       6.029  33.822  62.971  1.00  0.00     0.002 A 
HETATM   29  C   UNL     1       6.172  33.179  61.739  1.00  0.00     0.029 A 
ENDBRANCH  21  24
ENDBRANCH   4  20
TORSDOF 5
ENDMDL
MODEL 3
REMARK VINA RESULT:      -9.2      2.420      3.949
REMARK  5 active torsions:
REMARK  status: ('A' for Active; 'I' for Inactive)
REMARK    1  A    between atoms: C_6  and  C_7 
REMARK    2  A    between atoms: C_7  and  N_8 
REMARK       I    between atoms: N_8  and  C_9 
REMARK       I    between atoms: C_9  and  N_10 
REMARK    3  A    between atoms: N_10  and  C_11 
REMARK    4  A    between atoms: C_14  and  C_15 
REMARK       I    between atoms: C_15  and  N_16 
REMARK    5  A    between atoms: N_16  and  C_17 
ROOT
HETATM    1  C   UNL     1       4.443  28.210  56.120  1.00  0.00     0.036 A 
HETATM    2  C   UNL     1       4.577  28.157  54.731  1.00  0.00     0.030 A 
HETATM    3  C   UNL     1       5.116  27.023  54.112  1.00  0.00     0.019 A 
HETATM    4  C   UNL     1       5.559  25.939  54.879  1.00  0.00     0.032 A 
HETATM    5  C   UNL     1       5.465  26.003  56.272  1.00  0.00     0.019 A 
HETATM    6  C   UNL     1       4.924  27.139  56.885  1.00  0.00     0.030 A 
ENDROOT
BRANCH   1   7
HETATM    7  N   UNL     1       3.873  29.284  56.829  1.00  0.00    -0.309 N 
HETATM    8  C   UNL     1       4.409  30.312  57.542  1.00  0.00     0.321 C 
HETATM    9  N   UNL     1       5.740  30.531  57.441  1.00  0.00    -0.337 N 
HETATM   10  O   UNL     1       3.669  31.031  58.212  1.00  0.00    -0.247 OA
HETATM   11  H   UNL     1       6.194  30.231  56.590  1.00  0.00     0.164 HD
HETATM   12  H   UNL     1       2.863  29.346  56.823  1.00  0.00     0.170 HD
BRANCH   9  13
HETATM   13  C   UNL     1       6.356  31.668  58.082  1.00  0.00     0.186 C 
BRANCH  13  14
HETATM   14  C   UNL     1       7.316  31.194  59.116  1.00  0.00     0.083 A 
HETATM   15  C   UNL     1       8.372  30.318  58.972  1.00  0.00     0.076 A 
HETATM   16  C   UNL     1       8.931  29.545  57.848  1.00  0.00     0.079 C 
HETATM   17  O   UNL     1       8.980  30.185  60.189  1.00  0.00    -0.307 OA
HETATM   18  C   UNL     1       8.250  30.987  61.011  1.00  0.00     0.258 A 
HETATM   19  N   UNL     1       7.240  31.601  60.439  1.00  0.00    -0.237 NA
ENDBRANCH  13  14
ENDBRANCH   9  13
ENDBRANCH   1   7
BRANCH   4  20
HETATM   20  C   UNL     1       6.060  24.721  54.179  1.00  0.00     0.256 C 
HETATM   21  N   UNL     1       7.020  24.002  54.867  1.00  0.00    -0.323 N 
HETATM   22  H   UNL     1       7.427  24.439  55.684  1.00  0.00     0.169 HD
HETATM   23  O   UNL     1       5.608  24.467  53.069  1.00  0.00    -0.267 OA
BRANCH  21  24
HETATM   24  C   UNL     1       7.551  22.741  54.522  1.00  0.00     0.035 A 
HETATM   25  C   UNL     1       7.967  22.399  53.234  1.00  0.00     0.029 A 
HETATM   26  C   UNL     1       8.450  21.115  52.961  1.00  0.00     0.002 A 
HETATM   27  C   UNL     1       8.522  20.162  53.974  1.00  0.00     0.000 A 
HETATM   28  C   UNL     1       8.110  20.493  55.263  1.00  0.00     0.002 A 
HETATM   29  C   UNL     1       7.624  21.775  55.533  1.00  0.00     0.029 A 
ENDBRANCH  21  24
ENDBRANCH   4  20
TORSDOF 5
ENDMDL
MODEL 4
REMARK VINA RESULT:      -9.1      1.963      3.064
REMARK  5 active torsions:
REMARK  status: ('A' for Active; 'I' for Inactive)
REMARK    1  A    between atoms: C_6  and  C_7 
REMARK    2  A    between atoms: C_7  and  N_8 
REMARK       I    between atoms: N_8  and  C_9 
REMARK       I    between atoms: C_9  and  N_10 
REMARK    3  A    between atoms: N_10  and  C_11 
REMARK    4  A    between atoms: C_14  and  C_15 
REMARK       I    between atoms: C_15  and  N_16 
REMARK    5  A    between atoms: N_16  and  C_17 
ROOT
HETATM    1  C   UNL     1       5.677  28.345  57.082  1.00  0.00     0.036 A 
HETATM    2  C   UNL     1       7.030  28.198  57.395  1.00  0.00     0.030 A 
HETATM    3  C   UNL     1       7.671  26.966  57.215  1.00  0.00     0.019 A 
HETATM    4  C   UNL     1       6.957  25.856  56.750  1.00  0.00     0.032 A 
HETATM    5  C   UNL     1       5.593  25.987  56.473  1.00  0.00     0.019 A 
HETATM    6  C   UNL     1       4.959  27.222  56.654  1.00  0.00     0.030 A 
ENDROOT
BRANCH   1   7
HETATM    7  N   UNL     1       4.959  29.551  57.186  1.00  0.00    -0.309 N 
HETATM    8  C   UNL     1       5.110  30.655  57.967  1.00  0.00     0.321 C 
HETATM    9  N   UNL     1       6.258  30.785  58.670  1.00  0.00    -0.337 N 
HETATM   10  O   UNL     1       4.228  31.513  57.975  1.00  0.00    -0.247 OA
HETATM   11  H   UNL     1       7.078  30.324  58.303  1.00  0.00     0.164 HD
HETATM   12  H   UNL     1       4.168  29.662  56.564  1.00  0.00     0.170 HD
BRANCH   9  13
HETATM   13  C   UNL     1       6.531  31.981  59.431  1.00  0.00     0.186 C 
BRANCH  13  14
HETATM   14  C   UNL     1       7.611  31.705  60.417  1.00  0.00     0.083 A 
HETATM   15  C   UNL     1       8.971  31.613  60.200  1.00  0.00     0.076 A 
HETATM   16  C   UNL     1       9.840  31.723  59.015  1.00  0.00     0.079 C 
HETATM   17  O   UNL     1       9.573  31.354  61.400  1.00  0.00    -0.307 OA
HETATM   18  C   UNL     1       8.540  31.295  62.282  1.00  0.00     0.258 A 
HETATM   19  N   UNL     1       7.348  31.479  61.759  1.00  0.00    -0.237 NA
ENDBRANCH  13  14
ENDBRANCH   9  13
ENDBRANCH   1   7
BRANCH   4  20
HETATM   20  C   UNL     1       7.692  24.582  56.502  1.00  0.00     0.256 C 
HETATM   21  N   UNL     1       7.034  23.673  55.693  1.00  0.00    -0.323 N 
HETATM   22  H   UNL     1       6.061  23.860  55.484  1.00  0.00     0.169 HD
HETATM   23  O   UNL     1       8.784  24.433  57.035  1.00  0.00    -0.267 OA
BRANCH  21  24
HETATM   24  C   UNL     1       7.549  22.469  55.170  1.00  0.00     0.035 A 
HETATM   25  C   UNL     1       7.899  21.368  55.954  1.00  0.00     0.029 A 
HETATM   26  C   UNL     1       8.437  20.219  55.365  1.00  0.00     0.002 A 
HETATM   27  C   UNL     1       8.631  20.162  53.987  1.00  0.00     0.000 A 
HETATM   28  C   UNL     1       8.286  21.254  53.195  1.00  0.00     0.002 A 
HETATM   29  C   UNL     1       7.751  22.403  53.785  1.00  0.00     0.029 A 
ENDBRANCH  21  24
ENDBRANCH   4  20
TORSDOF 5
ENDMDL
MODEL 5
REMARK VINA RESULT:      -9.1      2.415     10.057
REMARK  5 active torsions:
REMARK  status: ('A' for Active; 'I' for Inactive)
REMARK    1  A    between atoms: C_6  and  C_7 
REMARK    2  A    between atoms: C_7  and  N_8 
REMARK       I    between atoms: N_8  and  C_9 
REMARK       I    between atoms: C_9  and  N_10 
REMARK    3  A    between atoms: N_10  and  C_11 
REMARK    4  A    between atoms: C_14  and  C_15 
REMARK       I    between atoms: C_15  and  N_16 
REMARK    5  A    between atoms: N_16  and  C_17 
ROOT
HETATM    1  C   UNL     1       6.193  27.100  55.192  1.00  0.00     0.036 A 
HETATM    2  C   UNL     1       6.085  26.930  56.574  1.00  0.00     0.030 A 
HETATM    3  C   UNL     1       6.812  27.746  57.449  1.00  0.00     0.019 A 
HETATM    4  C   UNL     1       7.683  28.721  56.952  1.00  0.00     0.032 A 
HETATM    5  C   UNL     1       7.827  28.869  55.569  1.00  0.00     0.019 A 
HETATM    6  C   UNL     1       7.096  28.052  54.699  1.00  0.00     0.030 A 
ENDROOT
BRANCH   1   7
HETATM    7  N   UNL     1       5.471  26.363  54.236  1.00  0.00    -0.309 N 
HETATM    8  C   UNL     1       5.768  25.255  53.503  1.00  0.00     0.321 C 
HETATM    9  N   UNL     1       6.874  24.550  53.834  1.00  0.00    -0.337 N 
HETATM   10  O   UNL     1       5.007  24.907  52.602  1.00  0.00    -0.247 OA
HETATM   11  H   UNL     1       7.186  24.606  54.793  1.00  0.00     0.164 HD
HETATM   12  H   UNL     1       4.533  26.682  54.031  1.00  0.00     0.170 HD
BRANCH   9  13
HETATM   13  C   UNL     1       7.188  23.307  53.171  1.00  0.00     0.186 C 
BRANCH  13  14
HETATM   14  C   UNL     1       7.621  22.303  54.181  1.00  0.00     0.083 A 
HETATM   15  C   UNL     1       8.176  21.056  53.971  1.00  0.00     0.076 A 
HETATM   16  C   UNL     1       8.524  20.266  52.777  1.00  0.00     0.079 C 
HETATM   17  O   UNL     1       8.422  20.493  55.192  1.00  0.00    -0.307 OA
HETATM   18  C   UNL     1       7.994  21.430  56.080  1.00  0.00     0.258 A 
HETATM   19  N   UNL     1       7.493  22.520  55.544  1.00  0.00    -0.237 NA
ENDBRANCH  13  14
ENDBRANCH   9  13
ENDBRANCH   1   7
BRANCH   4  20
HETATM   20  C   UNL     1       8.384  29.618  57.917  1.00  0.00     0.256 C 
HETATM   21  N   UNL     1       7.593  30.114  58.937  1.00  0.00    -0.323 N 
HETATM   22  H   UNL     1       6.594  29.981  58.853  1.00  0.00     0.169 HD
HETATM   23  O   UNL     1       9.570  29.855  57.725  1.00  0.00    -0.267 OA
BRANCH  21  24
HETATM   24  C   UNL     1       8.019  30.849  60.063  1.00  0.00     0.035 A 
HETATM   25  C   UNL     1       9.128  30.510  60.840  1.00  0.00     0.029 A 
HETATM   26  C   UNL     1       9.467  31.269  61.964  1.00  0.00     0.002 A 
HETATM   27  C   UNL     1       8.700  32.375  62.322  1.00  0.00     0.000 A 
HETATM   28  C   UNL     1       7.592  32.723  61.555  1.00  0.00     0.002 A 
HETATM   29  C   UNL     1       7.252  31.962  60.433  1.00  0.00     0.029 A 
ENDBRANCH  21  24
ENDBRANCH   4  20
TORSDOF 5
ENDMDL
MODEL 6
REMARK VINA RESULT:      -9.0      1.742      2.306
REMARK  5 active torsions:
REMARK  status: ('A' for Active; 'I' for Inactive)
REMARK    1  A    between atoms: C_6  and  C_7 
REMARK    2  A    between atoms: C_7  and  N_8 
REMARK       I    between atoms: N_8  and  C_9 
REMARK       I    between atoms: C_9  and  N_10 
REMARK    3  A    between atoms: N_10  and  C_11 
REMARK    4  A    between atoms: C_14  and  C_15 
REMARK       I    between atoms: C_15  and  N_16 
REMARK    5  A    between atoms: N_16  and  C_17 
ROOT
HETATM    1  C   UNL     1       5.923  29.801  56.526  1.00  0.00     0.036 A 
HETATM    2  C   UNL     1       4.891  28.867  56.643  1.00  0.00     0.030 A 
HETATM    3  C   UNL     1       5.140  27.504  56.442  1.00  0.00     0.019 A 
HETATM    4  C   UNL     1       6.419  27.061  56.088  1.00  0.00     0.032 A 
HETATM    5  C   UNL     1       7.448  27.995  55.929  1.00  0.00     0.019 A 
HETATM    6  C   UNL     1       7.192  29.356  56.133  1.00  0.00     0.030 A 
ENDROOT
BRANCH   1   7
HETATM    7  N   UNL     1       5.782  31.182  56.753  1.00  0.00    -0.309 N 
HETATM    8  C   UNL     1       5.822  31.945  57.879  1.00  0.00     0.321 C 
HETATM    9  N   UNL     1       6.271  31.373  59.020  1.00  0.00    -0.337 N 
HETATM   10  O   UNL     1       5.496  33.129  57.817  1.00  0.00    -0.247 OA
HETATM   11  H   UNL     1       6.911  30.597  58.925  1.00  0.00     0.164 HD
HETATM   12  H   UNL     1       5.628  31.763  55.938  1.00  0.00     0.170 HD
BRANCH   9  13
HETATM   13  C   UNL     1       6.444  32.151  60.222  1.00  0.00     0.186 C 
BRANCH  13  14
HETATM   14  C   UNL     1       7.584  31.605  61.007  1.00  0.00     0.083 A 
HETATM   15  C   UNL     1       7.965  31.912  62.298  1.00  0.00     0.076 A 
HETATM   16  C   UNL     1       7.464  32.831  63.334  1.00  0.00     0.079 C 
HETATM   17  O   UNL     1       9.064  31.158  62.604  1.00  0.00    -0.307 OA
HETATM   18  C   UNL     1       9.294  30.436  61.474  1.00  0.00     0.258 A 
HETATM   19  N   UNL     1       8.461  30.667  60.485  1.00  0.00    -0.237 NA
ENDBRANCH  13  14
ENDBRANCH   9  13
ENDBRANCH   1   7
BRANCH   4  20
HETATM   20  C   UNL     1       6.661  25.595  55.954  1.00  0.00     0.256 C 
HETATM   21  N   UNL     1       7.373  25.218  54.829  1.00  0.00    -0.323 N 
HETATM   22  H   UNL     1       7.516  25.922  54.116  1.00  0.00     0.169 HD
HETATM   23  O   UNL     1       6.205  24.855  56.817  1.00  0.00    -0.267 OA
BRANCH  21  24
HETATM   24  C   UNL     1       7.874  23.934  54.530  1.00  0.00     0.035 A 
HETATM   25  C   UNL     1       8.836  23.276  55.299  1.00  0.00     0.029 A 
HETATM   26  C   UNL     1       9.310  22.017  54.918  1.00  0.00     0.002 A 
HETATM   27  C   UNL     1       8.827  21.404  53.765  1.00  0.00     0.000 A 
HETATM   28  C   UNL     1       7.867  22.051  52.990  1.00  0.00     0.002 A 
HETATM   29  C   UNL     1       7.396  23.311  53.370  1.00  0.00     0.029 A 
ENDBRANCH  21  24
ENDBRANCH   4  20
TORSDOF 5
ENDMDL
MODEL 7
REMARK VINA RESULT:      -8.9      2.619     10.417
REMARK  5 active torsions:
REMARK  status: ('A' for Active; 'I' for Inactive)
REMARK    1  A    between atoms: C_6  and  C_7 
REMARK    2  A    between atoms: C_7  and  N_8 
REMARK       I    between atoms: N_8  and  C_9 
REMARK       I    between atoms: C_9  and  N_10 
REMARK    3  A    between atoms: N_10  and  C_11 
REMARK    4  A    between atoms: C_14  and  C_15 
REMARK       I    between atoms: C_15  and  N_16 
REMARK    5  A    between atoms: N_16  and  C_17 
ROOT
HETATM    1  C   UNL     1       8.755  31.921  60.093  1.00  0.00     0.036 A 
HETATM    2  C   UNL     1       7.403  32.211  59.897  1.00  0.00     0.030 A 
HETATM    3  C   UNL     1       6.562  32.450  60.991  1.00  0.00     0.019 A 
HETATM    4  C   UNL     1       7.057  32.368  62.297  1.00  0.00     0.032 A 
HETATM    5  C   UNL     1       8.400  32.038  62.501  1.00  0.00     0.019 A 
HETATM    6  C   UNL     1       9.236  31.802  61.403  1.00  0.00     0.030 A 
ENDROOT
BRANCH   1   7
HETATM    7  N   UNL     1       9.686  31.711  59.059  1.00  0.00    -0.309 N 
HETATM    8  C   UNL     1       9.909  30.672  58.209  1.00  0.00     0.321 C 
HETATM    9  N   UNL     1       8.980  29.690  58.147  1.00  0.00    -0.337 N 
HETATM   10  O   UNL     1      10.912  30.679  57.498  1.00  0.00    -0.247 OA
HETATM   11  H   UNL     1       8.031  29.937  58.387  1.00  0.00     0.164 HD
HETATM   12  H   UNL     1      10.333  32.467  58.870  1.00  0.00     0.170 HD
BRANCH   9  13
HETATM   13  C   UNL     1       9.098  28.616  57.190  1.00  0.00     0.186 C 
BRANCH  13  14
HETATM   14  C   UNL     1       7.823  27.850  57.145  1.00  0.00     0.083 A 
HETATM   15  C   UNL     1       7.636  26.485  57.222  1.00  0.00     0.076 A 
HETATM   16  C   UNL     1       8.533  25.323  57.353  1.00  0.00     0.079 C 
HETATM   17  O   UNL     1       6.294  26.237  57.146  1.00  0.00    -0.307 OA
HETATM   18  C   UNL     1       5.738  27.472  57.019  1.00  0.00     0.258 A 
HETATM   19  N   UNL     1       6.592  28.470  56.995  1.00  0.00    -0.237 NA
ENDBRANCH  13  14
ENDBRANCH   9  13
ENDBRANCH   1   7
BRANCH   4  20
HETATM   20  C   UNL     1       6.147  32.700  63.432  1.00  0.00     0.256 C 
HETATM   21  N   UNL     1       6.500  33.825  64.156  1.00  0.00    -0.323 N 
HETATM   22  H   UNL     1       7.414  34.220  63.979  1.00  0.00     0.169 HD
HETATM   23  O   UNL     1       5.194  31.961  63.643  1.00  0.00    -0.267 OA
BRANCH  21  24
HETATM   24  C   UNL     1       5.748  34.455  65.169  1.00  0.00     0.035 A 
HETATM   25  C   UNL     1       5.926  34.215  66.533  1.00  0.00     0.029 A 
HETATM   26  C   UNL     1       5.116  34.854  67.478  1.00  0.00     0.002 A 
HETATM   27  C   UNL     1       4.122  35.739  67.068  1.00  0.00     0.000 A 
HETATM   28  C   UNL     1       3.936  35.986  65.710  1.00  0.00     0.002 A 
HETATM   29  C   UNL     1       4.744  35.345  64.766  1.00  0.00     0.029 A 
ENDBRANCH  21  24
ENDBRANCH   4  20
TORSDOF 5
ENDMDL
MODEL 8
REMARK VINA RESULT:      -8.6      6.128      8.964
REMARK  5 active torsions:
REMARK  status: ('A' for Active; 'I' for Inactive)
REMARK    1  A    between atoms: C_6  and  C_7 
REMARK    2  A    between atoms: C_7  and  N_8 
REMARK       I    between atoms: N_8  and  C_9 
REMARK       I    between atoms: C_9  and  N_10 
REMARK    3  A    between atoms: N_10  and  C_11 
REMARK    4  A    between atoms: C_14  and  C_15 
REMARK       I    between atoms: C_15  and  N_16 
REMARK    5  A    between atoms: N_16  and  C_17 
ROOT
HETATM    1  C   UNL     1       5.593  28.505  53.843  1.00  0.00     0.036 A 
HETATM    2  C   UNL     1       6.825  28.088  53.335  1.00  0.00     0.030 A 
HETATM    3  C   UNL     1       7.410  26.896  53.781  1.00  0.00     0.019 A 
HETATM    4  C   UNL     1       6.785  26.124  54.766  1.00  0.00     0.032 A 
HETATM    5  C   UNL     1       5.571  26.558  55.308  1.00  0.00     0.019 A 
HETATM    6  C   UNL     1       4.991  27.749  54.856  1.00  0.00     0.030 A 
ENDROOT
BRANCH   1   7
HETATM    7  N   UNL     1       4.906  29.660  53.426  1.00  0.00    -0.309 N 
HETATM    8  C   UNL     1       4.109  29.928  52.356  1.00  0.00     0.321 C 
HETATM    9  N   UNL     1       3.686  28.888  51.601  1.00  0.00    -0.337 N 
HETATM   10  O   UNL     1       3.764  31.088  52.137  1.00  0.00    -0.247 OA
HETATM   11  H   UNL     1       3.620  27.987  52.052  1.00  0.00     0.164 HD
HETATM   12  H   UNL     1       4.987  30.476  54.020  1.00  0.00     0.170 HD
BRANCH   9  13
HETATM   13  C   UNL     1       2.752  29.088  50.519  1.00  0.00     0.186 C 
BRANCH  13  14
HETATM   14  C   UNL     1       3.283  28.454  49.282  1.00  0.00     0.083 A 
HETATM   15  C   UNL     1       2.596  27.752  48.312  1.00  0.00     0.076 A 
HETATM   16  C   UNL     1       1.190  27.358  48.120  1.00  0.00     0.079 C 
HETATM   17  O   UNL     1       3.494  27.363  47.357  1.00  0.00    -0.307 OA
HETATM   18  C   UNL     1       4.683  27.847  47.806  1.00  0.00     0.258 A 
HETATM   19  N   UNL     1       4.629  28.490  48.950  1.00  0.00    -0.237 NA
ENDBRANCH  13  14
ENDBRANCH   9  13
ENDBRANCH   1   7
BRANCH   4  20
HETATM   20  C   UNL     1       7.404  24.826  55.162  1.00  0.00     0.256 C 
HETATM   21  N   UNL     1       7.040  23.741  54.385  1.00  0.00    -0.323 N 
HETATM   22  H   UNL     1       6.270  23.872  53.742  1.00  0.00     0.169 HD
HETATM   23  O   UNL     1       8.153  24.816  56.131  1.00  0.00    -0.267 OA
BRANCH  21  24
HETATM   24  C   UNL     1       7.583  22.440  54.430  1.00  0.00     0.035 A 
HETATM   25  C   UNL     1       7.704  21.689  55.600  1.00  0.00     0.029 A 
HETATM   26  C   UNL     1       8.286  20.417  55.571  1.00  0.00     0.002 A 
HETATM   27  C   UNL     1       8.751  19.886  54.371  1.00  0.00     0.000 A 
HETATM   28  C   UNL     1       8.635  20.627  53.197  1.00  0.00     0.002 A 
HETATM   29  C   UNL     1       8.056  21.898  53.228  1.00  0.00     0.029 A 
ENDBRANCH  21  24
ENDBRANCH   4  20
TORSDOF 5
ENDMDL
MODEL 9
REMARK VINA RESULT:      -8.6      6.563     10.417
REMARK  5 active torsions:
REMARK  status: ('A' for Active; 'I' for Inactive)
REMARK    1  A    between atoms: C_6  and  C_7 
REMARK    2  A    between atoms: C_7  and  N_8 
REMARK       I    between atoms: N_8  and  C_9 
REMARK       I    between atoms: C_9  and  N_10 
REMARK    3  A    between atoms: N_10  and  C_11 
REMARK    4  A    between atoms: C_14  and  C_15 
REMARK       I    between atoms: C_15  and  N_16 
REMARK    5  A    between atoms: N_16  and  C_17 
ROOT
HETATM    1  C   UNL     1       5.838  26.269  53.786  1.00  0.00     0.036 A 
HETATM    2  C   UNL     1       5.976  27.584  53.338  1.00  0.00     0.030 A 
HETATM    3  C   UNL     1       5.557  27.945  52.052  1.00  0.00     0.019 A 
HETATM    4  C   UNL     1       5.024  26.985  51.184  1.00  0.00     0.032 A 
HETATM    5  C   UNL     1       4.921  25.658  51.612  1.00  0.00     0.019 A 
HETATM    6  C   UNL     1       5.340  25.305  52.900  1.00  0.00     0.030 A 
ENDROOT
BRANCH   1   7
HETATM    7  N   UNL     1       6.187  25.821  55.073  1.00  0.00    -0.309 N 
HETATM    8  C   UNL     1       7.034  24.855  55.520  1.00  0.00     0.321 C 
HETATM    9  N   UNL     1       7.892  24.300  54.632  1.00  0.00    -0.337 N 
HETATM   10  O   UNL     1       7.028  24.551  56.712  1.00  0.00    -0.247 OA
HETATM   11  H   UNL     1       8.158  24.861  53.836  1.00  0.00     0.164 HD
HETATM   12  H   UNL     1       5.748  26.294  55.853  1.00  0.00     0.170 HD
BRANCH   9  13
HETATM   13  C   UNL     1       8.891  23.350  55.060  1.00  0.00     0.186 C 
BRANCH  13  14
HETATM   14  C   UNL     1       8.635  22.036  54.410  1.00  0.00     0.083 A 
HETATM   15  C   UNL     1       8.813  20.769  54.930  1.00  0.00     0.076 A 
HETATM   16  C   UNL     1       9.298  20.238  56.216  1.00  0.00     0.079 C 
HETATM   17  O   UNL     1       8.440  19.865  53.976  1.00  0.00    -0.307 OA
HETATM   18  C   UNL     1       8.061  20.635  52.921  1.00  0.00     0.258 A 
HETATM   19  N   UNL     1       8.168  21.931  53.109  1.00  0.00    -0.237 NA
ENDBRANCH  13  14
ENDBRANCH   9  13
ENDBRANCH   1   7
BRANCH   4  20
HETATM   20  C   UNL     1       4.522  27.423  49.849  1.00  0.00     0.256 C 
HETATM   21  N   UNL     1       3.152  27.339  49.682  1.00  0.00    -0.323 N 
HETATM   22  H   UNL     1       2.630  26.837  50.388  1.00  0.00     0.169 HD
HETATM   23  O   UNL     1       5.342  27.795  49.019  1.00  0.00    -0.267 OA
BRANCH  21  24
HETATM   24  C   UNL     1       2.396  27.826  48.595  1.00  0.00     0.035 A 
HETATM   25  C   UNL     1       2.229  29.182  48.308  1.00  0.00     0.029 A 
HETATM   26  C   UNL     1       1.435  29.587  47.231  1.00  0.00     0.002 A 
HETATM   27  C   UNL     1       0.800  28.641  46.431  1.00  0.00     0.000 A 
HETATM   28  C   UNL     1       0.959  27.285  46.707  1.00  0.00     0.002 A 
HETATM   29  C   UNL     1       1.751  26.881  47.786  1.00  0.00     0.029 A 
ENDBRANCH  21  24
ENDBRANCH   4  20
TORSDOF 5
ENDMDL
MODEL 10
REMARK VINA RESULT:      -8.4      7.380     10.284
REMARK  5 active torsions:
REMARK  status: ('A' for Active; 'I' for Inactive)
REMARK    1  A    between atoms: C_6  and  C_7 
REMARK    2  A    between atoms: C_7  and  N_8 
REMARK       I    between atoms: N_8  and  C_9 
REMARK       I    between atoms: C_9  and  N_10 
REMARK    3  A    between atoms: N_10  and  C_11 
REMARK    4  A    between atoms: C_14  and  C_15 
REMARK       I    between atoms: C_15  and  N_16 
REMARK    5  A    between atoms: N_16  and  C_17 
ROOT
HETATM    1  C   UNL     1       4.499  27.770  52.464  1.00  0.00     0.036 A 
HETATM    2  C   UNL     1       4.512  27.030  53.648  1.00  0.00     0.030 A 
HETATM    3  C   UNL     1       5.396  25.956  53.805  1.00  0.00     0.019 A 
HETATM    4  C   UNL     1       6.256  25.588  52.765  1.00  0.00     0.032 A 
HETATM    5  C   UNL     1       6.220  26.300  51.562  1.00  0.00     0.019 A 
HETATM    6  C   UNL     1       5.335  27.373  51.412  1.00  0.00     0.030 A 
ENDROOT
BRANCH   1   7
HETATM    7  N   UNL     1       3.681  28.891  52.230  1.00  0.00    -0.309 N 
HETATM    8  C   UNL     1       2.836  29.226  51.217  1.00  0.00     0.321 C 
HETATM    9  N   UNL     1       2.511  28.270  50.316  1.00  0.00    -0.337 N 
HETATM   10  O   UNL     1       2.362  30.360  51.178  1.00  0.00    -0.247 OA
HETATM   11  H   UNL     1       2.553  27.310  50.628  1.00  0.00     0.164 HD
HETATM   12  H   UNL     1       3.686  29.613  52.939  1.00  0.00     0.170 HD
BRANCH   9  13
HETATM   13  C   UNL     1       1.536  28.524  49.283  1.00  0.00     0.186 C 
BRANCH  13  14
HETATM   14  C   UNL     1       1.708  27.533  48.186  1.00  0.00     0.083 A 
HETATM   15  C   UNL     1       0.925  27.348  47.064  1.00  0.00     0.076 A 
HETATM   16  C   UNL     1      -0.299  27.979  46.541  1.00  0.00     0.079 C 
HETATM   17  O   UNL     1       1.470  26.329  46.333  1.00  0.00    -0.307 OA
HETATM   18  C   UNL     1       2.555  25.946  47.058  1.00  0.00     0.258 A 
HETATM   19  N   UNL     1       2.742  26.610  48.176  1.00  0.00    -0.237 NA
ENDBRANCH  13  14
ENDBRANCH   9  13
ENDBRANCH   1   7
BRANCH   4  20
HETATM   20  C   UNL     1       7.234  24.485  52.998  1.00  0.00     0.256 C 
HETATM   21  N   UNL     1       6.881  23.588  53.990  1.00  0.00    -0.323 N 
HETATM   22  H   UNL     1       6.102  23.840  54.584  1.00  0.00     0.169 HD
HETATM   23  O   UNL     1       8.256  24.469  52.324  1.00  0.00    -0.267 OA
BRANCH  21  24
HETATM   24  C   UNL     1       7.529  22.378  54.313  1.00  0.00     0.035 A 
HETATM   25  C   UNL     1       7.940  21.438  53.365  1.00  0.00     0.029 A 
HETATM   26  C   UNL     1       8.546  20.243  53.766  1.00  0.00     0.002 A 
HETATM   27  C   UNL     1       8.747  19.977  55.118  1.00  0.00     0.000 A 
HETATM   28  C   UNL     1       8.342  20.907  56.072  1.00  0.00     0.002 A 
HETATM   29  C   UNL     1       7.734  22.100  55.671  1.00  0.00     0.029 A 
ENDBRANCH  21  24
ENDBRANCH   4  20
TORSDOF 5
ENDMDL
