MODEL 1
REMARK VINA RESULT:      -9.6      0.000      0.000
REMARK  7 active torsions:
REMARK  status: ('A' for Active; 'I' for Inactive)
REMARK    1  A    between atoms: C_3  and  C_4 
REMARK    2  A    between atoms: C_4  and  N_5 
REMARK       I    between atoms: N_5  and  C_6 
REMARK    3  A    between atoms: C_6  and  C_7 
REMARK    4  A    between atoms: C_7  and  N_8 
REMARK    5  A    between atoms: C_10  and  C_11 
REMARK    6  A    between atoms: C_11  and  N_12 
REMARK       I    between atoms: N_12  and  C_13 
REMARK       I    between atoms: C_13  and  N_14 
REMARK    7  A    between atoms: N_14  and  C_15 
ROOT
HETATM    1  N   UNL     1       7.043  28.419  56.939  1.00  0.00    -0.057 N 
HETATM    2  H   UNL     1       6.623  28.063  57.824  1.00  0.00     0.281 HD
HETATM    3  C   UNL     1       7.370  29.879  57.236  1.00  0.00     0.206 C 
HETATM    4  C   UNL     1       6.070  30.624  57.583  1.00  0.00     0.035 C 
HETATM    5  C   UNL     1       5.004  30.458  56.507  1.00  0.00     0.004 C 
HETATM    6  C   UNL     1       4.738  28.985  56.229  1.00  0.00     0.028 C 
HETATM    7  C   UNL     1       6.016  28.255  55.851  1.00  0.00     0.236 C 
ENDROOT
BRANCH   1   8
HETATM    8  C   UNL     1       8.236  27.483  56.725  1.00  0.00     0.337 C 
BRANCH   8   9
HETATM    9  C   UNL     1       8.073  26.056  57.257  1.00  0.00     0.243 C 
HETATM   10  N   UNL     1       7.960  25.096  56.280  1.00  0.00    -0.355 N 
HETATM   11  H   UNL     1       8.141  25.317  55.307  1.00  0.00     0.162 HD
HETATM   12  O   UNL     1       8.032  25.800  58.458  1.00  0.00    -0.272 OA
BRANCH  10  13
HETATM   13  C   UNL     1       7.941  23.685  56.616  1.00  0.00     0.169 C 
BRANCH  13  14
HETATM   14  C   UNL     1       7.904  22.876  55.354  1.00  0.00     0.006 A 
HETATM   15  C   UNL     1       7.924  21.495  55.207  1.00  0.00    -0.047 A 
HETATM   16  C   UNL     1       7.996  20.505  56.325  1.00  0.00     0.049 C 
HETATM   17  C   UNL     1       7.879  21.122  53.822  1.00  0.00     0.015 A 
HETATM   18  C   UNL     1       7.843  22.207  52.978  1.00  0.00     0.051 A 
HETATM   19  S   UNL     1       7.876  23.680  53.832  1.00  0.00    -0.104 SA
ENDBRANCH  13  14
ENDBRANCH  10  13
ENDBRANCH   8   9
ENDBRANCH   1   8
BRANCH   3  20
HETATM   20  C   UNL     1       8.432  30.062  58.360  1.00  0.00     0.157 C 
BRANCH  20  21
HETATM   21  N   UNL     1       8.006  30.139  59.757  1.00  0.00    -0.341 N 
HETATM   22  C   UNL     1       7.796  31.271  60.504  1.00  0.00     0.320 C 
HETATM   23  N   UNL     1       7.167  30.997  61.690  1.00  0.00    -0.309 N 
HETATM   24  O   UNL     1       8.139  32.378  60.101  1.00  0.00    -0.247 OA
HETATM   25  H   UNL     1       6.649  30.131  61.742  1.00  0.00     0.170 HD
HETATM   26  H   UNL     1       7.759  29.261  60.197  1.00  0.00     0.164 HD
BRANCH  23  27
HETATM   27  C   UNL     1       6.942  31.902  62.749  1.00  0.00     0.036 A 
HETATM   28  C   UNL     1       5.614  32.147  63.120  1.00  0.00     0.029 A 
HETATM   29  C   UNL     1       5.319  33.025  64.165  1.00  0.00     0.002 A 
HETATM   30  C   UNL     1       6.350  33.651  64.861  1.00  0.00     0.000 A 
HETATM   31  C   UNL     1       7.674  33.399  64.511  1.00  0.00     0.002 A 
HETATM   32  C   UNL     1       7.969  32.528  63.457  1.00  0.00     0.029 A 
ENDBRANCH  23  27
ENDBRANCH  20  21
ENDBRANCH   3  20
TORSDOF 7
ENDMDL
MODEL 2
REMARK VINA RESULT:      -9.4      1.662      2.663
REMARK  7 active torsions:
REMARK  status: ('A' for Active; 'I' for Inactive)
REMARK    1  A    between atoms: C_3  and  C_4 
REMARK    2  A    between atoms: C_4  and  N_5 
REMARK       I    between atoms: N_5  and  C_6 
REMARK    3  A    between atoms: C_6  and  C_7 
REMARK    4  A    between atoms: C_7  and  N_8 
REMARK    5  A    between atoms: C_10  and  C_11 
REMARK    6  A    between atoms: C_11  and  N_12 
REMARK       I    between atoms: N_12  and  C_13 
REMARK       I    between atoms: C_13  and  N_14 
REMARK    7  A    between atoms: N_14  and  C_15 
ROOT
HETATM    1  N   UNL     1       8.157  29.538  57.122  1.00  0.00    -0.057 N 
HETATM    2  H   UNL     1       7.907  30.363  56.536  1.00  0.00     0.281 HD
HETATM    3  C   UNL     1       8.580  30.138  58.459  1.00  0.00     0.206 C 
HETATM    4  C   UNL     1       9.792  31.059  58.235  1.00  0.00     0.035 C 
HETATM    5  C   UNL     1      10.931  30.350  57.512  1.00  0.00     0.004 C 
HETATM    6  C   UNL     1      10.448  29.746  56.201  1.00  0.00     0.028 C 
HETATM    7  C   UNL     1       9.273  28.807  56.425  1.00  0.00     0.236 C 
ENDROOT
BRANCH   1   8
HETATM    8  C   UNL     1       6.867  28.714  57.123  1.00  0.00     0.337 C 
BRANCH   8   9
HETATM    9  C   UNL     1       7.042  27.195  57.220  1.00  0.00     0.243 C 
HETATM   10  N   UNL     1       6.462  26.491  56.192  1.00  0.00    -0.355 N 
HETATM   11  H   UNL     1       6.104  26.965  55.371  1.00  0.00     0.162 HD
HETATM   12  O   UNL     1       7.639  26.657  58.149  1.00  0.00    -0.272 OA
BRANCH  10  13
HETATM   13  C   UNL     1       6.657  25.059  56.062  1.00  0.00     0.169 C 
BRANCH  13  14
HETATM   14  C   UNL     1       7.173  24.753  54.688  1.00  0.00     0.006 A 
HETATM   15  C   UNL     1       7.603  23.536  54.173  1.00  0.00    -0.047 A 
HETATM   16  C   UNL     1       7.643  22.244  54.923  1.00  0.00     0.049 C 
HETATM   17  C   UNL     1       8.026  23.673  52.809  1.00  0.00     0.015 A 
HETATM   18  C   UNL     1       7.922  24.963  52.344  1.00  0.00     0.051 A 
HETATM   19  S   UNL     1       7.330  26.024  53.538  1.00  0.00    -0.104 SA
ENDBRANCH  13  14
ENDBRANCH  10  13
ENDBRANCH   8   9
ENDBRANCH   1   8
BRANCH   3  20
HETATM   20  C   UNL     1       7.435  30.896  59.191  1.00  0.00     0.157 C 
BRANCH  20  21
HETATM   21  N   UNL     1       7.487  31.064  60.643  1.00  0.00    -0.341 N 
HETATM   22  C   UNL     1       6.835  32.008  61.397  1.00  0.00     0.320 C 
HETATM   23  N   UNL     1       6.903  31.733  62.738  1.00  0.00    -0.309 N 
HETATM   24  O   UNL     1       6.260  32.959  60.878  1.00  0.00    -0.247 OA
HETATM   25  H   UNL     1       7.096  30.776  62.999  1.00  0.00     0.170 HD
HETATM   26  H   UNL     1       7.996  30.355  61.157  1.00  0.00     0.164 HD
BRANCH  23  27
HETATM   27  C   UNL     1       6.474  32.572  63.789  1.00  0.00     0.036 A 
HETATM   28  C   UNL     1       7.460  33.175  64.580  1.00  0.00     0.029 A 
HETATM   29  C   UNL     1       7.106  34.024  65.631  1.00  0.00     0.002 A 
HETATM   30  C   UNL     1       5.764  34.292  65.889  1.00  0.00     0.000 A 
HETATM   31  C   UNL     1       4.778  33.711  65.095  1.00  0.00     0.002 A 
HETATM   32  C   UNL     1       5.131  32.853  64.049  1.00  0.00     0.029 A 
ENDBRANCH  23  27
ENDBRANCH  20  21
ENDBRANCH   3  20
TORSDOF 7
ENDMDL
MODEL 3
REMARK VINA RESULT:      -9.0      4.007      7.196
REMARK  7 active torsions:
REMARK  status: ('A' for Active; 'I' for Inactive)
REMARK    1  A    between atoms: C_3  and  C_4 
REMARK    2  A    between atoms: C_4  and  N_5 
REMARK       I    between atoms: N_5  and  C_6 
REMARK    3  A    between atoms: C_6  and  C_7 
REMARK    4  A    between atoms: C_7  and  N_8 
REMARK    5  A    between atoms: C_10  and  C_11 
REMARK    6  A    between atoms: C_11  and  N_12 
REMARK       I    between atoms: N_12  and  C_13 
REMARK       I    between atoms: C_13  and  N_14 
REMARK    7  A    between atoms: N_14  and  C_15 
ROOT
HETATM    1  N   UNL     1       6.735  24.225  54.045  1.00  0.00    -0.057 N 
HETATM    2  H   UNL     1       7.416  25.005  53.930  1.00  0.00     0.281 HD
HETATM    3  C   UNL     1       6.842  23.844  55.518  1.00  0.00     0.206 C 
HETATM    4  C   UNL     1       8.281  23.386  55.815  1.00  0.00     0.035 C 
HETATM    5  C   UNL     1       8.740  22.277  54.877  1.00  0.00     0.004 C 
HETATM    6  C   UNL     1       8.584  22.698  53.422  1.00  0.00     0.028 C 
HETATM    7  C   UNL     1       7.155  23.116  53.118  1.00  0.00     0.236 C 
ENDROOT
BRANCH   1   8
HETATM    8  C   UNL     1       5.412  24.854  53.598  1.00  0.00     0.337 C 
BRANCH   8   9
HETATM    9  C   UNL     1       5.507  26.263  53.005  1.00  0.00     0.243 C 
HETATM   10  N   UNL     1       4.608  26.515  51.997  1.00  0.00    -0.355 N 
HETATM   11  H   UNL     1       3.852  25.870  51.798  1.00  0.00     0.162 HD
HETATM   12  O   UNL     1       6.330  27.089  53.392  1.00  0.00    -0.272 OA
BRANCH  10  13
HETATM   13  C   UNL     1       4.474  27.843  51.428  1.00  0.00     0.169 C 
BRANCH  13  14
HETATM   14  C   UNL     1       4.742  27.779  49.954  1.00  0.00     0.006 A 
HETATM   15  C   UNL     1       5.317  28.741  49.133  1.00  0.00    -0.047 A 
HETATM   16  C   UNL     1       5.795  30.086  49.578  1.00  0.00     0.049 C 
HETATM   17  C   UNL     1       5.388  28.286  47.774  1.00  0.00     0.015 A 
HETATM   18  C   UNL     1       4.863  27.026  47.605  1.00  0.00     0.051 A 
HETATM   19  S   UNL     1       4.267  26.383  49.065  1.00  0.00    -0.104 SA
ENDBRANCH  13  14
ENDBRANCH  10  13
ENDBRANCH   8   9
ENDBRANCH   1   8
BRANCH   3  20
HETATM   20  C   UNL     1       6.410  24.982  56.488  1.00  0.00     0.157 C 
BRANCH  20  21
HETATM   21  N   UNL     1       6.891  26.345  56.269  1.00  0.00    -0.341 N 
HETATM   22  C   UNL     1       7.702  27.085  57.093  1.00  0.00     0.320 C 
HETATM   23  N   UNL     1       8.162  28.221  56.478  1.00  0.00    -0.309 N 
HETATM   24  O   UNL     1       7.966  26.718  58.233  1.00  0.00    -0.247 OA
HETATM   25  H   UNL     1       8.154  28.229  55.468  1.00  0.00     0.170 HD
HETATM   26  H   UNL     1       6.667  26.759  55.372  1.00  0.00     0.164 HD
BRANCH  23  27
HETATM   27  C   UNL     1       8.886  29.269  57.086  1.00  0.00     0.036 A 
HETATM   28  C   UNL     1       8.201  30.090  57.991  1.00  0.00     0.029 A 
HETATM   29  C   UNL     1       8.858  31.140  58.635  1.00  0.00     0.002 A 
HETATM   30  C   UNL     1      10.211  31.368  58.394  1.00  0.00     0.000 A 
HETATM   31  C   UNL     1      10.904  30.545  57.510  1.00  0.00     0.002 A 
HETATM   32  C   UNL     1      10.244  29.499  56.857  1.00  0.00     0.029 A 
ENDBRANCH  23  27
ENDBRANCH  20  21
ENDBRANCH   3  20
TORSDOF 7
ENDMDL
MODEL 4
REMARK VINA RESULT:      -8.9      2.525     10.442
REMARK  7 active torsions:
REMARK  status: ('A' for Active; 'I' for Inactive)
REMARK    1  A    between atoms: C_3  and  C_4 
REMARK    2  A    between atoms: C_4  and  N_5 
REMARK       I    between atoms: N_5  and  C_6 
REMARK    3  A    between atoms: C_6  and  C_7 
REMARK    4  A    between atoms: C_7  and  N_8 
REMARK    5  A    between atoms: C_10  and  C_11 
REMARK    6  A    between atoms: C_11  and  N_12 
REMARK       I    between atoms: N_12  and  C_13 
REMARK       I    between atoms: C_13  and  N_14 
REMARK    7  A    between atoms: N_14  and  C_15 
ROOT
HETATM    1  N   UNL     1       6.994  29.640  57.585  1.00  0.00    -0.057 N 
HETATM    2  H   UNL     1       7.563  29.743  56.718  1.00  0.00     0.281 HD
HETATM    3  C   UNL     1       6.258  28.317  57.400  1.00  0.00     0.206 C 
HETATM    4  C   UNL     1       5.367  28.409  56.148  1.00  0.00     0.035 C 
HETATM    5  C   UNL     1       4.432  29.612  56.193  1.00  0.00     0.004 C 
HETATM    6  C   UNL     1       5.214  30.899  56.408  1.00  0.00     0.028 C 
HETATM    7  C   UNL     1       6.067  30.823  57.664  1.00  0.00     0.236 C 
ENDROOT
BRANCH   1   8
HETATM    8  C   UNL     1       8.049  29.683  58.694  1.00  0.00     0.337 C 
BRANCH   8   9
HETATM    9  C   UNL     1       8.246  31.040  59.379  1.00  0.00     0.243 C 
HETATM   10  N   UNL     1       7.701  31.123  60.637  1.00  0.00    -0.355 N 
HETATM   11  H   UNL     1       7.354  30.297  61.112  1.00  0.00     0.162 HD
HETATM   12  O   UNL     1       8.831  31.974  58.837  1.00  0.00    -0.272 OA
BRANCH  10  13
HETATM   13  C   UNL     1       7.922  32.289  61.472  1.00  0.00     0.169 C 
BRANCH  13  14
HETATM   14  C   UNL     1       6.637  32.662  62.151  1.00  0.00     0.006 A 
HETATM   15  C   UNL     1       6.435  33.068  63.463  1.00  0.00    -0.047 A 
HETATM   16  C   UNL     1       7.502  33.213  64.500  1.00  0.00     0.049 C 
HETATM   17  C   UNL     1       5.046  33.327  63.716  1.00  0.00     0.015 A 
HETATM   18  C   UNL     1       4.252  33.099  62.617  1.00  0.00     0.051 A 
HETATM   19  S   UNL     1       5.157  32.561  61.278  1.00  0.00    -0.104 SA
ENDBRANCH  13  14
ENDBRANCH  10  13
ENDBRANCH   8   9
ENDBRANCH   1   8
BRANCH   3  20
HETATM   20  C   UNL     1       7.205  27.084  57.317  1.00  0.00     0.157 C 
BRANCH  20  21
HETATM   21  N   UNL     1       6.888  25.984  56.407  1.00  0.00    -0.341 N 
HETATM   22  C   UNL     1       7.611  24.835  56.203  1.00  0.00     0.320 C 
HETATM   23  N   UNL     1       6.912  23.909  55.475  1.00  0.00    -0.309 N 
HETATM   24  O   UNL     1       8.742  24.700  56.658  1.00  0.00    -0.247 OA
HETATM   25  H   UNL     1       5.906  24.003  55.461  1.00  0.00     0.170 HD
HETATM   26  H   UNL     1       5.994  26.039  55.934  1.00  0.00     0.164 HD
BRANCH  23  27
HETATM   27  C   UNL     1       7.413  22.692  54.963  1.00  0.00     0.036 A 
HETATM   28  C   UNL     1       7.679  22.628  53.589  1.00  0.00     0.029 A 
HETATM   29  C   UNL     1       8.184  21.459  53.018  1.00  0.00     0.002 A 
HETATM   30  C   UNL     1       8.446  20.349  53.817  1.00  0.00     0.000 A 
HETATM   31  C   UNL     1       8.203  20.411  55.187  1.00  0.00     0.002 A 
HETATM   32  C   UNL     1       7.687  21.578  55.758  1.00  0.00     0.029 A 
ENDBRANCH  23  27
ENDBRANCH  20  21
ENDBRANCH   3  20
TORSDOF 7
ENDMDL
MODEL 5
REMARK VINA RESULT:      -8.8      3.135     10.462
REMARK  7 active torsions:
REMARK  status: ('A' for Active; 'I' for Inactive)
REMARK    1  A    between atoms: C_3  and  C_4 
REMARK    2  A    between atoms: C_4  and  N_5 
REMARK       I    between atoms: N_5  and  C_6 
REMARK    3  A    between atoms: C_6  and  C_7 
REMARK    4  A    between atoms: C_7  and  N_8 
REMARK    5  A    between atoms: C_10  and  C_11 
REMARK    6  A    between atoms: C_11  and  N_12 
REMARK       I    between atoms: N_12  and  C_13 
REMARK       I    between atoms: C_13  and  N_14 
REMARK    7  A    between atoms: N_14  and  C_15 
ROOT
HETATM    1  N   UNL     1       7.841  29.838  57.835  1.00  0.00    -0.057 N 
HETATM    2  H   UNL     1       8.077  29.041  58.463  1.00  0.00     0.281 HD
HETATM    3  C   UNL     1       8.025  29.278  56.428  1.00  0.00     0.206 C 
HETATM    4  C   UNL     1       9.488  28.836  56.252  1.00  0.00     0.035 C 
HETATM    5  C   UNL     1      10.473  29.951  56.585  1.00  0.00     0.004 C 
HETATM    6  C   UNL     1      10.225  30.492  57.985  1.00  0.00     0.028 C 
HETATM    7  C   UNL     1       8.789  30.963  58.149  1.00  0.00     0.236 C 
ENDROOT
BRANCH   1   8
HETATM    8  C   UNL     1       6.407  30.186  58.246  1.00  0.00     0.337 C 
BRANCH   8   9
HETATM    9  C   UNL     1       6.170  31.634  58.690  1.00  0.00     0.243 C 
HETATM   10  N   UNL     1       6.075  31.800  60.051  1.00  0.00    -0.355 N 
HETATM   11  H   UNL     1       6.310  31.047  60.687  1.00  0.00     0.162 HD
HETATM   12  O   UNL     1       6.061  32.560  57.891  1.00  0.00    -0.272 OA
BRANCH  10  13
HETATM   13  C   UNL     1       5.992  33.124  60.638  1.00  0.00     0.169 C 
BRANCH  13  14
HETATM   14  C   UNL     1       6.500  33.072  62.048  1.00  0.00     0.006 A 
HETATM   15  C   UNL     1       7.744  32.660  62.508  1.00  0.00    -0.047 A 
HETATM   16  C   UNL     1       8.863  32.161  61.652  1.00  0.00     0.049 C 
HETATM   17  C   UNL     1       7.826  32.760  63.937  1.00  0.00     0.015 A 
HETATM   18  C   UNL     1       6.662  33.221  64.508  1.00  0.00     0.051 A 
HETATM   19  S   UNL     1       5.458  33.523  63.342  1.00  0.00    -0.104 SA
ENDBRANCH  13  14
ENDBRANCH  10  13
ENDBRANCH   8   9
ENDBRANCH   1   8
BRANCH   3  20
HETATM   20  C   UNL     1       7.049  28.114  56.088  1.00  0.00     0.157 C 
BRANCH  20  21
HETATM   21  N   UNL     1       7.495  26.728  56.227  1.00  0.00    -0.341 N 
HETATM   22  C   UNL     1       7.330  25.705  55.326  1.00  0.00     0.320 C 
HETATM   23  N   UNL     1       8.079  24.605  55.654  1.00  0.00    -0.309 N 
HETATM   24  O   UNL     1       6.598  25.822  54.349  1.00  0.00    -0.247 OA
HETATM   25  H   UNL     1       8.872  24.756  56.261  1.00  0.00     0.170 HD
HETATM   26  H   UNL     1       8.059  26.519  57.042  1.00  0.00     0.164 HD
BRANCH  23  27
HETATM   27  C   UNL     1       8.026  23.339  55.031  1.00  0.00     0.036 A 
HETATM   28  C   UNL     1       7.825  22.222  55.852  1.00  0.00     0.029 A 
HETATM   29  C   UNL     1       7.754  20.940  55.301  1.00  0.00     0.002 A 
HETATM   30  C   UNL     1       7.864  20.766  53.924  1.00  0.00     0.000 A 
HETATM   31  C   UNL     1       8.044  21.874  53.099  1.00  0.00     0.002 A 
HETATM   32  C   UNL     1       8.127  23.156  53.651  1.00  0.00     0.029 A 
ENDBRANCH  23  27
ENDBRANCH  20  21
ENDBRANCH   3  20
TORSDOF 7
ENDMDL
MODEL 6
REMARK VINA RESULT:      -8.8      3.088      4.754
REMARK  7 active torsions:
REMARK  status: ('A' for Active; 'I' for Inactive)
REMARK    1  A    between atoms: C_3  and  C_4 
REMARK    2  A    between atoms: C_4  and  N_5 
REMARK       I    between atoms: N_5  and  C_6 
REMARK    3  A    between atoms: C_6  and  C_7 
REMARK    4  A    between atoms: C_7  and  N_8 
REMARK    5  A    between atoms: C_10  and  C_11 
REMARK    6  A    between atoms: C_11  and  N_12 
REMARK       I    between atoms: N_12  and  C_13 
REMARK       I    between atoms: C_13  and  N_14 
REMARK    7  A    between atoms: N_14  and  C_15 
ROOT
HETATM    1  N   UNL     1       4.640  26.398  52.597  1.00  0.00    -0.057 N 
HETATM    2  H   UNL     1       3.605  26.488  52.516  1.00  0.00     0.281 HD
HETATM    3  C   UNL     1       5.098  27.759  53.113  1.00  0.00     0.206 C 
HETATM    4  C   UNL     1       4.705  28.841  52.092  1.00  0.00     0.035 C 
HETATM    5  C   UNL     1       5.220  28.528  50.692  1.00  0.00     0.004 C 
HETATM    6  C   UNL     1       4.759  27.149  50.240  1.00  0.00     0.028 C 
HETATM    7  C   UNL     1       5.178  26.075  51.230  1.00  0.00     0.236 C 
ENDROOT
BRANCH   1   8
HETATM    8  C   UNL     1       4.807  25.215  53.556  1.00  0.00     0.337 C 
BRANCH   8   9
HETATM    9  C   UNL     1       6.241  24.914  54.005  1.00  0.00     0.243 C 
HETATM   10  N   UNL     1       6.806  23.819  53.397  1.00  0.00    -0.355 N 
HETATM   11  H   UNL     1       6.357  23.370  52.606  1.00  0.00     0.162 HD
HETATM   12  O   UNL     1       6.825  25.590  54.848  1.00  0.00    -0.272 OA
BRANCH  10  13
HETATM   13  C   UNL     1       8.202  23.484  53.607  1.00  0.00     0.169 C 
BRANCH  13  14
HETATM   14  C   UNL     1       8.295  22.309  54.534  1.00  0.00     0.006 A 
HETATM   15  C   UNL     1       8.346  20.957  54.220  1.00  0.00    -0.047 A 
HETATM   16  C   UNL     1       8.311  20.386  52.838  1.00  0.00     0.049 C 
HETATM   17  C   UNL     1       8.427  20.153  55.405  1.00  0.00     0.015 A 
HETATM   18  C   UNL     1       8.419  20.902  56.559  1.00  0.00     0.051 A 
HETATM   19  S   UNL     1       8.301  22.570  56.235  1.00  0.00    -0.104 SA
ENDBRANCH  13  14
ENDBRANCH  10  13
ENDBRANCH   8   9
ENDBRANCH   1   8
BRANCH   3  20
HETATM   20  C   UNL     1       4.550  28.106  54.528  1.00  0.00     0.157 C 
BRANCH  20  21
HETATM   21  N   UNL     1       5.472  28.216  55.658  1.00  0.00    -0.341 N 
HETATM   22  C   UNL     1       6.005  29.363  56.190  1.00  0.00     0.320 C 
HETATM   23  N   UNL     1       6.629  29.133  57.388  1.00  0.00    -0.309 N 
HETATM   24  O   UNL     1       5.893  30.446  55.625  1.00  0.00    -0.247 OA
HETATM   25  H   UNL     1       6.359  28.299  57.891  1.00  0.00     0.170 HD
HETATM   26  H   UNL     1       5.676  27.356  56.153  1.00  0.00     0.164 HD
BRANCH  23  27
HETATM   27  C   UNL     1       7.406  30.057  58.121  1.00  0.00     0.036 A 
HETATM   28  C   UNL     1       6.729  31.080  58.796  1.00  0.00     0.029 A 
HETATM   29  C   UNL     1       7.434  32.023  59.546  1.00  0.00     0.002 A 
HETATM   30  C   UNL     1       8.821  31.940  59.644  1.00  0.00     0.000 A 
HETATM   31  C   UNL     1       9.500  30.914  58.991  1.00  0.00     0.002 A 
HETATM   32  C   UNL     1       8.795  29.976  58.231  1.00  0.00     0.029 A 
ENDBRANCH  23  27
ENDBRANCH  20  21
ENDBRANCH   3  20
TORSDOF 7
ENDMDL
MODEL 7
REMARK VINA RESULT:      -8.5      5.104      9.363
REMARK  7 active torsions:
REMARK  status: ('A' for Active; 'I' for Inactive)
REMARK    1  A    between atoms: C_3  and  C_4 
REMARK    2  A    between atoms: C_4  and  N_5 
REMARK       I    between atoms: N_5  and  C_6 
REMARK    3  A    between atoms: C_6  and  C_7 
REMARK    4  A    between atoms: C_7  and  N_8 
REMARK    5  A    between atoms: C_10  and  C_11 
REMARK    6  A    between atoms: C_11  and  N_12 
REMARK       I    between atoms: N_12  and  C_13 
REMARK       I    between atoms: C_13  and  N_14 
REMARK    7  A    between atoms: N_14  and  C_15 
ROOT
HETATM    1  N   UNL     1       4.662  29.080  51.233  1.00  0.00    -0.057 N 
HETATM    2  H   UNL     1       5.651  28.922  51.520  1.00  0.00     0.281 HD
HETATM    3  C   UNL     1       4.519  28.307  49.926  1.00  0.00     0.206 C 
HETATM    4  C   UNL     1       5.504  28.882  48.893  1.00  0.00     0.035 C 
HETATM    5  C   UNL     1       5.345  30.388  48.718  1.00  0.00     0.004 C 
HETATM    6  C   UNL     1       5.466  31.105  50.056  1.00  0.00     0.028 C 
HETATM    7  C   UNL     1       4.468  30.563  51.065  1.00  0.00     0.236 C 
ENDROOT
BRANCH   1   8
HETATM    8  C   UNL     1       3.868  28.546  52.430  1.00  0.00     0.337 C 
BRANCH   8   9
HETATM    9  C   UNL     1       4.332  29.025  53.809  1.00  0.00     0.243 C 
HETATM   10  N   UNL     1       5.458  28.392  54.278  1.00  0.00    -0.355 N 
HETATM   11  H   UNL     1       6.008  27.789  53.676  1.00  0.00     0.162 HD
HETATM   12  O   UNL     1       3.735  29.891  54.443  1.00  0.00    -0.272 OA
BRANCH  10  13
HETATM   13  C   UNL     1       6.105  28.827  55.501  1.00  0.00     0.169 C 
BRANCH  13  14
HETATM   14  C   UNL     1       6.460  27.626  56.327  1.00  0.00     0.006 A 
HETATM   15  C   UNL     1       7.601  27.401  57.087  1.00  0.00    -0.047 A 
HETATM   16  C   UNL     1       8.748  28.349  57.230  1.00  0.00     0.049 C 
HETATM   17  C   UNL     1       7.554  26.116  57.723  1.00  0.00     0.015 A 
HETATM   18  C   UNL     1       6.410  25.413  57.421  1.00  0.00     0.051 A 
HETATM   19  S   UNL     1       5.392  26.277  56.365  1.00  0.00    -0.104 SA
ENDBRANCH  13  14
ENDBRANCH  10  13
ENDBRANCH   8   9
ENDBRANCH   1   8
BRANCH   3  20
HETATM   20  C   UNL     1       4.716  26.772  50.085  1.00  0.00     0.157 C 
BRANCH  20  21
HETATM   21  N   UNL     1       5.924  26.257  50.727  1.00  0.00    -0.341 N 
HETATM   22  C   UNL     1       6.003  25.315  51.723  1.00  0.00     0.320 C 
HETATM   23  N   UNL     1       7.288  24.882  51.922  1.00  0.00    -0.309 N 
HETATM   24  O   UNL     1       5.004  24.930  52.322  1.00  0.00    -0.247 OA
HETATM   25  H   UNL     1       7.938  25.015  51.160  1.00  0.00     0.170 HD
HETATM   26  H   UNL     1       6.805  26.570  50.338  1.00  0.00     0.164 HD
BRANCH  23  27
HETATM   27  C   UNL     1       7.737  24.039  52.961  1.00  0.00     0.036 A 
HETATM   28  C   UNL     1       7.892  22.678  52.670  1.00  0.00     0.029 A 
HETATM   29  C   UNL     1       8.341  21.789  53.648  1.00  0.00     0.002 A 
HETATM   30  C   UNL     1       8.657  22.255  54.922  1.00  0.00     0.000 A 
HETATM   31  C   UNL     1       8.524  23.610  55.215  1.00  0.00     0.002 A 
HETATM   32  C   UNL     1       8.064  24.500  54.238  1.00  0.00     0.029 A 
ENDBRANCH  23  27
ENDBRANCH  20  21
ENDBRANCH   3  20
TORSDOF 7
ENDMDL
MODEL 8
REMARK VINA RESULT:      -8.1      4.280      9.914
REMARK  7 active torsions:
REMARK  status: ('A' for Active; 'I' for Inactive)
REMARK    1  A    between atoms: C_3  and  C_4 
REMARK    2  A    between atoms: C_4  and  N_5 
REMARK       I    between atoms: N_5  and  C_6 
REMARK    3  A    between atoms: C_6  and  C_7 
REMARK    4  A    between atoms: C_7  and  N_8 
REMARK    5  A    between atoms: C_10  and  C_11 
REMARK    6  A    between atoms: C_11  and  N_12 
REMARK       I    between atoms: N_12  and  C_13 
REMARK       I    between atoms: C_13  and  N_14 
REMARK    7  A    between atoms: N_14  and  C_15 
ROOT
HETATM    1  N   UNL     1       4.934  29.137  51.550  1.00  0.00    -0.057 N 
HETATM    2  H   UNL     1       5.942  28.966  51.750  1.00  0.00     0.281 HD
HETATM    3  C   UNL     1       4.663  28.346  50.273  1.00  0.00     0.206 C 
HETATM    4  C   UNL     1       5.562  28.888  49.148  1.00  0.00     0.035 C 
HETATM    5  C   UNL     1       5.411  30.393  48.962  1.00  0.00     0.004 C 
HETATM    6  C   UNL     1       5.663  31.129  50.270  1.00  0.00     0.028 C 
HETATM    7  C   UNL     1       4.750  30.620  51.374  1.00  0.00     0.236 C 
ENDROOT
BRANCH   1   8
HETATM    8  C   UNL     1       4.241  28.636  52.821  1.00  0.00     0.337 C 
BRANCH   8   9
HETATM    9  C   UNL     1       5.165  28.258  53.983  1.00  0.00     0.243 C 
HETATM   10  N   UNL     1       5.788  29.328  54.581  1.00  0.00    -0.355 N 
HETATM   11  H   UNL     1       5.514  30.280  54.365  1.00  0.00     0.162 HD
HETATM   12  O   UNL     1       5.342  27.095  54.335  1.00  0.00    -0.272 OA
BRANCH  10  13
HETATM   13  C   UNL     1       6.583  29.154  55.782  1.00  0.00     0.169 C 
BRANCH  13  14
HETATM   14  C   UNL     1       6.301  30.281  56.730  1.00  0.00     0.006 A 
HETATM   15  C   UNL     1       6.890  30.550  57.959  1.00  0.00    -0.047 A 
HETATM   16  C   UNL     1       7.960  29.731  58.605  1.00  0.00     0.049 C 
HETATM   17  C   UNL     1       6.328  31.729  58.554  1.00  0.00     0.015 A 
HETATM   18  C   UNL     1       5.341  32.297  57.784  1.00  0.00     0.051 A 
HETATM   19  S   UNL     1       5.068  31.420  56.350  1.00  0.00    -0.104 SA
ENDBRANCH  13  14
ENDBRANCH  10  13
ENDBRANCH   8   9
ENDBRANCH   1   8
BRANCH   3  20
HETATM   20  C   UNL     1       4.848  26.810  50.441  1.00  0.00     0.157 C 
BRANCH  20  21
HETATM   21  N   UNL     1       6.030  26.292  51.129  1.00  0.00    -0.341 N 
HETATM   22  C   UNL     1       6.105  25.188  51.941  1.00  0.00     0.320 C 
HETATM   23  N   UNL     1       7.401  24.841  52.221  1.00  0.00    -0.309 N 
HETATM   24  O   UNL     1       5.097  24.607  52.329  1.00  0.00    -0.247 OA
HETATM   25  H   UNL     1       8.111  25.175  51.584  1.00  0.00     0.170 HD
HETATM   26  H   UNL     1       6.908  26.752  50.918  1.00  0.00     0.164 HD
BRANCH  23  27
HETATM   27  C   UNL     1       7.827  23.858  53.140  1.00  0.00     0.036 A 
HETATM   28  C   UNL     1       8.068  24.265  54.458  1.00  0.00     0.029 A 
HETATM   29  C   UNL     1       8.482  23.343  55.422  1.00  0.00     0.002 A 
HETATM   30  C   UNL     1       8.642  22.002  55.080  1.00  0.00     0.000 A 
HETATM   31  C   UNL     1       8.387  21.586  53.776  1.00  0.00     0.002 A 
HETATM   32  C   UNL     1       7.982  22.511  52.808  1.00  0.00     0.029 A 
ENDBRANCH  23  27
ENDBRANCH  20  21
ENDBRANCH   3  20
TORSDOF 7
ENDMDL
MODEL 9
REMARK VINA RESULT:      -8.1      5.083      9.120
REMARK  7 active torsions:
REMARK  status: ('A' for Active; 'I' for Inactive)
REMARK    1  A    between atoms: C_3  and  C_4 
REMARK    2  A    between atoms: C_4  and  N_5 
REMARK       I    between atoms: N_5  and  C_6 
REMARK    3  A    between atoms: C_6  and  C_7 
REMARK    4  A    between atoms: C_7  and  N_8 
REMARK    5  A    between atoms: C_10  and  C_11 
REMARK    6  A    between atoms: C_11  and  N_12 
REMARK       I    between atoms: N_12  and  C_13 
REMARK       I    between atoms: C_13  and  N_14 
REMARK    7  A    between atoms: N_14  and  C_15 
ROOT
HETATM    1  N   UNL     1       5.358  28.429  54.345  1.00  0.00    -0.057 N 
HETATM    2  H   UNL     1       4.599  27.734  54.507  1.00  0.00     0.281 HD
HETATM    3  C   UNL     1       5.929  28.695  55.735  1.00  0.00     0.206 C 
HETATM    4  C   UNL     1       4.819  29.271  56.631  1.00  0.00     0.035 C 
HETATM    5  C   UNL     1       4.154  30.495  56.014  1.00  0.00     0.004 C 
HETATM    6  C   UNL     1       3.630  30.182  54.619  1.00  0.00     0.028 C 
HETATM    7  C   UNL     1       4.734  29.648  53.722  1.00  0.00     0.236 C 
ENDROOT
BRANCH   1   8
HETATM    8  C   UNL     1       6.280  27.707  53.357  1.00  0.00     0.337 C 
BRANCH   8   9
HETATM    9  C   UNL     1       5.631  26.594  52.527  1.00  0.00     0.243 C 
HETATM   10  N   UNL     1       5.356  26.946  51.227  1.00  0.00    -0.355 N 
HETATM   11  H   UNL     1       5.713  27.809  50.832  1.00  0.00     0.162 HD
HETATM   12  O   UNL     1       5.369  25.489  52.994  1.00  0.00    -0.272 OA
BRANCH  10  13
HETATM   13  C   UNL     1       4.873  25.965  50.274  1.00  0.00     0.169 C 
BRANCH  13  14
HETATM   14  C   UNL     1       4.236  26.673  49.116  1.00  0.00     0.006 A 
HETATM   15  C   UNL     1       3.423  26.149  48.118  1.00  0.00    -0.047 A 
HETATM   16  C   UNL     1       3.014  24.716  47.998  1.00  0.00     0.049 C 
HETATM   17  C   UNL     1       3.023  27.166  47.189  1.00  0.00     0.015 A 
HETATM   18  C   UNL     1       3.546  28.402  47.493  1.00  0.00     0.051 A 
HETATM   19  S   UNL     1       4.529  28.353  48.883  1.00  0.00    -0.104 SA
ENDBRANCH  13  14
ENDBRANCH  10  13
ENDBRANCH   8   9
ENDBRANCH   1   8
BRANCH   3  20
HETATM   20  C   UNL     1       6.579  27.442  56.392  1.00  0.00     0.157 C 
BRANCH  20  21
HETATM   21  N   UNL     1       7.315  26.488  55.564  1.00  0.00    -0.341 N 
HETATM   22  C   UNL     1       7.274  25.118  55.634  1.00  0.00     0.320 C 
HETATM   23  N   UNL     1       7.888  24.528  54.561  1.00  0.00    -0.309 N 
HETATM   24  O   UNL     1       6.723  24.539  56.565  1.00  0.00    -0.247 OA
HETATM   25  H   UNL     1       7.990  25.090  53.727  1.00  0.00     0.170 HD
HETATM   26  H   UNL     1       7.854  26.880  54.802  1.00  0.00     0.164 HD
BRANCH  23  27
HETATM   27  C   UNL     1       8.155  23.151  54.398  1.00  0.00     0.036 A 
HETATM   28  C   UNL     1       7.737  22.547  53.206  1.00  0.00     0.029 A 
HETATM   29  C   UNL     1       7.976  21.190  52.976  1.00  0.00     0.002 A 
HETATM   30  C   UNL     1       8.651  20.430  53.928  1.00  0.00     0.000 A 
HETATM   31  C   UNL     1       9.086  21.028  55.108  1.00  0.00     0.002 A 
HETATM   32  C   UNL     1       8.838  22.384  55.344  1.00  0.00     0.029 A 
ENDBRANCH  23  27
ENDBRANCH  20  21
ENDBRANCH   3  20
TORSDOF 7
ENDMDL
MODEL 10
REMARK VINA RESULT:      -8.1      1.688      2.259
REMARK  7 active torsions:
REMARK  status: ('A' for Active; 'I' for Inactive)
REMARK    1  A    between atoms: C_3  and  C_4 
REMARK    2  A    between atoms: C_4  and  N_5 
REMARK       I    between atoms: N_5  and  C_6 
REMARK    3  A    between atoms: C_6  and  C_7 
REMARK    4  A    between atoms: C_7  and  N_8 
REMARK    5  A    between atoms: C_10  and  C_11 
REMARK    6  A    between atoms: C_11  and  N_12 
REMARK       I    between atoms: N_12  and  C_13 
REMARK       I    between atoms: C_13  and  N_14 
REMARK    7  A    between atoms: N_14  and  C_15 
ROOT
HETATM    1  N   UNL     1       4.862  29.951  55.673  1.00  0.00    -0.057 N 
HETATM    2  H   UNL     1       4.373  29.380  56.394  1.00  0.00     0.281 HD
HETATM    3  C   UNL     1       5.486  31.100  56.459  1.00  0.00     0.206 C 
HETATM    4  C   UNL     1       4.367  31.901  57.150  1.00  0.00     0.035 C 
HETATM    5  C   UNL     1       3.296  32.361  56.169  1.00  0.00     0.004 C 
HETATM    6  C   UNL     1       2.729  31.181  55.392  1.00  0.00     0.028 C 
HETATM    7  C   UNL     1       3.829  30.410  54.679  1.00  0.00     0.236 C 
ENDROOT
BRANCH   1   8
HETATM    8  C   UNL     1       5.834  28.950  55.044  1.00  0.00     0.337 C 
BRANCH   8   9
HETATM    9  C   UNL     1       5.913  27.577  55.720  1.00  0.00     0.243 C 
HETATM   10  N   UNL     1       6.979  26.809  55.317  1.00  0.00    -0.355 N 
HETATM   11  H   UNL     1       7.723  27.202  54.751  1.00  0.00     0.162 HD
HETATM   12  O   UNL     1       5.083  27.196  56.541  1.00  0.00    -0.272 OA
BRANCH  10  13
HETATM   13  C   UNL     1       7.275  25.544  55.963  1.00  0.00     0.169 C 
BRANCH  13  14
HETATM   14  C   UNL     1       7.599  24.518  54.918  1.00  0.00     0.006 A 
HETATM   15  C   UNL     1       7.977  23.193  55.090  1.00  0.00    -0.047 A 
HETATM   16  C   UNL     1       8.147  22.504  56.406  1.00  0.00     0.049 C 
HETATM   17  C   UNL     1       8.201  22.551  53.827  1.00  0.00     0.015 A 
HETATM   18  C   UNL     1       8.007  23.394  52.758  1.00  0.00     0.051 A 
HETATM   19  S   UNL     1       7.568  24.962  53.256  1.00  0.00    -0.104 SA
ENDBRANCH  13  14
ENDBRANCH  10  13
ENDBRANCH   8   9
ENDBRANCH   1   8
BRANCH   3  20
HETATM   20  C   UNL     1       6.557  30.640  57.491  1.00  0.00     0.157 C 
BRANCH  20  21
HETATM   21  N   UNL     1       6.294  30.780  58.922  1.00  0.00    -0.341 N 
HETATM   22  C   UNL     1       6.739  31.775  59.757  1.00  0.00     0.320 C 
HETATM   23  N   UNL     1       6.111  31.743  60.976  1.00  0.00    -0.309 N 
HETATM   24  O   UNL     1       7.590  32.582  59.399  1.00  0.00    -0.247 OA
HETATM   25  H   UNL     1       5.221  31.268  61.018  1.00  0.00     0.170 HD
HETATM   26  H   UNL     1       5.646  30.115  59.326  1.00  0.00     0.164 HD
BRANCH  23  27
HETATM   27  C   UNL     1       6.437  32.521  62.108  1.00  0.00     0.036 A 
HETATM   28  C   UNL     1       7.516  32.099  62.895  1.00  0.00     0.029 A 
HETATM   29  C   UNL     1       7.898  32.826  64.024  1.00  0.00     0.002 A 
HETATM   30  C   UNL     1       7.218  33.992  64.365  1.00  0.00     0.000 A 
HETATM   31  C   UNL     1       6.157  34.430  63.577  1.00  0.00     0.002 A 
HETATM   32  C   UNL     1       5.766  33.696  62.452  1.00  0.00     0.029 A 
ENDBRANCH  23  27
ENDBRANCH  20  21
ENDBRANCH   3  20
TORSDOF 7
ENDMDL
