MODEL 1
REMARK VINA RESULT:      -9.3      0.000      0.000
REMARK  4 active torsions:
REMARK  status: ('A' for Active; 'I' for Inactive)
REMARK    1  A    between atoms: S_2  and  C_3 
REMARK    2  A    between atoms: C_3  and  C_4 
REMARK       I    between atoms: C_4  and  N_5 
REMARK    3  A    between atoms: N_5  and  N_6 
REMARK       I    between atoms: N_6  and  C_7 
REMARK    4  A    between atoms: C_7  and  C_8 
ROOT
HETATM    1  C   UNL     1       7.688  26.289  56.187  1.00  0.00     0.103 A 
HETATM    2  N   UNL     1       7.489  26.216  54.827  1.00  0.00    -0.351 N 
HETATM    3  H   UNL     1       7.301  27.022  54.244  1.00  0.00     0.166 HD
HETATM    4  C   UNL     1       7.616  24.924  54.374  1.00  0.00     0.044 A 
HETATM    5  C   UNL     1       7.893  24.123  55.480  1.00  0.00     0.004 A 
HETATM    6  C   UNL     1       7.923  24.994  56.614  1.00  0.00     0.050 A 
HETATM    7  C   UNL     1       7.512  24.417  53.075  1.00  0.00     0.031 A 
HETATM    8  C   UNL     1       7.707  23.044  52.895  1.00  0.00     0.014 A 
HETATM    9  C   UNL     1       7.994  22.193  53.971  1.00  0.00    -0.025 A 
HETATM   10  C   UNL     1       8.087  22.723  55.282  1.00  0.00    -0.013 A 
HETATM   11  C   UNL     1       8.197  20.817  53.781  1.00  0.00     0.012 A 
HETATM   12  C   UNL     1       8.487  19.979  54.861  1.00  0.00     0.001 A 
HETATM   13  C   UNL     1       8.577  20.503  56.149  1.00  0.00     0.001 A 
HETATM   14  C   UNL     1       8.378  21.867  56.363  1.00  0.00     0.013 A 
ENDROOT
BRANCH   1  15
HETATM   15  C   UNL     1       7.658  27.553  56.889  1.00  0.00     0.286 C 
HETATM   16  N   UNL     1       8.867  28.209  56.981  1.00  0.00    -0.262 N 
HETATM   17  H   UNL     1       9.753  27.765  56.754  1.00  0.00     0.190 HD
HETATM   18  O   UNL     1       6.625  28.021  57.368  1.00  0.00    -0.264 OA
BRANCH  16  19
HETATM   19  N   UNL     1       8.934  29.426  57.671  1.00  0.00    -0.267 N 
HETATM   20  C   UNL     1      10.077  30.187  57.527  1.00  0.00     0.245 C 
HETATM   21  O   UNL     1      10.949  29.915  56.701  1.00  0.00    -0.271 OA
HETATM   22  H   UNL     1       8.373  29.501  58.522  1.00  0.00     0.190 HD
BRANCH  20  23
HETATM   23  C   UNL     1      10.128  31.445  58.376  1.00  0.00     0.177 C 
BRANCH  23  24
HETATM   24  S   UNL     1       8.662  31.662  59.437  1.00  0.00    -0.164 SA
HETATM   25  C   UNL     1       9.287  30.891  60.952  1.00  0.00     0.090 C 
ENDBRANCH  23  24
ENDBRANCH  20  23
ENDBRANCH  16  19
ENDBRANCH   1  15
TORSDOF 4
ENDMDL
MODEL 2
REMARK VINA RESULT:      -9.1      2.047      2.147
REMARK  4 active torsions:
REMARK  status: ('A' for Active; 'I' for Inactive)
REMARK    1  A    between atoms: S_2  and  C_3 
REMARK    2  A    between atoms: C_3  and  C_4 
REMARK       I    between atoms: C_4  and  N_5 
REMARK    3  A    between atoms: N_5  and  N_6 
REMARK       I    between atoms: N_6  and  C_7 
REMARK    4  A    between atoms: C_7  and  C_8 
ROOT
HETATM    1  C   UNL     1       7.276  26.202  56.353  1.00  0.00     0.103 A 
HETATM    2  N   UNL     1       7.365  26.421  54.996  1.00  0.00    -0.351 N 
HETATM    3  H   UNL     1       7.326  27.340  54.573  1.00  0.00     0.166 HD
HETATM    4  C   UNL     1       7.547  25.243  54.313  1.00  0.00     0.044 A 
HETATM    5  C   UNL     1       7.564  24.216  55.255  1.00  0.00     0.004 A 
HETATM    6  C   UNL     1       7.380  24.833  56.531  1.00  0.00     0.050 A 
HETATM    7  C   UNL     1       7.705  25.019  52.942  1.00  0.00     0.031 A 
HETATM    8  C   UNL     1       7.894  23.700  52.515  1.00  0.00     0.014 A 
HETATM    9  C   UNL     1       7.926  22.631  53.420  1.00  0.00    -0.025 A 
HETATM   10  C   UNL     1       7.756  22.875  54.805  1.00  0.00    -0.013 A 
HETATM   11  C   UNL     1       8.125  21.311  52.984  1.00  0.00     0.012 A 
HETATM   12  C   UNL     1       8.159  20.253  53.896  1.00  0.00     0.001 A 
HETATM   13  C   UNL     1       7.992  20.495  55.258  1.00  0.00     0.001 A 
HETATM   14  C   UNL     1       7.790  21.799  55.715  1.00  0.00     0.013 A 
ENDROOT
BRANCH   1  15
HETATM   15  C   UNL     1       7.134  27.296  57.287  1.00  0.00     0.286 C 
HETATM   16  N   UNL     1       6.071  28.141  57.053  1.00  0.00    -0.262 N 
HETATM   17  H   UNL     1       5.538  28.129  56.187  1.00  0.00     0.190 HD
HETATM   18  O   UNL     1       7.902  27.462  58.235  1.00  0.00    -0.264 OA
BRANCH  16  19
HETATM   19  N   UNL     1       5.877  29.245  57.893  1.00  0.00    -0.267 N 
HETATM   20  C   UNL     1       5.937  30.504  57.329  1.00  0.00     0.245 C 
HETATM   21  O   UNL     1       5.990  30.677  56.111  1.00  0.00    -0.271 OA
HETATM   22  H   UNL     1       6.109  29.116  58.880  1.00  0.00     0.190 HD
BRANCH  20  23
HETATM   23  C   UNL     1       5.817  31.659  58.308  1.00  0.00     0.177 C 
BRANCH  23  24
HETATM   24  S   UNL     1       7.269  31.838  59.395  1.00  0.00    -0.164 SA
HETATM   25  C   UNL     1       6.461  32.583  60.834  1.00  0.00     0.090 C 
ENDBRANCH  23  24
ENDBRANCH  20  23
ENDBRANCH  16  19
ENDBRANCH   1  15
TORSDOF 4
ENDMDL
MODEL 3
REMARK VINA RESULT:      -9.0      4.887      7.008
REMARK  4 active torsions:
REMARK  status: ('A' for Active; 'I' for Inactive)
REMARK    1  A    between atoms: S_2  and  C_3 
REMARK    2  A    between atoms: C_3  and  C_4 
REMARK       I    between atoms: C_4  and  N_5 
REMARK    3  A    between atoms: N_5  and  N_6 
REMARK       I    between atoms: N_6  and  C_7 
REMARK    4  A    between atoms: C_7  and  C_8 
ROOT
HETATM    1  C   UNL     1       6.246  25.841  52.946  1.00  0.00     0.103 A 
HETATM    2  N   UNL     1       6.484  25.971  54.295  1.00  0.00    -0.351 N 
HETATM    3  H   UNL     1       6.250  26.799  54.829  1.00  0.00     0.166 HD
HETATM    4  C   UNL     1       7.040  24.826  54.815  1.00  0.00     0.044 A 
HETATM    5  C   UNL     1       7.183  23.922  53.765  1.00  0.00     0.004 A 
HETATM    6  C   UNL     1       6.691  24.579  52.594  1.00  0.00     0.050 A 
HETATM    7  C   UNL     1       7.414  24.530  56.129  1.00  0.00     0.031 A 
HETATM    8  C   UNL     1       7.947  23.263  56.385  1.00  0.00     0.014 A 
HETATM    9  C   UNL     1       8.107  22.312  55.367  1.00  0.00    -0.025 A 
HETATM   10  C   UNL     1       7.730  22.632  54.039  1.00  0.00    -0.013 A 
HETATM   11  C   UNL     1       8.634  21.038  55.633  1.00  0.00     0.012 A 
HETATM   12  C   UNL     1       8.785  20.097  54.611  1.00  0.00     0.001 A 
HETATM   13  C   UNL     1       8.414  20.415  53.306  1.00  0.00     0.001 A 
HETATM   14  C   UNL     1       7.889  21.675  53.017  1.00  0.00     0.013 A 
ENDROOT
BRANCH   1  15
HETATM   15  C   UNL     1       5.617  26.896  52.184  1.00  0.00     0.286 C 
HETATM   16  N   UNL     1       4.587  26.498  51.358  1.00  0.00    -0.262 N 
HETATM   17  H   UNL     1       4.402  25.522  51.140  1.00  0.00     0.190 HD
HETATM   18  O   UNL     1       5.966  28.074  52.268  1.00  0.00    -0.264 OA
BRANCH  16  19
HETATM   19  N   UNL     1       3.941  27.452  50.561  1.00  0.00    -0.267 N 
HETATM   20  C   UNL     1       4.080  27.349  49.192  1.00  0.00     0.245 C 
HETATM   21  O   UNL     1       4.603  26.372  48.655  1.00  0.00    -0.271 OA
HETATM   22  H   UNL     1       3.765  28.363  50.990  1.00  0.00     0.190 HD
BRANCH  20  23
HETATM   23  C   UNL     1       3.439  28.468  48.390  1.00  0.00     0.177 C 
BRANCH  23  24
HETATM   24  S   UNL     1       1.664  28.686  48.742  1.00  0.00    -0.164 SA
HETATM   25  C   UNL     1       1.014  27.263  47.830  1.00  0.00     0.090 C 
ENDBRANCH  23  24
ENDBRANCH  20  23
ENDBRANCH  16  19
ENDBRANCH   1  15
TORSDOF 4
ENDMDL
MODEL 4
REMARK VINA RESULT:      -8.8      1.186      2.201
REMARK  4 active torsions:
REMARK  status: ('A' for Active; 'I' for Inactive)
REMARK    1  A    between atoms: S_2  and  C_3 
REMARK    2  A    between atoms: C_3  and  C_4 
REMARK       I    between atoms: C_4  and  N_5 
REMARK    3  A    between atoms: N_5  and  N_6 
REMARK       I    between atoms: N_6  and  C_7 
REMARK    4  A    between atoms: C_7  and  C_8 
ROOT
HETATM    1  C   UNL     1       7.520  25.690  56.697  1.00  0.00     0.103 A 
HETATM    2  N   UNL     1       7.851  24.705  57.600  1.00  0.00    -0.351 N 
HETATM    3  H   UNL     1       7.913  24.858  58.599  1.00  0.00     0.166 HD
HETATM    4  C   UNL     1       8.046  23.498  56.971  1.00  0.00     0.044 A 
HETATM    5  C   UNL     1       7.850  23.706  55.607  1.00  0.00     0.004 A 
HETATM    6  C   UNL     1       7.532  25.091  55.449  1.00  0.00     0.050 A 
HETATM    7  C   UNL     1       8.372  22.251  57.511  1.00  0.00     0.031 A 
HETATM    8  C   UNL     1       8.494  21.172  56.630  1.00  0.00     0.014 A 
HETATM    9  C   UNL     1       8.301  21.322  55.250  1.00  0.00    -0.025 A 
HETATM   10  C   UNL     1       7.979  22.596  54.719  1.00  0.00    -0.013 A 
HETATM   11  C   UNL     1       8.416  20.232  54.372  1.00  0.00     0.012 A 
HETATM   12  C   UNL     1       8.217  20.394  52.999  1.00  0.00     0.001 A 
HETATM   13  C   UNL     1       7.902  21.648  52.479  1.00  0.00     0.001 A 
HETATM   14  C   UNL     1       7.783  22.746  53.331  1.00  0.00     0.013 A 
ENDROOT
BRANCH   1  15
HETATM   15  C   UNL     1       7.216  27.037  57.125  1.00  0.00     0.286 C 
HETATM   16  N   UNL     1       8.280  27.752  57.632  1.00  0.00    -0.262 N 
HETATM   17  H   UNL     1       9.167  27.320  57.877  1.00  0.00     0.190 HD
HETATM   18  O   UNL     1       6.087  27.521  57.038  1.00  0.00    -0.264 OA
BRANCH  16  19
HETATM   19  N   UNL     1       8.067  29.056  58.098  1.00  0.00    -0.267 N 
HETATM   20  C   UNL     1       9.133  29.932  58.070  1.00  0.00     0.245 C 
HETATM   21  O   UNL     1      10.195  29.660  57.508  1.00  0.00    -0.271 OA
HETATM   22  H   UNL     1       7.321  29.181  58.785  1.00  0.00     0.190 HD
BRANCH  20  23
HETATM   23  C   UNL     1       8.865  31.298  58.679  1.00  0.00     0.177 C 
BRANCH  23  24
HETATM   24  S   UNL     1       7.899  31.224  60.222  1.00  0.00    -0.164 SA
HETATM   25  C   UNL     1       9.181  30.595  61.335  1.00  0.00     0.090 C 
ENDBRANCH  23  24
ENDBRANCH  20  23
ENDBRANCH  16  19
ENDBRANCH   1  15
TORSDOF 4
ENDMDL
MODEL 5
REMARK VINA RESULT:      -8.7      3.383      3.908
REMARK  4 active torsions:
REMARK  status: ('A' for Active; 'I' for Inactive)
REMARK    1  A    between atoms: S_2  and  C_3 
REMARK    2  A    between atoms: C_3  and  C_4 
REMARK       I    between atoms: C_4  and  N_5 
REMARK    3  A    between atoms: N_5  and  N_6 
REMARK       I    between atoms: N_6  and  C_7 
REMARK    4  A    between atoms: C_7  and  C_8 
ROOT
HETATM    1  C   UNL     1       6.156  25.848  55.805  1.00  0.00     0.103 A 
HETATM    2  N   UNL     1       6.401  25.869  54.450  1.00  0.00    -0.351 N 
HETATM    3  H   UNL     1       6.226  26.674  53.861  1.00  0.00     0.166 HD
HETATM    4  C   UNL     1       6.942  24.679  54.023  1.00  0.00     0.044 A 
HETATM    5  C   UNL     1       7.039  23.846  55.136  1.00  0.00     0.004 A 
HETATM    6  C   UNL     1       6.530  24.590  56.246  1.00  0.00     0.050 A 
HETATM    7  C   UNL     1       7.353  24.291  52.745  1.00  0.00     0.031 A 
HETATM    8  C   UNL     1       7.891  23.009  52.595  1.00  0.00     0.014 A 
HETATM    9  C   UNL     1       8.018  22.132  53.682  1.00  0.00    -0.025 A 
HETATM   10  C   UNL     1       7.589  22.540  54.969  1.00  0.00    -0.013 A 
HETATM   11  C   UNL     1       8.569  20.850  53.525  1.00  0.00     0.012 A 
HETATM   12  C   UNL     1       8.694  19.987  54.617  1.00  0.00     0.001 A 
HETATM   13  C   UNL     1       8.270  20.389  55.881  1.00  0.00     0.001 A 
HETATM   14  C   UNL     1       7.719  21.658  56.061  1.00  0.00     0.013 A 
ENDROOT
BRANCH   1  15
HETATM   15  C   UNL     1       5.635  27.005  56.497  1.00  0.00     0.286 C 
HETATM   16  N   UNL     1       4.397  27.441  56.073  1.00  0.00    -0.262 N 
HETATM   17  H   UNL     1       3.961  27.111  55.216  1.00  0.00     0.190 HD
HETATM   18  O   UNL     1       6.246  27.564  57.408  1.00  0.00    -0.264 OA
BRANCH  16  19
HETATM   19  N   UNL     1       3.831  28.575  56.670  1.00  0.00    -0.267 N 
HETATM   20  C   UNL     1       3.905  29.770  55.983  1.00  0.00     0.245 C 
HETATM   21  O   UNL     1       4.296  29.836  54.817  1.00  0.00    -0.271 OA
HETATM   22  H   UNL     1       3.773  28.575  57.691  1.00  0.00     0.190 HD
BRANCH  20  23
HETATM   23  C   UNL     1       3.362  30.978  56.726  1.00  0.00     0.177 C 
BRANCH  23  24
HETATM   24  S   UNL     1       3.454  32.521  55.760  1.00  0.00    -0.164 SA
HETATM   25  C   UNL     1       1.790  32.514  55.046  1.00  0.00     0.090 C 
ENDBRANCH  23  24
ENDBRANCH  20  23
ENDBRANCH  16  19
ENDBRANCH   1  15
TORSDOF 4
ENDMDL
MODEL 6
REMARK VINA RESULT:      -8.5      2.122      3.235
REMARK  4 active torsions:
REMARK  status: ('A' for Active; 'I' for Inactive)
REMARK    1  A    between atoms: S_2  and  C_3 
REMARK    2  A    between atoms: C_3  and  C_4 
REMARK       I    between atoms: C_4  and  N_5 
REMARK    3  A    between atoms: N_5  and  N_6 
REMARK       I    between atoms: N_6  and  C_7 
REMARK    4  A    between atoms: C_7  and  C_8 
ROOT
HETATM    1  C   UNL     1       7.220  27.642  57.083  1.00  0.00     0.103 A 
HETATM    2  N   UNL     1       7.773  26.637  57.845  1.00  0.00    -0.351 N 
HETATM    3  H   UNL     1       7.949  26.720  58.838  1.00  0.00     0.166 HD
HETATM    4  C   UNL     1       8.013  25.514  57.089  1.00  0.00     0.044 A 
HETATM    5  C   UNL     1       7.616  25.802  55.784  1.00  0.00     0.004 A 
HETATM    6  C   UNL     1       7.132  27.147  55.793  1.00  0.00     0.050 A 
HETATM    7  C   UNL     1       8.540  24.277  57.468  1.00  0.00     0.031 A 
HETATM    8  C   UNL     1       8.661  23.291  56.483  1.00  0.00     0.014 A 
HETATM    9  C   UNL     1       8.271  23.524  55.156  1.00  0.00    -0.025 A 
HETATM   10  C   UNL     1       7.746  24.787  54.788  1.00  0.00    -0.013 A 
HETATM   11  C   UNL     1       8.387  22.526  54.175  1.00  0.00     0.012 A 
HETATM   12  C   UNL     1       7.991  22.768  52.857  1.00  0.00     0.001 A 
HETATM   13  C   UNL     1       7.477  24.012  52.497  1.00  0.00     0.001 A 
HETATM   14  C   UNL     1       7.353  25.020  53.455  1.00  0.00     0.013 A 
ENDROOT
BRANCH   1  15
HETATM   15  C   UNL     1       6.831  28.906  57.667  1.00  0.00     0.286 C 
HETATM   16  N   UNL     1       7.683  29.401  58.631  1.00  0.00    -0.262 N 
HETATM   17  H   UNL     1       8.422  28.843  59.051  1.00  0.00     0.190 HD
HETATM   18  O   UNL     1       5.813  29.509  57.325  1.00  0.00    -0.264 OA
BRANCH  16  19
HETATM   19  N   UNL     1       7.366  30.607  59.271  1.00  0.00    -0.267 N 
HETATM   20  C   UNL     1       8.065  30.932  60.416  1.00  0.00     0.245 C 
HETATM   21  O   UNL     1       9.048  30.293  60.791  1.00  0.00    -0.271 OA
HETATM   22  H   UNL     1       6.419  30.963  59.131  1.00  0.00     0.190 HD
BRANCH  20  23
HETATM   23  C   UNL     1       7.607  32.200  61.115  1.00  0.00     0.177 C 
BRANCH  23  24
HETATM   24  S   UNL     1       7.812  32.142  62.925  1.00  0.00    -0.164 SA
HETATM   25  C   UNL     1       6.108  32.501  63.419  1.00  0.00     0.090 C 
ENDBRANCH  23  24
ENDBRANCH  20  23
ENDBRANCH  16  19
ENDBRANCH   1  15
TORSDOF 4
ENDMDL
MODEL 7
REMARK VINA RESULT:      -8.4      3.080      3.239
REMARK  4 active torsions:
REMARK  status: ('A' for Active; 'I' for Inactive)
REMARK    1  A    between atoms: S_2  and  C_3 
REMARK    2  A    between atoms: C_3  and  C_4 
REMARK       I    between atoms: C_4  and  N_5 
REMARK    3  A    between atoms: N_5  and  N_6 
REMARK       I    between atoms: N_6  and  C_7 
REMARK    4  A    between atoms: C_7  and  C_8 
ROOT
HETATM    1  C   UNL     1       5.907  25.914  54.968  1.00  0.00     0.103 A 
HETATM    2  N   UNL     1       6.139  25.446  53.694  1.00  0.00    -0.351 N 
HETATM    3  H   UNL     1       5.887  25.954  52.856  1.00  0.00     0.166 HD
HETATM    4  C   UNL     1       6.780  24.230  53.719  1.00  0.00     0.044 A 
HETATM    5  C   UNL     1       6.961  23.886  55.058  1.00  0.00     0.004 A 
HETATM    6  C   UNL     1       6.396  24.948  55.830  1.00  0.00     0.050 A 
HETATM    7  C   UNL     1       7.214  23.425  52.662  1.00  0.00     0.031 A 
HETATM    8  C   UNL     1       7.863  22.228  52.979  1.00  0.00     0.014 A 
HETATM    9  C   UNL     1       8.078  21.836  54.307  1.00  0.00    -0.025 A 
HETATM   10  C   UNL     1       7.624  22.660  55.367  1.00  0.00    -0.013 A 
HETATM   11  C   UNL     1       8.739  20.636  54.618  1.00  0.00     0.012 A 
HETATM   12  C   UNL     1       8.951  20.258  55.946  1.00  0.00     0.001 A 
HETATM   13  C   UNL     1       8.503  21.070  56.986  1.00  0.00     0.001 A 
HETATM   14  C   UNL     1       7.842  22.266  56.702  1.00  0.00     0.013 A 
ENDROOT
BRANCH   1  15
HETATM   15  C   UNL     1       5.290  27.201  55.200  1.00  0.00     0.286 C 
HETATM   16  N   UNL     1       4.684  27.354  56.429  1.00  0.00    -0.262 N 
HETATM   17  H   UNL     1       4.503  26.573  57.055  1.00  0.00     0.190 HD
HETATM   18  O   UNL     1       5.308  28.105  54.365  1.00  0.00    -0.264 OA
BRANCH  16  19
HETATM   19  N   UNL     1       4.036  28.560  56.726  1.00  0.00    -0.267 N 
HETATM   20  C   UNL     1       4.746  29.520  57.418  1.00  0.00     0.245 C 
HETATM   21  O   UNL     1       5.954  29.418  57.633  1.00  0.00    -0.271 OA
HETATM   22  H   UNL     1       3.017  28.526  56.798  1.00  0.00     0.190 HD
BRANCH  20  23
HETATM   23  C   UNL     1       3.958  30.762  57.795  1.00  0.00     0.177 C 
BRANCH  23  24
HETATM   24  S   UNL     1       4.926  31.968  58.758  1.00  0.00    -0.164 SA
HETATM   25  C   UNL     1       4.659  33.437  57.734  1.00  0.00     0.090 C 
ENDBRANCH  23  24
ENDBRANCH  20  23
ENDBRANCH  16  19
ENDBRANCH   1  15
TORSDOF 4
ENDMDL
MODEL 8
REMARK VINA RESULT:      -8.2      4.283      6.039
REMARK  4 active torsions:
REMARK  status: ('A' for Active; 'I' for Inactive)
REMARK    1  A    between atoms: S_2  and  C_3 
REMARK    2  A    between atoms: C_3  and  C_4 
REMARK       I    between atoms: C_4  and  N_5 
REMARK    3  A    between atoms: N_5  and  N_6 
REMARK       I    between atoms: N_6  and  C_7 
REMARK    4  A    between atoms: C_7  and  C_8 
ROOT
HETATM    1  C   UNL     1       7.021  26.147  53.558  1.00  0.00     0.103 A 
HETATM    2  N   UNL     1       7.309  26.077  54.903  1.00  0.00    -0.351 N 
HETATM    3  H   UNL     1       7.210  26.858  55.539  1.00  0.00     0.166 HD
HETATM    4  C   UNL     1       7.707  24.810  55.261  1.00  0.00     0.044 A 
HETATM    5  C   UNL     1       7.691  24.030  54.106  1.00  0.00     0.004 A 
HETATM    6  C   UNL     1       7.270  24.887  53.042  1.00  0.00     0.050 A 
HETATM    7  C   UNL     1       8.067  24.306  56.514  1.00  0.00     0.031 A 
HETATM    8  C   UNL     1       8.418  22.955  56.596  1.00  0.00     0.014 A 
HETATM    9  C   UNL     1       8.414  22.123  55.468  1.00  0.00    -0.025 A 
HETATM   10  C   UNL     1       8.053  22.653  54.204  1.00  0.00    -0.013 A 
HETATM   11  C   UNL     1       8.758  20.765  55.560  1.00  0.00     0.012 A 
HETATM   12  C   UNL     1       8.746  19.944  54.429  1.00  0.00     0.001 A 
HETATM   13  C   UNL     1       8.392  20.468  53.187  1.00  0.00     0.001 A 
HETATM   14  C   UNL     1       8.047  21.815  53.070  1.00  0.00     0.013 A 
ENDROOT
BRANCH   1  15
HETATM   15  C   UNL     1       6.531  27.365  52.953  1.00  0.00     0.286 C 
HETATM   16  N   UNL     1       5.456  27.214  52.103  1.00  0.00    -0.262 N 
HETATM   17  H   UNL     1       5.146  26.307  51.764  1.00  0.00     0.190 HD
HETATM   18  O   UNL     1       7.031  28.467  53.182  1.00  0.00    -0.264 OA
BRANCH  16  19
HETATM   19  N   UNL     1       4.937  28.340  51.450  1.00  0.00    -0.267 N 
HETATM   20  C   UNL     1       3.689  28.789  51.834  1.00  0.00     0.245 C 
HETATM   21  O   UNL     1       3.104  28.342  52.821  1.00  0.00    -0.271 OA
HETATM   22  H   UNL     1       5.274  28.515  50.501  1.00  0.00     0.190 HD
BRANCH  20  23
HETATM   23  C   UNL     1       3.142  29.950  51.022  1.00  0.00     0.177 C 
BRANCH  23  24
HETATM   24  S   UNL     1       1.569  29.568  50.184  1.00  0.00    -0.164 SA
HETATM   25  C   UNL     1       2.141  28.247  49.087  1.00  0.00     0.090 C 
ENDBRANCH  23  24
ENDBRANCH  20  23
ENDBRANCH  16  19
ENDBRANCH   1  15
TORSDOF 4
ENDMDL
MODEL 9
REMARK VINA RESULT:      -8.1      3.272      4.170
REMARK  4 active torsions:
REMARK  status: ('A' for Active; 'I' for Inactive)
REMARK    1  A    between atoms: S_2  and  C_3 
REMARK    2  A    between atoms: C_3  and  C_4 
REMARK       I    between atoms: C_4  and  N_5 
REMARK    3  A    between atoms: N_5  and  N_6 
REMARK       I    between atoms: N_6  and  C_7 
REMARK    4  A    between atoms: C_7  and  C_8 
ROOT
HETATM    1  C   UNL     1       6.276  25.981  54.560  1.00  0.00     0.103 A 
HETATM    2  N   UNL     1       6.770  25.711  55.817  1.00  0.00    -0.351 N 
HETATM    3  H   UNL     1       6.683  26.345  56.601  1.00  0.00     0.166 HD
HETATM    4  C   UNL     1       7.353  24.467  55.866  1.00  0.00     0.044 A 
HETATM    5  C   UNL     1       7.249  23.911  54.592  1.00  0.00     0.004 A 
HETATM    6  C   UNL     1       6.581  24.879  53.780  1.00  0.00     0.050 A 
HETATM    7  C   UNL     1       7.952  23.801  56.939  1.00  0.00     0.031 A 
HETATM    8  C   UNL     1       8.456  22.517  56.709  1.00  0.00     0.014 A 
HETATM    9  C   UNL     1       8.373  21.908  55.450  1.00  0.00    -0.025 A 
HETATM   10  C   UNL     1       7.770  22.601  54.371  1.00  0.00    -0.013 A 
HETATM   11  C   UNL     1       8.874  20.614  55.229  1.00  0.00     0.012 A 
HETATM   12  C   UNL     1       8.781  20.016  53.970  1.00  0.00     0.001 A 
HETATM   13  C   UNL     1       8.189  20.699  52.911  1.00  0.00     0.001 A 
HETATM   14  C   UNL     1       7.685  21.986  53.105  1.00  0.00     0.013 A 
ENDROOT
BRANCH   1  15
HETATM   15  C   UNL     1       5.570  27.210  54.274  1.00  0.00     0.286 C 
HETATM   16  N   UNL     1       6.055  28.333  54.909  1.00  0.00    -0.262 N 
HETATM   17  H   UNL     1       6.726  28.289  55.671  1.00  0.00     0.190 HD
HETATM   18  O   UNL     1       4.606  27.258  53.510  1.00  0.00    -0.264 OA
BRANCH  16  19
HETATM   19  N   UNL     1       5.412  29.562  54.710  1.00  0.00    -0.267 N 
HETATM   20  C   UNL     1       5.426  30.472  55.748  1.00  0.00     0.245 C 
HETATM   21  O   UNL     1       6.112  30.309  56.757  1.00  0.00    -0.271 OA
HETATM   22  H   UNL     1       4.649  29.575  54.030  1.00  0.00     0.190 HD
BRANCH  20  23
HETATM   23  C   UNL     1       4.629  31.742  55.506  1.00  0.00     0.177 C 
BRANCH  23  24
HETATM   24  S   UNL     1       3.199  31.499  54.403  1.00  0.00    -0.164 SA
HETATM   25  C   UNL     1       3.794  32.408  52.955  1.00  0.00     0.090 C 
ENDBRANCH  23  24
ENDBRANCH  20  23
ENDBRANCH  16  19
ENDBRANCH   1  15
TORSDOF 4
ENDMDL
MODEL 10
REMARK VINA RESULT:      -8.1      3.071      3.495
REMARK  4 active torsions:
REMARK  status: ('A' for Active; 'I' for Inactive)
REMARK    1  A    between atoms: S_2  and  C_3 
REMARK    2  A    between atoms: C_3  and  C_4 
REMARK       I    between atoms: C_4  and  N_5 
REMARK    3  A    between atoms: N_5  and  N_6 
REMARK       I    between atoms: N_6  and  C_7 
REMARK    4  A    between atoms: C_7  and  C_8 
ROOT
HETATM    1  C   UNL     1       5.048  27.541  55.668  1.00  0.00     0.103 A 
HETATM    2  N   UNL     1       4.621  27.127  54.426  1.00  0.00    -0.351 N 
HETATM    3  H   UNL     1       3.898  27.597  53.896  1.00  0.00     0.166 HD
HETATM    4  C   UNL     1       5.326  26.027  53.999  1.00  0.00     0.044 A 
HETATM    5  C   UNL     1       6.236  25.702  55.004  1.00  0.00     0.004 A 
HETATM    6  C   UNL     1       6.040  26.655  56.051  1.00  0.00     0.050 A 
HETATM    7  C   UNL     1       5.227  25.310  52.803  1.00  0.00     0.031 A 
HETATM    8  C   UNL     1       6.093  24.227  52.619  1.00  0.00     0.014 A 
HETATM    9  C   UNL     1       7.031  23.861  53.594  1.00  0.00    -0.025 A 
HETATM   10  C   UNL     1       7.112  24.594  54.804  1.00  0.00    -0.013 A 
HETATM   11  C   UNL     1       7.904  22.778  53.398  1.00  0.00     0.012 A 
HETATM   12  C   UNL     1       8.838  22.425  54.375  1.00  0.00     0.001 A 
HETATM   13  C   UNL     1       8.915  23.146  55.565  1.00  0.00     0.001 A 
HETATM   14  C   UNL     1       8.058  24.226  55.782  1.00  0.00     0.013 A 
ENDROOT
BRANCH   1  15
HETATM   15  C   UNL     1       4.491  28.712  56.307  1.00  0.00     0.286 C 
HETATM   16  N   UNL     1       4.911  28.936  57.601  1.00  0.00    -0.262 N 
HETATM   17  H   UNL     1       5.414  28.241  58.145  1.00  0.00     0.190 HD
HETATM   18  O   UNL     1       3.702  29.466  55.738  1.00  0.00    -0.264 OA
BRANCH  16  19
HETATM   19  N   UNL     1       4.397  30.034  58.305  1.00  0.00    -0.267 N 
HETATM   20  C   UNL     1       5.161  31.182  58.354  1.00  0.00     0.245 C 
HETATM   21  O   UNL     1       6.179  31.326  57.676  1.00  0.00    -0.271 OA
HETATM   22  H   UNL     1       3.736  29.827  59.057  1.00  0.00     0.190 HD
BRANCH  20  23
HETATM   23  C   UNL     1       4.596  32.300  59.213  1.00  0.00     0.177 C 
BRANCH  23  24
HETATM   24  S   UNL     1       5.672  32.750  60.614  1.00  0.00    -0.164 SA
HETATM   25  C   UNL     1       4.743  34.170  61.245  1.00  0.00     0.090 C 
ENDBRANCH  23  24
ENDBRANCH  20  23
ENDBRANCH  16  19
ENDBRANCH   1  15
TORSDOF 4
ENDMDL
