MODEL 1
REMARK VINA RESULT:      -8.2      0.000      0.000
REMARK  9 active torsions:
REMARK  status: ('A' for Active; 'I' for Inactive)
REMARK    1  A    between atoms: O_2  and  C_3 
REMARK    2  A    between atoms: C_3  and  C_4 
REMARK    3  A    between atoms: C_4  and  S_5 
REMARK    4  A    between atoms: S_5  and  C_6 
REMARK    5  A    between atoms: C_7  and  C_8 
REMARK       I    between atoms: C_8  and  N_9 
REMARK    6  A    between atoms: N_9  and  C_10 
REMARK    7  A    between atoms: C_11  and  C_12 
REMARK       I    between atoms: C_12  and  N_13 
REMARK    8  A    between atoms: N_13  and  C_14 
REMARK    9  A    between atoms: C_14  and  C_15 
ROOT
HETATM    1  C   UNL     1       7.078  24.235  53.813  1.00  0.00     0.050 A 
HETATM    2  C   UNL     1       7.128  23.901  55.176  1.00  0.00     0.058 A 
HETATM    3  C   UNL     1       7.676  22.677  55.592  1.00  0.00     0.019 A 
HETATM    4  C   UNL     1       8.193  21.789  54.650  1.00  0.00     0.001 A 
HETATM    5  C   UNL     1       8.188  22.132  53.299  1.00  0.00     0.002 A 
HETATM    6  C   UNL     1       7.645  23.352  52.884  1.00  0.00     0.030 A 
ENDROOT
BRANCH   1   7
HETATM    7  N   UNL     1       6.522  25.427  53.303  1.00  0.00    -0.322 N 
HETATM    8  C   UNL     1       5.168  25.643  53.143  1.00  0.00     0.257 C 
HETATM    9  O   UNL     1       4.291  24.789  53.162  1.00  0.00    -0.267 OA
HETATM   10  H   UNL     1       7.144  26.080  52.840  1.00  0.00     0.169 HD
BRANCH   8  11
HETATM   11  C   UNL     1       4.809  27.059  52.925  1.00  0.00     0.049 A 
HETATM   12  C   UNL     1       4.650  27.619  51.649  1.00  0.00     0.016 A 
HETATM   13  C   UNL     1       4.311  28.977  51.559  1.00  0.00     0.019 A 
HETATM   14  C   UNL     1       4.115  29.748  52.711  1.00  0.00     0.001 A 
HETATM   15  C   UNL     1       4.262  29.176  53.971  1.00  0.00     0.001 A 
HETATM   16  C   UNL     1       4.608  27.831  54.082  1.00  0.00     0.018 A 
BRANCH  12  17
HETATM   17  S   UNL     1       4.955  26.760  50.112  1.00  0.00    -0.127 SA
BRANCH  17  18
HETATM   18  C   UNL     1       3.612  27.447  49.069  1.00  0.00     0.106 C 
BRANCH  18  19
HETATM   19  C   UNL     1       4.011  27.526  47.592  1.00  0.00     0.177 C 
BRANCH  19  20
HETATM   20  O   UNL     1       3.872  26.310  46.856  1.00  0.00    -0.395 OA
HETATM   21  C   UNL     1       2.767  25.515  47.262  1.00  0.00     0.201 C 
ENDBRANCH  19  20
ENDBRANCH  18  19
ENDBRANCH  17  18
ENDBRANCH  12  17
ENDBRANCH   8  11
ENDBRANCH   1   7
BRANCH   2  22
HETATM   22  C   UNL     1       6.848  24.884  56.246  1.00  0.00     0.254 C 
HETATM   23  N   UNL     1       7.827  25.838  56.434  1.00  0.00    -0.354 N 
HETATM   24  H   UNL     1       8.765  25.508  56.224  1.00  0.00     0.162 HD
HETATM   25  O   UNL     1       5.800  24.821  56.878  1.00  0.00    -0.268 OA
BRANCH  23  26
HETATM   26  C   UNL     1       7.741  26.715  57.588  1.00  0.00     0.155 C 
BRANCH  26  27
HETATM   27  C   UNL     1       8.437  28.058  57.330  1.00  0.00     0.139 C 
HETATM   28  O   UNL     1       8.265  28.911  58.483  1.00  0.00    -0.384 OA
HETATM   29  C   UNL     1       7.269  29.899  58.183  1.00  0.00     0.168 C 
HETATM   30  C   UNL     1       6.693  29.569  56.821  1.00  0.00     0.029 C 
HETATM   31  C   UNL     1       7.826  28.820  56.166  1.00  0.00     0.035 C 
ENDBRANCH  26  27
ENDBRANCH  23  26
ENDBRANCH   2  22
TORSDOF 9
ENDMDL
MODEL 2
REMARK VINA RESULT:      -7.9      2.423      7.257
REMARK  9 active torsions:
REMARK  status: ('A' for Active; 'I' for Inactive)
REMARK    1  A    between atoms: O_2  and  C_3 
REMARK    2  A    between atoms: C_3  and  C_4 
REMARK    3  A    between atoms: C_4  and  S_5 
REMARK    4  A    between atoms: S_5  and  C_6 
REMARK    5  A    between atoms: C_7  and  C_8 
REMARK       I    between atoms: C_8  and  N_9 
REMARK    6  A    between atoms: N_9  and  C_10 
REMARK    7  A    between atoms: C_11  and  C_12 
REMARK       I    between atoms: C_12  and  N_13 
REMARK    8  A    between atoms: N_13  and  C_14 
REMARK    9  A    between atoms: C_14  and  C_15 
ROOT
HETATM    1  C   UNL     1       7.403  24.662  54.645  1.00  0.00     0.050 A 
HETATM    2  C   UNL     1       6.934  24.348  53.358  1.00  0.00     0.058 A 
HETATM    3  C   UNL     1       7.423  23.225  52.674  1.00  0.00     0.019 A 
HETATM    4  C   UNL     1       8.369  22.398  53.279  1.00  0.00     0.001 A 
HETATM    5  C   UNL     1       8.806  22.676  54.572  1.00  0.00     0.002 A 
HETATM    6  C   UNL     1       8.319  23.794  55.256  1.00  0.00     0.030 A 
ENDROOT
BRANCH   1   7
HETATM    7  N   UNL     1       6.990  25.784  55.393  1.00  0.00    -0.322 N 
HETATM    8  C   UNL     1       7.149  27.092  54.980  1.00  0.00     0.257 C 
HETATM    9  O   UNL     1       7.875  27.482  54.074  1.00  0.00    -0.267 OA
HETATM   10  H   UNL     1       6.751  25.642  56.368  1.00  0.00     0.169 HD
BRANCH   8  11
HETATM   11  C   UNL     1       6.347  28.064  55.749  1.00  0.00     0.049 A 
HETATM   12  C   UNL     1       6.905  28.943  56.688  1.00  0.00     0.016 A 
HETATM   13  C   UNL     1       6.048  29.824  57.363  1.00  0.00     0.019 A 
HETATM   14  C   UNL     1       4.675  29.842  57.092  1.00  0.00     0.001 A 
HETATM   15  C   UNL     1       4.136  28.974  56.146  1.00  0.00     0.001 A 
HETATM   16  C   UNL     1       4.969  28.085  55.473  1.00  0.00     0.018 A 
BRANCH  12  17
HETATM   17  S   UNL     1       8.624  28.955  57.178  1.00  0.00    -0.127 SA
BRANCH  17  18
HETATM   18  C   UNL     1       8.565  30.124  58.590  1.00  0.00     0.106 C 
BRANCH  18  19
HETATM   19  C   UNL     1       9.661  31.191  58.503  1.00  0.00     0.177 C 
BRANCH  19  20
HETATM   20  O   UNL     1       9.368  32.422  59.166  1.00  0.00    -0.395 OA
HETATM   21  C   UNL     1       8.314  32.328  60.114  1.00  0.00     0.201 C 
ENDBRANCH  19  20
ENDBRANCH  18  19
ENDBRANCH  17  18
ENDBRANCH  12  17
ENDBRANCH   8  11
ENDBRANCH   1   7
BRANCH   2  22
HETATM   22  C   UNL     1       5.754  25.011  52.759  1.00  0.00     0.254 C 
HETATM   23  N   UNL     1       5.997  25.681  51.578  1.00  0.00    -0.354 N 
HETATM   24  H   UNL     1       6.935  26.067  51.512  1.00  0.00     0.162 HD
HETATM   25  O   UNL     1       4.660  24.925  53.306  1.00  0.00    -0.268 OA
BRANCH  23  26
HETATM   26  C   UNL     1       4.956  26.529  51.026  1.00  0.00     0.155 C 
BRANCH  26  27
HETATM   27  C   UNL     1       5.073  26.647  49.500  1.00  0.00     0.139 C 
HETATM   28  O   UNL     1       5.177  28.041  49.137  1.00  0.00    -0.384 OA
HETATM   29  C   UNL     1       3.917  28.478  48.609  1.00  0.00     0.168 C 
HETATM   30  C   UNL     1       2.934  27.336  48.769  1.00  0.00     0.029 C 
HETATM   31  C   UNL     1       3.840  26.130  48.777  1.00  0.00     0.035 C 
ENDBRANCH  26  27
ENDBRANCH  23  26
ENDBRANCH   2  22
TORSDOF 9
ENDMDL
MODEL 3
REMARK VINA RESULT:      -7.6      2.369      6.628
REMARK  9 active torsions:
REMARK  status: ('A' for Active; 'I' for Inactive)
REMARK    1  A    between atoms: O_2  and  C_3 
REMARK    2  A    between atoms: C_3  and  C_4 
REMARK    3  A    between atoms: C_4  and  S_5 
REMARK    4  A    between atoms: S_5  and  C_6 
REMARK    5  A    between atoms: C_7  and  C_8 
REMARK       I    between atoms: C_8  and  N_9 
REMARK    6  A    between atoms: N_9  and  C_10 
REMARK    7  A    between atoms: C_11  and  C_12 
REMARK       I    between atoms: C_12  and  N_13 
REMARK    8  A    between atoms: N_13  and  C_14 
REMARK    9  A    between atoms: C_14  and  C_15 
ROOT
HETATM    1  C   UNL     1       5.522  26.693  51.464  1.00  0.00     0.050 A 
HETATM    2  C   UNL     1       5.164  28.031  51.701  1.00  0.00     0.058 A 
HETATM    3  C   UNL     1       4.436  28.755  50.744  1.00  0.00     0.019 A 
HETATM    4  C   UNL     1       4.045  28.142  49.555  1.00  0.00     0.001 A 
HETATM    5  C   UNL     1       4.357  26.802  49.331  1.00  0.00     0.002 A 
HETATM    6  C   UNL     1       5.081  26.079  50.284  1.00  0.00     0.030 A 
ENDROOT
BRANCH   1   7
HETATM    7  N   UNL     1       6.275  25.899  52.354  1.00  0.00    -0.322 N 
HETATM    8  C   UNL     1       5.739  24.899  53.142  1.00  0.00     0.257 C 
HETATM    9  O   UNL     1       4.552  24.726  53.384  1.00  0.00    -0.267 OA
HETATM   10  H   UNL     1       7.213  26.205  52.585  1.00  0.00     0.169 HD
BRANCH   8  11
HETATM   11  C   UNL     1       6.748  23.991  53.723  1.00  0.00     0.049 A 
HETATM   12  C   UNL     1       7.026  23.936  55.096  1.00  0.00     0.016 A 
HETATM   13  C   UNL     1       8.007  23.037  55.539  1.00  0.00     0.019 A 
HETATM   14  C   UNL     1       8.676  22.200  54.638  1.00  0.00     0.001 A 
HETATM   15  C   UNL     1       8.379  22.254  53.279  1.00  0.00     0.001 A 
HETATM   16  C   UNL     1       7.416  23.148  52.819  1.00  0.00     0.018 A 
BRANCH  12  17
HETATM   17  S   UNL     1       6.301  25.010  56.328  1.00  0.00    -0.127 SA
BRANCH  17  18
HETATM   18  C   UNL     1       7.511  26.388  56.330  1.00  0.00     0.106 C 
BRANCH  18  19
HETATM   19  C   UNL     1       7.685  27.003  57.722  1.00  0.00     0.177 C 
BRANCH  19  20
HETATM   20  O   UNL     1       8.469  28.196  57.770  1.00  0.00    -0.395 OA
HETATM   21  C   UNL     1       8.566  28.870  56.524  1.00  0.00     0.201 C 
ENDBRANCH  19  20
ENDBRANCH  18  19
ENDBRANCH  17  18
ENDBRANCH  12  17
ENDBRANCH   8  11
ENDBRANCH   1   7
BRANCH   2  22
HETATM   22  C   UNL     1       5.306  28.668  53.028  1.00  0.00     0.254 C 
HETATM   23  N   UNL     1       4.221  29.415  53.438  1.00  0.00    -0.354 N 
HETATM   24  H   UNL     1       3.711  29.849  52.672  1.00  0.00     0.162 HD
HETATM   25  O   UNL     1       6.329  28.500  53.683  1.00  0.00    -0.268 OA
BRANCH  23  26
HETATM   26  C   UNL     1       4.344  30.241  54.625  1.00  0.00     0.155 C 
BRANCH  26  27
HETATM   27  C   UNL     1       3.758  29.545  55.861  1.00  0.00     0.139 C 
HETATM   28  O   UNL     1       2.973  30.496  56.614  1.00  0.00    -0.384 OA
HETATM   29  C   UNL     1       3.720  30.901  57.770  1.00  0.00     0.168 C 
HETATM   30  C   UNL     1       5.096  30.274  57.669  1.00  0.00     0.029 C 
HETATM   31  C   UNL     1       4.832  29.056  56.820  1.00  0.00     0.035 C 
ENDBRANCH  26  27
ENDBRANCH  23  26
ENDBRANCH   2  22
TORSDOF 9
ENDMDL
MODEL 4
REMARK VINA RESULT:      -7.6      2.331      5.909
REMARK  9 active torsions:
REMARK  status: ('A' for Active; 'I' for Inactive)
REMARK    1  A    between atoms: O_2  and  C_3 
REMARK    2  A    between atoms: C_3  and  C_4 
REMARK    3  A    between atoms: C_4  and  S_5 
REMARK    4  A    between atoms: S_5  and  C_6 
REMARK    5  A    between atoms: C_7  and  C_8 
REMARK       I    between atoms: C_8  and  N_9 
REMARK    6  A    between atoms: N_9  and  C_10 
REMARK    7  A    between atoms: C_11  and  C_12 
REMARK       I    between atoms: C_12  and  N_13 
REMARK    8  A    between atoms: N_13  and  C_14 
REMARK    9  A    between atoms: C_14  and  C_15 
ROOT
HETATM    1  C   UNL     1       7.566  24.904  54.556  1.00  0.00     0.050 A 
HETATM    2  C   UNL     1       7.022  24.454  53.341  1.00  0.00     0.058 A 
HETATM    3  C   UNL     1       7.349  23.185  52.840  1.00  0.00     0.019 A 
HETATM    4  C   UNL     1       8.205  22.351  53.557  1.00  0.00     0.001 A 
HETATM    5  C   UNL     1       8.713  22.771  54.785  1.00  0.00     0.002 A 
HETATM    6  C   UNL     1       8.387  24.035  55.287  1.00  0.00     0.030 A 
ENDROOT
BRANCH   1   7
HETATM    7  N   UNL     1       7.316  26.172  55.121  1.00  0.00    -0.322 N 
HETATM    8  C   UNL     1       6.458  26.392  56.181  1.00  0.00     0.257 C 
HETATM    9  O   UNL     1       5.617  25.611  56.605  1.00  0.00    -0.267 OA
HETATM   10  H   UNL     1       7.616  26.990  54.603  1.00  0.00     0.169 HD
BRANCH   8  11
HETATM   11  C   UNL     1       6.616  27.717  56.813  1.00  0.00     0.049 A 
HETATM   12  C   UNL     1       5.683  28.753  56.659  1.00  0.00     0.016 A 
HETATM   13  C   UNL     1       5.936  29.973  57.304  1.00  0.00     0.019 A 
HETATM   14  C   UNL     1       7.075  30.146  58.097  1.00  0.00     0.001 A 
HETATM   15  C   UNL     1       7.986  29.104  58.254  1.00  0.00     0.001 A 
HETATM   16  C   UNL     1       7.758  27.889  57.613  1.00  0.00     0.018 A 
BRANCH  12  17
HETATM   17  S   UNL     1       4.240  28.680  55.608  1.00  0.00    -0.127 SA
BRANCH  17  18
HETATM   18  C   UNL     1       4.282  30.353  54.857  1.00  0.00     0.106 C 
BRANCH  18  19
HETATM   19  C   UNL     1       2.942  31.082  54.995  1.00  0.00     0.177 C 
BRANCH  19  20
HETATM   20  O   UNL     1       2.617  31.517  56.317  1.00  0.00    -0.395 OA
HETATM   21  C   UNL     1       3.409  32.603  56.776  1.00  0.00     0.201 C 
ENDBRANCH  19  20
ENDBRANCH  18  19
ENDBRANCH  17  18
ENDBRANCH  12  17
ENDBRANCH   8  11
ENDBRANCH   1   7
BRANCH   2  22
HETATM   22  C   UNL     1       5.914  25.158  52.659  1.00  0.00     0.254 C 
HETATM   23  N   UNL     1       6.212  25.636  51.400  1.00  0.00    -0.354 N 
HETATM   24  H   UNL     1       7.186  25.905  51.285  1.00  0.00     0.162 HD
HETATM   25  O   UNL     1       4.824  25.265  53.210  1.00  0.00    -0.268 OA
BRANCH  23  26
HETATM   26  C   UNL     1       5.263  26.513  50.738  1.00  0.00     0.155 C 
BRANCH  26  27
HETATM   27  C   UNL     1       5.427  27.970  51.194  1.00  0.00     0.139 C 
HETATM   28  O   UNL     1       4.290  28.345  52.003  1.00  0.00    -0.384 OA
HETATM   29  C   UNL     1       3.419  29.175  51.221  1.00  0.00     0.168 C 
HETATM   30  C   UNL     1       3.971  29.215  49.810  1.00  0.00     0.029 C 
HETATM   31  C   UNL     1       5.439  28.949  50.031  1.00  0.00     0.035 C 
ENDBRANCH  26  27
ENDBRANCH  23  26
ENDBRANCH   2  22
TORSDOF 9
ENDMDL
MODEL 5
REMARK VINA RESULT:      -7.2      3.709      6.687
REMARK  9 active torsions:
REMARK  status: ('A' for Active; 'I' for Inactive)
REMARK    1  A    between atoms: O_2  and  C_3 
REMARK    2  A    between atoms: C_3  and  C_4 
REMARK    3  A    between atoms: C_4  and  S_5 
REMARK    4  A    between atoms: S_5  and  C_6 
REMARK    5  A    between atoms: C_7  and  C_8 
REMARK       I    between atoms: C_8  and  N_9 
REMARK    6  A    between atoms: N_9  and  C_10 
REMARK    7  A    between atoms: C_11  and  C_12 
REMARK       I    between atoms: C_12  and  N_13 
REMARK    8  A    between atoms: N_13  and  C_14 
REMARK    9  A    between atoms: C_14  and  C_15 
ROOT
HETATM    1  C   UNL     1       8.795  29.175  56.723  1.00  0.00     0.050 A 
HETATM    2  C   UNL     1       8.075  29.948  57.650  1.00  0.00     0.058 A 
HETATM    3  C   UNL     1       8.741  30.843  58.502  1.00  0.00     0.019 A 
HETATM    4  C   UNL     1      10.125  30.986  58.420  1.00  0.00     0.001 A 
HETATM    5  C   UNL     1      10.841  30.256  57.473  1.00  0.00     0.002 A 
HETATM    6  C   UNL     1      10.180  29.365  56.622  1.00  0.00     0.030 A 
ENDROOT
BRANCH   1   7
HETATM    7  N   UNL     1       8.214  28.233  55.849  1.00  0.00    -0.322 N 
HETATM    8  C   UNL     1       7.856  26.951  56.219  1.00  0.00     0.257 C 
HETATM    9  O   UNL     1       8.208  26.366  57.235  1.00  0.00    -0.267 OA
HETATM   10  H   UNL     1       8.247  28.425  54.854  1.00  0.00     0.169 HD
BRANCH   8  11
HETATM   11  C   UNL     1       6.968  26.275  55.252  1.00  0.00     0.049 A 
HETATM   12  C   UNL     1       7.078  24.914  54.936  1.00  0.00     0.016 A 
HETATM   13  C   UNL     1       6.183  24.376  54.000  1.00  0.00     0.019 A 
HETATM   14  C   UNL     1       5.191  25.170  53.413  1.00  0.00     0.001 A 
HETATM   15  C   UNL     1       5.084  26.517  53.747  1.00  0.00     0.001 A 
HETATM   16  C   UNL     1       5.970  27.073  54.666  1.00  0.00     0.018 A 
BRANCH  12  17
HETATM   17  S   UNL     1       8.351  23.822  55.555  1.00  0.00    -0.127 SA
BRANCH  17  18
HETATM   18  C   UNL     1       7.834  22.235  54.795  1.00  0.00     0.106 C 
BRANCH  18  19
HETATM   19  C   UNL     1       8.832  21.107  55.078  1.00  0.00     0.177 C 
BRANCH  19  20
HETATM   20  O   UNL     1       8.824  20.034  54.134  1.00  0.00    -0.395 OA
HETATM   21  C   UNL     1       8.281  20.385  52.870  1.00  0.00     0.201 C 
ENDBRANCH  19  20
ENDBRANCH  18  19
ENDBRANCH  17  18
ENDBRANCH  12  17
ENDBRANCH   8  11
ENDBRANCH   1   7
BRANCH   2  22
HETATM   22  C   UNL     1       6.600  30.053  57.621  1.00  0.00     0.254 C 
HETATM   23  N   UNL     1       6.105  31.340  57.641  1.00  0.00    -0.354 N 
HETATM   24  H   UNL     1       6.692  31.996  58.151  1.00  0.00     0.162 HD
HETATM   25  O   UNL     1       5.914  29.038  57.567  1.00  0.00    -0.268 OA
BRANCH  23  26
HETATM   26  C   UNL     1       4.679  31.542  57.823  1.00  0.00     0.155 C 
BRANCH  26  27
HETATM   27  C   UNL     1       4.106  32.508  56.776  1.00  0.00     0.139 C 
HETATM   28  O   UNL     1       2.689  32.269  56.634  1.00  0.00    -0.384 OA
HETATM   29  C   UNL     1       2.461  31.549  55.414  1.00  0.00     0.168 C 
HETATM   30  C   UNL     1       3.814  31.204  54.828  1.00  0.00     0.029 C 
HETATM   31  C   UNL     1       4.696  32.289  55.393  1.00  0.00     0.035 C 
ENDBRANCH  26  27
ENDBRANCH  23  26
ENDBRANCH   2  22
TORSDOF 9
ENDMDL
MODEL 6
REMARK VINA RESULT:      -7.1      1.911      2.716
REMARK  9 active torsions:
REMARK  status: ('A' for Active; 'I' for Inactive)
REMARK    1  A    between atoms: O_2  and  C_3 
REMARK    2  A    between atoms: C_3  and  C_4 
REMARK    3  A    between atoms: C_4  and  S_5 
REMARK    4  A    between atoms: S_5  and  C_6 
REMARK    5  A    between atoms: C_7  and  C_8 
REMARK       I    between atoms: C_8  and  N_9 
REMARK    6  A    between atoms: N_9  and  C_10 
REMARK    7  A    between atoms: C_11  and  C_12 
REMARK       I    between atoms: C_12  and  N_13 
REMARK    8  A    between atoms: N_13  and  C_14 
REMARK    9  A    between atoms: C_14  and  C_15 
ROOT
HETATM    1  C   UNL     1       6.919  25.573  52.465  1.00  0.00     0.050 A 
HETATM    2  C   UNL     1       6.520  25.673  53.809  1.00  0.00     0.058 A 
HETATM    3  C   UNL     1       6.863  24.672  54.731  1.00  0.00     0.019 A 
HETATM    4  C   UNL     1       7.621  23.576  54.321  1.00  0.00     0.001 A 
HETATM    5  C   UNL     1       8.058  23.492  53.000  1.00  0.00     0.002 A 
HETATM    6  C   UNL     1       7.720  24.489  52.080  1.00  0.00     0.030 A 
ENDROOT
BRANCH   1   7
HETATM    7  N   UNL     1       6.597  26.515  51.466  1.00  0.00    -0.322 N 
HETATM    8  C   UNL     1       5.401  26.532  50.774  1.00  0.00     0.257 C 
HETATM    9  O   UNL     1       4.581  25.625  50.724  1.00  0.00    -0.267 OA
HETATM   10  H   UNL     1       7.348  27.081  51.088  1.00  0.00     0.169 HD
BRANCH   8  11
HETATM   11  C   UNL     1       5.153  27.788  50.039  1.00  0.00     0.049 A 
HETATM   12  C   UNL     1       4.664  27.821  48.725  1.00  0.00     0.016 A 
HETATM   13  C   UNL     1       4.468  29.072  48.121  1.00  0.00     0.019 A 
HETATM   14  C   UNL     1       4.732  30.257  48.818  1.00  0.00     0.001 A 
HETATM   15  C   UNL     1       5.204  30.210  50.127  1.00  0.00     0.001 A 
HETATM   16  C   UNL     1       5.415  28.977  50.740  1.00  0.00     0.018 A 
BRANCH  12  17
HETATM   17  S   UNL     1       4.370  26.380  47.709  1.00  0.00    -0.127 SA
BRANCH  17  18
HETATM   18  C   UNL     1       2.573  26.133  47.984  1.00  0.00     0.106 C 
BRANCH  18  19
HETATM   19  C   UNL     1       1.723  26.890  46.959  1.00  0.00     0.177 C 
BRANCH  19  20
HETATM   20  O   UNL     1       1.009  28.017  47.470  1.00  0.00    -0.395 OA
HETATM   21  C   UNL     1       0.972  29.126  46.583  1.00  0.00     0.201 C 
ENDBRANCH  19  20
ENDBRANCH  18  19
ENDBRANCH  17  18
ENDBRANCH  12  17
ENDBRANCH   8  11
ENDBRANCH   1   7
BRANCH   2  22
HETATM   22  C   UNL     1       5.950  26.913  54.378  1.00  0.00     0.254 C 
HETATM   23  N   UNL     1       6.821  27.659  55.145  1.00  0.00    -0.354 N 
HETATM   24  H   UNL     1       7.517  27.100  55.633  1.00  0.00     0.162 HD
HETATM   25  O   UNL     1       4.787  27.219  54.142  1.00  0.00    -0.268 OA
BRANCH  23  26
HETATM   26  C   UNL     1       6.302  28.777  55.911  1.00  0.00     0.155 C 
BRANCH  26  27
HETATM   27  C   UNL     1       6.611  28.630  57.408  1.00  0.00     0.139 C 
HETATM   28  O   UNL     1       6.664  29.940  58.013  1.00  0.00    -0.384 OA
HETATM   29  C   UNL     1       8.037  30.290  58.239  1.00  0.00     0.168 C 
HETATM   30  C   UNL     1       8.894  29.202  57.625  1.00  0.00     0.029 C 
HETATM   31  C   UNL     1       7.974  28.007  57.665  1.00  0.00     0.035 C 
ENDBRANCH  26  27
ENDBRANCH  23  26
ENDBRANCH   2  22
TORSDOF 9
ENDMDL
MODEL 7
REMARK VINA RESULT:      -7.1      2.952      6.980
REMARK  9 active torsions:
REMARK  status: ('A' for Active; 'I' for Inactive)
REMARK    1  A    between atoms: O_2  and  C_3 
REMARK    2  A    between atoms: C_3  and  C_4 
REMARK    3  A    between atoms: C_4  and  S_5 
REMARK    4  A    between atoms: S_5  and  C_6 
REMARK    5  A    between atoms: C_7  and  C_8 
REMARK       I    between atoms: C_8  and  N_9 
REMARK    6  A    between atoms: N_9  and  C_10 
REMARK    7  A    between atoms: C_11  and  C_12 
REMARK       I    between atoms: C_12  and  N_13 
REMARK    8  A    between atoms: N_13  and  C_14 
REMARK    9  A    between atoms: C_14  and  C_15 
ROOT
HETATM    1  C   UNL     1       7.242  28.555  56.885  1.00  0.00     0.050 A 
HETATM    2  C   UNL     1       6.177  29.464  57.000  1.00  0.00     0.058 A 
HETATM    3  C   UNL     1       6.221  30.498  57.948  1.00  0.00     0.019 A 
HETATM    4  C   UNL     1       7.336  30.641  58.773  1.00  0.00     0.001 A 
HETATM    5  C   UNL     1       8.416  29.771  58.635  1.00  0.00     0.002 A 
HETATM    6  C   UNL     1       8.375  28.741  57.689  1.00  0.00     0.030 A 
ENDROOT
BRANCH   1   7
HETATM    7  N   UNL     1       7.272  27.471  55.983  1.00  0.00    -0.322 N 
HETATM    8  C   UNL     1       6.671  26.250  56.219  1.00  0.00     0.257 C 
HETATM    9  O   UNL     1       6.268  25.838  57.298  1.00  0.00    -0.267 OA
HETATM   10  H   UNL     1       7.934  27.510  55.216  1.00  0.00     0.169 HD
BRANCH   8  11
HETATM   11  C   UNL     1       6.540  25.405  55.015  1.00  0.00     0.049 A 
HETATM   12  C   UNL     1       7.305  24.249  54.805  1.00  0.00     0.016 A 
HETATM   13  C   UNL     1       7.099  23.523  53.623  1.00  0.00     0.019 A 
HETATM   14  C   UNL     1       6.140  23.928  52.687  1.00  0.00     0.001 A 
HETATM   15  C   UNL     1       5.377  25.070  52.914  1.00  0.00     0.001 A 
HETATM   16  C   UNL     1       5.574  25.810  54.077  1.00  0.00     0.018 A 
BRANCH  12  17
HETATM   17  S   UNL     1       8.611  23.680  55.884  1.00  0.00    -0.127 SA
BRANCH  17  18
HETATM   18  C   UNL     1       8.186  21.902  56.022  1.00  0.00     0.106 C 
BRANCH  18  19
HETATM   19  C   UNL     1       9.221  21.005  55.334  1.00  0.00     0.177 C 
BRANCH  19  20
HETATM   20  O   UNL     1       8.681  19.916  54.583  1.00  0.00    -0.395 OA
HETATM   21  C   UNL     1       8.551  20.184  53.194  1.00  0.00     0.201 C 
ENDBRANCH  19  20
ENDBRANCH  18  19
ENDBRANCH  17  18
ENDBRANCH  12  17
ENDBRANCH   8  11
ENDBRANCH   1   7
BRANCH   2  22
HETATM   22  C   UNL     1       5.090  29.545  56.000  1.00  0.00     0.254 C 
HETATM   23  N   UNL     1       5.211  30.571  55.087  1.00  0.00    -0.354 N 
HETATM   24  H   UNL     1       5.678  31.395  55.457  1.00  0.00     0.162 HD
HETATM   25  O   UNL     1       4.180  28.723  56.016  1.00  0.00    -0.268 OA
BRANCH  23  26
HETATM   26  C   UNL     1       4.098  30.858  54.200  1.00  0.00     0.155 C 
BRANCH  26  27
HETATM   27  C   UNL     1       4.459  30.587  52.733  1.00  0.00     0.139 C 
HETATM   28  O   UNL     1       3.288  30.786  51.911  1.00  0.00    -0.384 OA
HETATM   29  C   UNL     1       2.762  29.505  51.534  1.00  0.00     0.168 C 
HETATM   30  C   UNL     1       3.567  28.449  52.264  1.00  0.00     0.029 C 
HETATM   31  C   UNL     1       4.884  29.147  52.492  1.00  0.00     0.035 C 
ENDBRANCH  26  27
ENDBRANCH  23  26
ENDBRANCH   2  22
TORSDOF 9
ENDMDL
MODEL 8
REMARK VINA RESULT:      -7.0      1.869      4.768
REMARK  9 active torsions:
REMARK  status: ('A' for Active; 'I' for Inactive)
REMARK    1  A    between atoms: O_2  and  C_3 
REMARK    2  A    between atoms: C_3  and  C_4 
REMARK    3  A    between atoms: C_4  and  S_5 
REMARK    4  A    between atoms: S_5  and  C_6 
REMARK    5  A    between atoms: C_7  and  C_8 
REMARK       I    between atoms: C_8  and  N_9 
REMARK    6  A    between atoms: N_9  and  C_10 
REMARK    7  A    between atoms: C_11  and  C_12 
REMARK       I    between atoms: C_12  and  N_13 
REMARK    8  A    between atoms: N_13  and  C_14 
REMARK    9  A    between atoms: C_14  and  C_15 
ROOT
HETATM    1  C   UNL     1       6.463  28.589  55.149  1.00  0.00     0.050 A 
HETATM    2  C   UNL     1       7.345  27.505  55.288  1.00  0.00     0.058 A 
HETATM    3  C   UNL     1       7.916  27.205  56.535  1.00  0.00     0.019 A 
HETATM    4  C   UNL     1       7.594  27.974  57.652  1.00  0.00     0.001 A 
HETATM    5  C   UNL     1       6.685  29.024  57.532  1.00  0.00     0.002 A 
HETATM    6  C   UNL     1       6.114  29.323  56.291  1.00  0.00     0.030 A 
ENDROOT
BRANCH   1   7
HETATM    7  N   UNL     1       5.866  28.980  53.932  1.00  0.00    -0.322 N 
HETATM    8  C   UNL     1       4.588  28.624  53.547  1.00  0.00     0.257 C 
HETATM    9  O   UNL     1       3.902  27.741  54.045  1.00  0.00    -0.267 OA
HETATM   10  H   UNL     1       6.465  29.366  53.212  1.00  0.00     0.169 HD
BRANCH   8  11
HETATM   11  C   UNL     1       4.060  29.417  52.419  1.00  0.00     0.049 A 
HETATM   12  C   UNL     1       4.093  28.970  51.090  1.00  0.00     0.016 A 
HETATM   13  C   UNL     1       3.565  29.807  50.096  1.00  0.00     0.019 A 
HETATM   14  C   UNL     1       3.002  31.046  50.422  1.00  0.00     0.001 A 
HETATM   15  C   UNL     1       2.963  31.471  51.747  1.00  0.00     0.001 A 
HETATM   16  C   UNL     1       3.491  30.658  52.748  1.00  0.00     0.018 A 
BRANCH  12  17
HETATM   17  S   UNL     1       4.859  27.451  50.543  1.00  0.00    -0.127 SA
BRANCH  17  18
HETATM   18  C   UNL     1       4.940  27.745  48.734  1.00  0.00     0.106 C 
BRANCH  18  19
HETATM   19  C   UNL     1       4.604  26.486  47.928  1.00  0.00     0.177 C 
BRANCH  19  20
HETATM   20  O   UNL     1       3.636  26.664  46.892  1.00  0.00    -0.395 OA
HETATM   21  C   UNL     1       2.303  26.389  47.297  1.00  0.00     0.201 C 
ENDBRANCH  19  20
ENDBRANCH  18  19
ENDBRANCH  17  18
ENDBRANCH  12  17
ENDBRANCH   8  11
ENDBRANCH   1   7
BRANCH   2  22
HETATM   22  C   UNL     1       7.531  26.490  54.228  1.00  0.00     0.254 C 
HETATM   23  N   UNL     1       7.623  25.188  54.673  1.00  0.00    -0.354 N 
HETATM   24  H   UNL     1       8.042  25.101  55.596  1.00  0.00     0.162 HD
HETATM   25  O   UNL     1       7.577  26.834  53.052  1.00  0.00    -0.268 OA
BRANCH  23  26
HETATM   26  C   UNL     1       8.010  24.150  53.735  1.00  0.00     0.155 C 
BRANCH  26  27
HETATM   27  C   UNL     1       7.297  22.824  54.034  1.00  0.00     0.139 C 
HETATM   28  O   UNL     1       7.284  22.602  55.461  1.00  0.00    -0.384 OA
HETATM   29  C   UNL     1       8.268  21.610  55.784  1.00  0.00     0.168 C 
HETATM   30  C   UNL     1       9.028  21.288  54.514  1.00  0.00     0.029 C 
HETATM   31  C   UNL     1       8.021  21.625  53.443  1.00  0.00     0.035 C 
ENDBRANCH  26  27
ENDBRANCH  23  26
ENDBRANCH   2  22
TORSDOF 9
ENDMDL
MODEL 9
REMARK VINA RESULT:      -6.9      8.904     13.374
REMARK  9 active torsions:
REMARK  status: ('A' for Active; 'I' for Inactive)
REMARK    1  A    between atoms: O_2  and  C_3 
REMARK    2  A    between atoms: C_3  and  C_4 
REMARK    3  A    between atoms: C_4  and  S_5 
REMARK    4  A    between atoms: S_5  and  C_6 
REMARK    5  A    between atoms: C_7  and  C_8 
REMARK       I    between atoms: C_8  and  N_9 
REMARK    6  A    between atoms: N_9  and  C_10 
REMARK    7  A    between atoms: C_11  and  C_12 
REMARK       I    between atoms: C_12  and  N_13 
REMARK    8  A    between atoms: N_13  and  C_14 
REMARK    9  A    between atoms: C_14  and  C_15 
ROOT
HETATM    1  C   UNL     1       5.509  34.462  64.872  1.00  0.00     0.050 A 
HETATM    2  C   UNL     1       4.968  35.736  64.628  1.00  0.00     0.058 A 
HETATM    3  C   UNL     1       4.015  36.285  65.500  1.00  0.00     0.019 A 
HETATM    4  C   UNL     1       3.612  35.575  66.630  1.00  0.00     0.001 A 
HETATM    5  C   UNL     1       4.177  34.331  66.903  1.00  0.00     0.002 A 
HETATM    6  C   UNL     1       5.128  33.783  66.037  1.00  0.00     0.030 A 
ENDROOT
BRANCH   1   7
HETATM    7  N   UNL     1       6.448  33.821  64.037  1.00  0.00    -0.322 N 
HETATM    8  C   UNL     1       6.169  32.704  63.273  1.00  0.00     0.257 C 
HETATM    9  O   UNL     1       5.198  31.970  63.393  1.00  0.00    -0.267 OA
HETATM   10  H   UNL     1       7.426  34.059  64.153  1.00  0.00     0.169 HD
BRANCH   8  11
HETATM   11  C   UNL     1       7.182  32.421  62.236  1.00  0.00     0.049 A 
HETATM   12  C   UNL     1       6.925  32.546  60.863  1.00  0.00     0.016 A 
HETATM   13  C   UNL     1       7.961  32.248  59.966  1.00  0.00     0.019 A 
HETATM   14  C   UNL     1       9.224  31.859  60.427  1.00  0.00     0.001 A 
HETATM   15  C   UNL     1       9.469  31.753  61.793  1.00  0.00     0.001 A 
HETATM   16  C   UNL     1       8.450  32.034  62.700  1.00  0.00     0.018 A 
BRANCH  12  17
HETATM   17  S   UNL     1       5.336  32.952  60.155  1.00  0.00    -0.127 SA
BRANCH  17  18
HETATM   18  C   UNL     1       5.554  32.320  58.447  1.00  0.00     0.106 C 
BRANCH  18  19
HETATM   19  C   UNL     1       4.613  31.151  58.139  1.00  0.00     0.177 C 
BRANCH  19  20
HETATM   20  O   UNL     1       5.151  30.143  57.282  1.00  0.00    -0.395 OA
HETATM   21  C   UNL     1       6.491  29.783  57.587  1.00  0.00     0.201 C 
ENDBRANCH  19  20
ENDBRANCH  18  19
ENDBRANCH  17  18
ENDBRANCH  12  17
ENDBRANCH   8  11
ENDBRANCH   1   7
BRANCH   2  22
HETATM   22  C   UNL     1       5.528  36.656  63.613  1.00  0.00     0.254 C 
HETATM   23  N   UNL     1       6.089  37.810  64.117  1.00  0.00    -0.354 N 
HETATM   24  H   UNL     1       5.649  38.139  64.973  1.00  0.00     0.162 HD
HETATM   25  O   UNL     1       5.484  36.358  62.425  1.00  0.00    -0.268 OA
BRANCH  23  26
HETATM   26  C   UNL     1       6.477  38.863  63.196  1.00  0.00     0.155 C 
BRANCH  26  27
HETATM   27  C   UNL     1       6.000  40.240  63.678  1.00  0.00     0.139 C 
HETATM   28  O   UNL     1       5.405  40.951  62.570  1.00  0.00    -0.384 OA
HETATM   29  C   UNL     1       6.329  41.948  62.110  1.00  0.00     0.168 C 
HETATM   30  C   UNL     1       7.619  41.766  62.882  1.00  0.00     0.029 C 
HETATM   31  C   UNL     1       7.143  41.120  64.158  1.00  0.00     0.035 C 
ENDBRANCH  26  27
ENDBRANCH  23  26
ENDBRANCH   2  22
TORSDOF 9
ENDMDL
MODEL 10
REMARK VINA RESULT:      -6.6      2.697      7.166
REMARK  9 active torsions:
REMARK  status: ('A' for Active; 'I' for Inactive)
REMARK    1  A    between atoms: O_2  and  C_3 
REMARK    2  A    between atoms: C_3  and  C_4 
REMARK    3  A    between atoms: C_4  and  S_5 
REMARK    4  A    between atoms: S_5  and  C_6 
REMARK    5  A    between atoms: C_7  and  C_8 
REMARK       I    between atoms: C_8  and  N_9 
REMARK    6  A    between atoms: N_9  and  C_10 
REMARK    7  A    between atoms: C_11  and  C_12 
REMARK       I    between atoms: C_12  and  N_13 
REMARK    8  A    between atoms: N_13  and  C_14 
REMARK    9  A    between atoms: C_14  and  C_15 
ROOT
HETATM    1  C   UNL     1       4.962  26.974  50.029  1.00  0.00     0.050 A 
HETATM    2  C   UNL     1       4.683  28.331  49.792  1.00  0.00     0.058 A 
HETATM    3  C   UNL     1       3.854  28.713  48.726  1.00  0.00     0.019 A 
HETATM    4  C   UNL     1       3.285  27.743  47.902  1.00  0.00     0.001 A 
HETATM    5  C   UNL     1       3.521  26.394  48.157  1.00  0.00     0.002 A 
HETATM    6  C   UNL     1       4.345  26.010  49.220  1.00  0.00     0.030 A 
ENDROOT
BRANCH   1   7
HETATM    7  N   UNL     1       5.804  26.501  51.057  1.00  0.00    -0.322 N 
HETATM    8  C   UNL     1       5.376  26.220  52.340  1.00  0.00     0.257 C 
HETATM    9  O   UNL     1       4.317  26.571  52.843  1.00  0.00    -0.267 OA
HETATM   10  H   UNL     1       6.806  26.562  50.916  1.00  0.00     0.169 HD
BRANCH   8  11
HETATM   11  C   UNL     1       6.338  25.425  53.130  1.00  0.00     0.049 A 
HETATM   12  C   UNL     1       7.033  25.943  54.233  1.00  0.00     0.016 A 
HETATM   13  C   UNL     1       7.925  25.098  54.910  1.00  0.00     0.019 A 
HETATM   14  C   UNL     1       8.102  23.769  54.511  1.00  0.00     0.001 A 
HETATM   15  C   UNL     1       7.394  23.263  53.423  1.00  0.00     0.001 A 
HETATM   16  C   UNL     1       6.511  24.089  52.731  1.00  0.00     0.018 A 
BRANCH  12  17
HETATM   17  S   UNL     1       6.954  27.641  54.784  1.00  0.00    -0.127 SA
BRANCH  17  18
HETATM   18  C   UNL     1       7.162  27.420  56.592  1.00  0.00     0.106 C 
BRANCH  18  19
HETATM   19  C   UNL     1       8.513  27.947  57.088  1.00  0.00     0.177 C 
BRANCH  19  20
HETATM   20  O   UNL     1       8.848  29.267  56.656  1.00  0.00    -0.395 OA
HETATM   21  C   UNL     1       9.881  29.876  57.418  1.00  0.00     0.201 C 
ENDBRANCH  19  20
ENDBRANCH  18  19
ENDBRANCH  17  18
ENDBRANCH  12  17
ENDBRANCH   8  11
ENDBRANCH   1   7
BRANCH   2  22
HETATM   22  C   UNL     1       5.025  29.393  50.763  1.00  0.00     0.254 C 
HETATM   23  N   UNL     1       4.019  30.304  51.012  1.00  0.00    -0.354 N 
HETATM   24  H   UNL     1       3.407  30.464  50.216  1.00  0.00     0.162 HD
HETATM   25  O   UNL     1       6.131  29.408  51.292  1.00  0.00    -0.268 OA
BRANCH  23  26
HETATM   26  C   UNL     1       4.324  31.493  51.786  1.00  0.00     0.155 C 
BRANCH  26  27
HETATM   27  C   UNL     1       3.397  31.629  53.003  1.00  0.00     0.139 C 
HETATM   28  O   UNL     1       3.934  32.625  53.900  1.00  0.00    -0.384 OA
HETATM   29  C   UNL     1       4.539  31.963  55.019  1.00  0.00     0.168 C 
HETATM   30  C   UNL     1       4.497  30.473  54.746  1.00  0.00     0.029 C 
HETATM   31  C   UNL     1       3.314  30.350  53.820  1.00  0.00     0.035 C 
ENDBRANCH  26  27
ENDBRANCH  23  26
ENDBRANCH   2  22
TORSDOF 9
ENDMDL
