MODEL 1
REMARK VINA RESULT:     -10.1      0.000      0.000
REMARK  3 active torsions:
REMARK  status: ('A' for Active; 'I' for Inactive)
REMARK    1  A    between atoms: C_3  and  C_4 
REMARK       I    between atoms: C_4  and  N_5 
REMARK    2  A    between atoms: N_5  and  C_6 
REMARK    3  A    between atoms: C_13  and  C_14 
REMARK       I    between atoms: C_14  and  N_15 
ROOT
HETATM    1  C   UNL     1       8.849  28.733  56.861  1.00  0.00     0.035 A 
HETATM    2  C   UNL     1       8.099  29.486  57.779  1.00  0.00     0.046 A 
HETATM    3  C   UNL     1       8.687  30.597  58.420  1.00  0.00     0.030 A 
HETATM    4  C   UNL     1      10.005  30.915  58.128  1.00  0.00     0.063 A 
HETATM    5  N   UNL     1      10.291  32.013  58.890  1.00  0.00    -0.277 N 
HETATM    6  H   UNL     1      11.169  32.518  58.935  1.00  0.00     0.189 HD
HETATM    7  N   UNL     1       9.267  32.445  59.648  1.00  0.00    -0.168 NA
HETATM    8  C   UNL     1       8.269  31.577  59.367  1.00  0.00     0.156 A 
HETATM    9  C   UNL     1      10.781  30.186  57.223  1.00  0.00     0.034 A 
HETATM   10  C   UNL     1      10.172  29.091  56.594  1.00  0.00     0.032 A 
ENDROOT
BRANCH   1  11
HETATM   11  N   UNL     1       8.197  27.640  56.258  1.00  0.00    -0.325 N 
HETATM   12  C   UNL     1       7.275  27.652  55.225  1.00  0.00     0.252 C 
HETATM   13  O   UNL     1       6.827  28.645  54.658  1.00  0.00    -0.270 OA
HETATM   14  H   UNL     1       8.455  26.713  56.591  1.00  0.00     0.169 HD
BRANCH  12  15
HETATM   15  C   UNL     1       6.758  26.252  54.875  1.00  0.00     0.229 C 
HETATM   16  C   UNL     1       7.117  25.258  55.996  1.00  0.00     0.056 C 
HETATM   17  C   UNL     1       6.004  25.099  57.020  1.00  0.00     0.018 C 
HETATM   18  C   UNL     1       7.380  24.054  55.162  1.00  0.00    -0.018 A 
HETATM   19  C   UNL     1       7.522  24.441  53.838  1.00  0.00     0.076 A 
HETATM   20  C   UNL     1       7.546  22.730  55.529  1.00  0.00     0.010 A 
HETATM   21  O   UNL     1       7.349  25.784  53.633  1.00  0.00    -0.335 OA
HETATM   22  C   UNL     1       7.833  23.542  52.839  1.00  0.00     0.037 A 
HETATM   23  C   UNL     1       7.991  22.202  53.195  1.00  0.00     0.003 A 
HETATM   24  C   UNL     1       7.847  21.798  54.532  1.00  0.00     0.001 A 
ENDBRANCH  12  15
ENDBRANCH   1  11
BRANCH   8  25
HETATM   25  C   UNL     1       6.947  31.700  59.996  1.00  0.00     0.270 C 
HETATM   26  N   UNL     1       6.902  31.270  61.294  1.00  0.00    -0.365 N 
HETATM   27  H   UNL     1       7.752  30.914  61.716  1.00  0.00     0.159 HD
HETATM   28  H   UNL     1       6.040  31.322  61.811  1.00  0.00     0.159 HD
HETATM   29  O   UNL     1       5.951  32.146  59.436  1.00  0.00    -0.266 OA
ENDBRANCH   8  25
TORSDOF 3
ENDMDL
MODEL 2
REMARK VINA RESULT:     -10.0      2.059      3.150
REMARK  3 active torsions:
REMARK  status: ('A' for Active; 'I' for Inactive)
REMARK    1  A    between atoms: C_3  and  C_4 
REMARK       I    between atoms: C_4  and  N_5 
REMARK    2  A    between atoms: N_5  and  C_6 
REMARK    3  A    between atoms: C_13  and  C_14 
REMARK       I    between atoms: C_14  and  N_15 
ROOT
HETATM    1  C   UNL     1       6.914  28.073  56.734  1.00  0.00     0.035 A 
HETATM    2  C   UNL     1       7.790  28.953  57.390  1.00  0.00     0.046 A 
HETATM    3  C   UNL     1       7.294  30.152  57.943  1.00  0.00     0.030 A 
HETATM    4  C   UNL     1       5.942  30.437  57.816  1.00  0.00     0.063 A 
HETATM    5  N   UNL     1       5.766  31.642  58.434  1.00  0.00    -0.277 N 
HETATM    6  H   UNL     1       4.900  32.162  58.532  1.00  0.00     0.189 HD
HETATM    7  N   UNL     1       6.887  32.167  58.961  1.00  0.00    -0.168 NA
HETATM    8  C   UNL     1       7.839  31.255  58.664  1.00  0.00     0.156 A 
HETATM    9  C   UNL     1       5.044  29.586  57.168  1.00  0.00     0.034 A 
HETATM   10  C   UNL     1       5.559  28.397  56.633  1.00  0.00     0.032 A 
ENDROOT
BRANCH   1  11
HETATM   11  N   UNL     1       7.478  26.894  56.209  1.00  0.00    -0.325 N 
HETATM   12  C   UNL     1       7.069  25.586  56.402  1.00  0.00     0.252 C 
HETATM   13  O   UNL     1       6.138  25.208  57.109  1.00  0.00    -0.270 OA
HETATM   14  H   UNL     1       8.266  27.007  55.575  1.00  0.00     0.169 HD
BRANCH  12  15
HETATM   15  C   UNL     1       7.972  24.570  55.693  1.00  0.00     0.229 C 
HETATM   16  C   UNL     1       7.375  24.195  54.323  1.00  0.00     0.056 C 
HETATM   17  C   UNL     1       7.925  25.046  53.188  1.00  0.00     0.018 C 
HETATM   18  C   UNL     1       7.770  22.762  54.282  1.00  0.00    -0.018 A 
HETATM   19  C   UNL     1       8.150  22.359  55.554  1.00  0.00     0.076 A 
HETATM   20  C   UNL     1       7.744  21.856  53.236  1.00  0.00     0.010 A 
HETATM   21  O   UNL     1       8.106  23.361  56.487  1.00  0.00    -0.335 OA
HETATM   22  C   UNL     1       8.512  21.058  55.835  1.00  0.00     0.037 A 
HETATM   23  C   UNL     1       8.502  20.138  54.786  1.00  0.00     0.003 A 
HETATM   24  C   UNL     1       8.121  20.535  53.494  1.00  0.00     0.001 A 
ENDBRANCH  12  15
ENDBRANCH   1  11
BRANCH   8  25
HETATM   25  C   UNL     1       9.237  31.446  59.073  1.00  0.00     0.270 C 
HETATM   26  N   UNL     1       9.569  30.825  60.246  1.00  0.00    -0.365 N 
HETATM   27  H   UNL     1       8.854  30.294  60.731  1.00  0.00     0.159 HD
HETATM   28  H   UNL     1      10.507  30.893  60.603  1.00  0.00     0.159 HD
HETATM   29  O   UNL     1      10.062  32.097  58.440  1.00  0.00    -0.266 OA
ENDBRANCH   8  25
TORSDOF 3
ENDMDL
MODEL 3
REMARK VINA RESULT:      -9.4      5.938      8.402
REMARK  3 active torsions:
REMARK  status: ('A' for Active; 'I' for Inactive)
REMARK    1  A    between atoms: C_3  and  C_4 
REMARK       I    between atoms: C_4  and  N_5 
REMARK    2  A    between atoms: N_5  and  C_6 
REMARK    3  A    between atoms: C_13  and  C_14 
REMARK       I    between atoms: C_14  and  N_15 
ROOT
HETATM    1  C   UNL     1       5.339  26.597  51.322  1.00  0.00     0.035 A 
HETATM    2  C   UNL     1       4.621  26.312  50.149  1.00  0.00     0.046 A 
HETATM    3  C   UNL     1       4.333  27.347  49.235  1.00  0.00     0.030 A 
HETATM    4  C   UNL     1       4.764  28.634  49.525  1.00  0.00     0.063 A 
HETATM    5  N   UNL     1       4.341  29.403  48.478  1.00  0.00    -0.277 N 
HETATM    6  H   UNL     1       4.477  30.400  48.355  1.00  0.00     0.189 HD
HETATM    7  N   UNL     1       3.677  28.726  47.524  1.00  0.00    -0.168 NA
HETATM    8  C   UNL     1       3.665  27.454  47.980  1.00  0.00     0.156 A 
HETATM    9  C   UNL     1       5.477  28.953  50.683  1.00  0.00     0.034 A 
HETATM   10  C   UNL     1       5.757  27.906  51.573  1.00  0.00     0.032 A 
ENDROOT
BRANCH   1  11
HETATM   11  N   UNL     1       5.592  25.516  52.187  1.00  0.00    -0.325 N 
HETATM   12  C   UNL     1       6.811  25.062  52.661  1.00  0.00     0.252 C 
HETATM   13  O   UNL     1       7.918  25.514  52.381  1.00  0.00    -0.270 OA
HETATM   14  H   UNL     1       4.781  25.016  52.545  1.00  0.00     0.169 HD
BRANCH  12  15
HETATM   15  C   UNL     1       6.677  23.823  53.554  1.00  0.00     0.229 C 
HETATM   16  C   UNL     1       7.434  24.037  54.878  1.00  0.00     0.056 C 
HETATM   17  C   UNL     1       6.542  24.577  55.985  1.00  0.00     0.018 C 
HETATM   18  C   UNL     1       7.929  22.651  55.090  1.00  0.00    -0.018 A 
HETATM   19  C   UNL     1       7.798  21.937  53.908  1.00  0.00     0.076 A 
HETATM   20  C   UNL     1       8.508  22.067  56.203  1.00  0.00     0.010 A 
HETATM   21  O   UNL     1       7.227  22.652  52.890  1.00  0.00    -0.335 OA
HETATM   22  C   UNL     1       8.232  20.633  53.785  1.00  0.00     0.037 A 
HETATM   23  C   UNL     1       8.806  20.029  54.905  1.00  0.00     0.003 A 
HETATM   24  C   UNL     1       8.943  20.743  56.107  1.00  0.00     0.001 A 
ENDBRANCH  12  15
ENDBRANCH   1  11
BRANCH   8  25
HETATM   25  C   UNL     1       3.027  26.372  47.217  1.00  0.00     0.270 C 
HETATM   26  N   UNL     1       1.811  26.703  46.686  1.00  0.00    -0.365 N 
HETATM   27  H   UNL     1       1.449  27.637  46.847  1.00  0.00     0.159 HD
HETATM   28  H   UNL     1       1.300  26.029  46.139  1.00  0.00     0.159 HD
HETATM   29  O   UNL     1       3.516  25.260  47.048  1.00  0.00    -0.266 OA
ENDBRANCH   8  25
TORSDOF 3
ENDMDL
MODEL 4
REMARK VINA RESULT:      -9.3      3.210      8.598
REMARK  3 active torsions:
REMARK  status: ('A' for Active; 'I' for Inactive)
REMARK    1  A    between atoms: C_3  and  C_4 
REMARK       I    between atoms: C_4  and  N_5 
REMARK    2  A    between atoms: N_5  and  C_6 
REMARK    3  A    between atoms: C_13  and  C_14 
REMARK       I    between atoms: C_14  and  N_15 
ROOT
HETATM    1  C   UNL     1       7.080  25.087  55.332  1.00  0.00     0.035 A 
HETATM    2  C   UNL     1       7.580  23.863  55.805  1.00  0.00     0.046 A 
HETATM    3  C   UNL     1       7.792  22.797  54.904  1.00  0.00     0.030 A 
HETATM    4  C   UNL     1       7.491  22.987  53.563  1.00  0.00     0.063 A 
HETATM    5  N   UNL     1       7.790  21.802  52.953  1.00  0.00    -0.277 N 
HETATM    6  H   UNL     1       7.691  21.575  51.969  1.00  0.00     0.189 HD
HETATM    7  N   UNL     1       8.270  20.856  53.780  1.00  0.00    -0.168 NA
HETATM    8  C   UNL     1       8.276  21.459  54.990  1.00  0.00     0.156 A 
HETATM    9  C   UNL     1       6.989  24.189  53.060  1.00  0.00     0.034 A 
HETATM   10  C   UNL     1       6.794  25.235  53.973  1.00  0.00     0.032 A 
ENDROOT
BRANCH   1  11
HETATM   11  N   UNL     1       6.896  26.105  56.286  1.00  0.00    -0.325 N 
HETATM   12  C   UNL     1       7.376  27.403  56.261  1.00  0.00     0.252 C 
HETATM   13  O   UNL     1       8.092  27.901  55.395  1.00  0.00    -0.270 OA
HETATM   14  H   UNL     1       6.306  25.883  57.085  1.00  0.00     0.169 HD
BRANCH  12  15
HETATM   15  C   UNL     1       6.996  28.202  57.513  1.00  0.00     0.229 C 
HETATM   16  C   UNL     1       6.308  29.521  57.112  1.00  0.00     0.056 C 
HETATM   17  C   UNL     1       4.792  29.407  57.074  1.00  0.00     0.018 C 
HETATM   18  C   UNL     1       6.845  30.398  58.187  1.00  0.00    -0.018 A 
HETATM   19  C   UNL     1       7.918  29.764  58.796  1.00  0.00     0.076 A 
HETATM   20  C   UNL     1       6.474  31.676  58.568  1.00  0.00     0.010 A 
HETATM   21  O   UNL     1       8.177  28.515  58.299  1.00  0.00    -0.335 OA
HETATM   22  C   UNL     1       8.656  30.366  59.794  1.00  0.00     0.037 A 
HETATM   23  C   UNL     1       8.284  31.650  60.196  1.00  0.00     0.003 A 
HETATM   24  C   UNL     1       7.199  32.300  59.587  1.00  0.00     0.001 A 
ENDBRANCH  12  15
ENDBRANCH   1  11
BRANCH   8  25
HETATM   25  C   UNL     1       8.742  20.757  56.194  1.00  0.00     0.270 C 
HETATM   26  N   UNL     1       9.806  19.924  55.980  1.00  0.00    -0.365 N 
HETATM   27  H   UNL     1      10.185  19.854  55.042  1.00  0.00     0.159 HD
HETATM   28  H   UNL     1      10.200  19.405  56.747  1.00  0.00     0.159 HD
HETATM   29  O   UNL     1       8.246  20.886  57.308  1.00  0.00    -0.266 OA
ENDBRANCH   8  25
TORSDOF 3
ENDMDL
MODEL 5
REMARK VINA RESULT:      -9.3      3.390      6.104
REMARK  3 active torsions:
REMARK  status: ('A' for Active; 'I' for Inactive)
REMARK    1  A    between atoms: C_3  and  C_4 
REMARK       I    between atoms: C_4  and  N_5 
REMARK    2  A    between atoms: N_5  and  C_6 
REMARK    3  A    between atoms: C_13  and  C_14 
REMARK       I    between atoms: C_14  and  N_15 
ROOT
HETATM    1  C   UNL     1       7.068  31.953  61.598  1.00  0.00     0.035 A 
HETATM    2  C   UNL     1       5.848  32.596  61.862  1.00  0.00     0.046 A 
HETATM    3  C   UNL     1       5.682  33.317  63.064  1.00  0.00     0.030 A 
HETATM    4  C   UNL     1       6.737  33.366  63.964  1.00  0.00     0.063 A 
HETATM    5  N   UNL     1       6.284  34.117  65.012  1.00  0.00    -0.277 N 
HETATM    6  H   UNL     1       6.789  34.359  65.858  1.00  0.00     0.189 HD
HETATM    7  N   UNL     1       5.026  34.571  64.869  1.00  0.00    -0.168 NA
HETATM    8  C   UNL     1       4.643  34.083  63.667  1.00  0.00     0.156 A 
HETATM    9  C   UNL     1       7.961  32.735  63.735  1.00  0.00     0.034 A 
HETATM   10  C   UNL     1       8.105  32.031  62.532  1.00  0.00     0.032 A 
ENDROOT
BRANCH   1  11
HETATM   11  N   UNL     1       7.164  31.255  60.380  1.00  0.00    -0.325 N 
HETATM   12  C   UNL     1       7.995  31.514  59.303  1.00  0.00     0.252 C 
HETATM   13  O   UNL     1       8.795  32.441  59.205  1.00  0.00    -0.270 OA
HETATM   14  H   UNL     1       6.578  30.429  60.278  1.00  0.00     0.169 HD
BRANCH  12  15
HETATM   15  C   UNL     1       7.771  30.548  58.134  1.00  0.00     0.229 C 
HETATM   16  C   UNL     1       6.263  30.336  57.902  1.00  0.00     0.056 C 
HETATM   17  C   UNL     1       5.689  31.280  56.857  1.00  0.00     0.018 C 
HETATM   18  C   UNL     1       6.289  28.902  57.507  1.00  0.00    -0.018 A 
HETATM   19  C   UNL     1       7.519  28.359  57.850  1.00  0.00     0.076 A 
HETATM   20  C   UNL     1       5.301  28.109  56.949  1.00  0.00     0.010 A 
HETATM   21  O   UNL     1       8.385  29.260  58.409  1.00  0.00    -0.335 OA
HETATM   22  C   UNL     1       7.812  27.025  57.656  1.00  0.00     0.037 A 
HETATM   23  C   UNL     1       6.828  26.218  57.083  1.00  0.00     0.003 A 
HETATM   24  C   UNL     1       5.580  26.758  56.731  1.00  0.00     0.001 A 
ENDBRANCH  12  15
ENDBRANCH   1  11
BRANCH   8  25
HETATM   25  C   UNL     1       3.307  34.357  63.120  1.00  0.00     0.270 C 
HETATM   26  N   UNL     1       2.489  33.262  63.062  1.00  0.00    -0.365 N 
HETATM   27  H   UNL     1       2.848  32.372  63.391  1.00  0.00     0.159 HD
HETATM   28  H   UNL     1       1.552  33.352  62.709  1.00  0.00     0.159 HD
HETATM   29  O   UNL     1       2.925  35.460  62.742  1.00  0.00    -0.266 OA
ENDBRANCH   8  25
TORSDOF 3
ENDMDL
MODEL 6
REMARK VINA RESULT:      -9.1      5.148      8.267
REMARK  3 active torsions:
REMARK  status: ('A' for Active; 'I' for Inactive)
REMARK    1  A    between atoms: C_3  and  C_4 
REMARK       I    between atoms: C_4  and  N_5 
REMARK    2  A    between atoms: N_5  and  C_6 
REMARK    3  A    between atoms: C_13  and  C_14 
REMARK       I    between atoms: C_14  and  N_15 
ROOT
HETATM    1  C   UNL     1       7.001  25.162  53.815  1.00  0.00     0.035 A 
HETATM    2  C   UNL     1       7.337  23.798  53.841  1.00  0.00     0.046 A 
HETATM    3  C   UNL     1       7.732  23.198  55.056  1.00  0.00     0.030 A 
HETATM    4  C   UNL     1       7.786  23.980  56.201  1.00  0.00     0.063 A 
HETATM    5  N   UNL     1       8.197  23.138  57.195  1.00  0.00    -0.277 N 
HETATM    6  H   UNL     1       8.351  23.369  58.171  1.00  0.00     0.189 HD
HETATM    7  N   UNL     1       8.408  21.870  56.799  1.00  0.00    -0.168 NA
HETATM    8  C   UNL     1       8.124  21.894  55.478  1.00  0.00     0.156 A 
HETATM    9  C   UNL     1       7.462  25.338  56.209  1.00  0.00     0.034 A 
HETATM   10  C   UNL     1       7.065  25.911  54.992  1.00  0.00     0.032 A 
ENDROOT
BRANCH   1  11
HETATM   11  N   UNL     1       6.614  25.693  52.570  1.00  0.00    -0.325 N 
HETATM   12  C   UNL     1       5.472  26.412  52.260  1.00  0.00     0.252 C 
HETATM   13  O   UNL     1       4.556  26.695  53.028  1.00  0.00    -0.270 OA
HETATM   14  H   UNL     1       7.265  25.571  51.797  1.00  0.00     0.169 HD
BRANCH  12  15
HETATM   15  C   UNL     1       5.388  26.782  50.775  1.00  0.00     0.229 C 
HETATM   16  C   UNL     1       4.556  28.066  50.594  1.00  0.00     0.056 C 
HETATM   17  C   UNL     1       5.414  29.322  50.562  1.00  0.00     0.018 C 
HETATM   18  C   UNL     1       3.888  27.730  49.309  1.00  0.00    -0.018 A 
HETATM   19  C   UNL     1       4.029  26.372  49.064  1.00  0.00     0.076 A 
HETATM   20  C   UNL     1       3.156  28.528  48.445  1.00  0.00     0.010 A 
HETATM   21  O   UNL     1       4.760  25.713  50.016  1.00  0.00    -0.335 OA
HETATM   22  C   UNL     1       3.456  25.759  47.969  1.00  0.00     0.037 A 
HETATM   23  C   UNL     1       2.727  26.555  47.084  1.00  0.00     0.003 A 
HETATM   24  C   UNL     1       2.579  27.931  47.321  1.00  0.00     0.001 A 
ENDBRANCH  12  15
ENDBRANCH   1  11
BRANCH   8  25
HETATM   25  C   UNL     1       8.227  20.684  54.650  1.00  0.00     0.270 C 
HETATM   26  N   UNL     1       8.946  19.672  55.223  1.00  0.00    -0.365 N 
HETATM   27  H   UNL     1       9.341  19.821  56.146  1.00  0.00     0.159 HD
HETATM   28  H   UNL     1       9.065  18.800  54.735  1.00  0.00     0.159 HD
HETATM   29  O   UNL     1       7.722  20.559  53.539  1.00  0.00    -0.266 OA
ENDBRANCH   8  25
TORSDOF 3
ENDMDL
MODEL 7
REMARK VINA RESULT:      -9.1      2.651      3.733
REMARK  3 active torsions:
REMARK  status: ('A' for Active; 'I' for Inactive)
REMARK    1  A    between atoms: C_3  and  C_4 
REMARK       I    between atoms: C_4  and  N_5 
REMARK    2  A    between atoms: N_5  and  C_6 
REMARK    3  A    between atoms: C_13  and  C_14 
REMARK       I    between atoms: C_14  and  N_15 
ROOT
HETATM    1  C   UNL     1       7.488  28.179  56.634  1.00  0.00     0.035 A 
HETATM    2  C   UNL     1       6.535  28.920  55.915  1.00  0.00     0.046 A 
HETATM    3  C   UNL     1       6.048  30.134  56.444  1.00  0.00     0.030 A 
HETATM    4  C   UNL     1       6.522  30.565  57.675  1.00  0.00     0.063 A 
HETATM    5  N   UNL     1       5.877  31.744  57.920  1.00  0.00    -0.277 N 
HETATM    6  H   UNL     1       5.975  32.340  58.734  1.00  0.00     0.189 HD
HETATM    7  N   UNL     1       5.026  32.125  56.949  1.00  0.00    -0.168 NA
HETATM    8  C   UNL     1       5.123  31.137  56.031  1.00  0.00     0.156 A 
HETATM    9  C   UNL     1       7.467  29.852  58.416  1.00  0.00     0.034 A 
HETATM   10  C   UNL     1       7.941  28.653  57.868  1.00  0.00     0.032 A 
ENDROOT
BRANCH   1  11
HETATM   11  N   UNL     1       7.931  26.980  56.045  1.00  0.00    -0.325 N 
HETATM   12  C   UNL     1       7.277  25.761  55.982  1.00  0.00     0.252 C 
HETATM   13  O   UNL     1       6.181  25.494  56.466  1.00  0.00    -0.270 OA
HETATM   14  H   UNL     1       8.831  27.008  55.570  1.00  0.00     0.169 HD
BRANCH  12  15
HETATM   15  C   UNL     1       8.110  24.676  55.291  1.00  0.00     0.229 C 
HETATM   16  C   UNL     1       7.439  24.250  53.971  1.00  0.00     0.056 C 
HETATM   17  C   UNL     1       7.967  25.017  52.768  1.00  0.00     0.018 C 
HETATM   18  C   UNL     1       7.781  22.803  53.993  1.00  0.00    -0.018 A 
HETATM   19  C   UNL     1       8.203  22.455  55.268  1.00  0.00     0.076 A 
HETATM   20  C   UNL     1       7.675  21.843  53.001  1.00  0.00     0.010 A 
HETATM   21  O   UNL     1       8.237  23.506  56.145  1.00  0.00    -0.335 OA
HETATM   22  C   UNL     1       8.531  21.158  55.605  1.00  0.00     0.037 A 
HETATM   23  C   UNL     1       8.441  20.184  54.610  1.00  0.00     0.003 A 
HETATM   24  C   UNL     1       8.016  20.525  53.315  1.00  0.00     0.001 A 
ENDBRANCH  12  15
ENDBRANCH   1  11
BRANCH   8  25
HETATM   25  C   UNL     1       4.343  31.170  54.786  1.00  0.00     0.270 C 
HETATM   26  N   UNL     1       4.717  32.157  53.916  1.00  0.00    -0.365 N 
HETATM   27  H   UNL     1       5.480  32.771  54.179  1.00  0.00     0.159 HD
HETATM   28  H   UNL     1       4.245  32.253  53.032  1.00  0.00     0.159 HD
HETATM   29  O   UNL     1       3.432  30.394  54.518  1.00  0.00    -0.266 OA
ENDBRANCH   8  25
TORSDOF 3
ENDMDL
MODEL 8
REMARK VINA RESULT:      -9.1      9.653     13.776
REMARK  3 active torsions:
REMARK  status: ('A' for Active; 'I' for Inactive)
REMARK    1  A    between atoms: C_3  and  C_4 
REMARK       I    between atoms: C_4  and  N_5 
REMARK    2  A    between atoms: N_5  and  C_6 
REMARK    3  A    between atoms: C_13  and  C_14 
REMARK       I    between atoms: C_14  and  N_15 
ROOT
HETATM    1  C   UNL     1       6.192  33.680  65.493  1.00  0.00     0.035 A 
HETATM    2  C   UNL     1       4.961  33.759  64.821  1.00  0.00     0.046 A 
HETATM    3  C   UNL     1       4.916  33.594  63.420  1.00  0.00     0.030 A 
HETATM    4  C   UNL     1       6.101  33.363  62.736  1.00  0.00     0.063 A 
HETATM    5  N   UNL     1       5.746  33.252  61.422  1.00  0.00    -0.277 N 
HETATM    6  H   UNL     1       6.359  33.084  60.632  1.00  0.00     0.189 HD
HETATM    7  N   UNL     1       4.427  33.383  61.189  1.00  0.00    -0.168 NA
HETATM    8  C   UNL     1       3.903  33.595  62.417  1.00  0.00     0.156 A 
HETATM    9  C   UNL     1       7.342  33.282  63.372  1.00  0.00     0.034 A 
HETATM   10  C   UNL     1       7.360  33.442  64.765  1.00  0.00     0.032 A 
ENDROOT
BRANCH   1  11
HETATM   11  N   UNL     1       6.161  33.852  66.889  1.00  0.00    -0.325 N 
HETATM   12  C   UNL     1       5.591  34.883  67.616  1.00  0.00     0.252 C 
HETATM   13  O   UNL     1       5.023  35.872  67.160  1.00  0.00    -0.270 OA
HETATM   14  H   UNL     1       6.577  33.112  67.451  1.00  0.00     0.169 HD
BRANCH  12  15
HETATM   15  C   UNL     1       5.806  34.735  69.127  1.00  0.00     0.229 C 
HETATM   16  C   UNL     1       7.294  34.936  69.473  1.00  0.00     0.056 C 
HETATM   17  C   UNL     1       7.619  36.371  69.858  1.00  0.00     0.018 C 
HETATM   18  C   UNL     1       7.410  33.948  70.578  1.00  0.00    -0.018 A 
HETATM   19  C   UNL     1       6.309  33.106  70.552  1.00  0.00     0.076 A 
HETATM   20  C   UNL     1       8.425  33.751  71.499  1.00  0.00     0.010 A 
HETATM   21  O   UNL     1       5.401  33.413  69.574  1.00  0.00    -0.335 OA
HETATM   22  C   UNL     1       6.172  32.048  71.427  1.00  0.00     0.037 A 
HETATM   23  C   UNL     1       7.182  31.846  72.369  1.00  0.00     0.003 A 
HETATM   24  C   UNL     1       8.302  32.693  72.405  1.00  0.00     0.001 A 
ENDBRANCH  12  15
ENDBRANCH   1  11
BRANCH   8  25
HETATM   25  C   UNL     1       2.459  33.788  62.611  1.00  0.00     0.270 C 
HETATM   26  N   UNL     1       1.767  34.036  61.457  1.00  0.00    -0.365 N 
HETATM   27  H   UNL     1       2.279  34.066  60.582  1.00  0.00     0.159 HD
HETATM   28  H   UNL     1       0.771  34.174  61.488  1.00  0.00     0.159 HD
HETATM   29  O   UNL     1       1.892  33.734  63.697  1.00  0.00    -0.266 OA
ENDBRANCH   8  25
TORSDOF 3
ENDMDL
MODEL 9
REMARK VINA RESULT:      -9.1      4.946      6.879
REMARK  3 active torsions:
REMARK  status: ('A' for Active; 'I' for Inactive)
REMARK    1  A    between atoms: C_3  and  C_4 
REMARK       I    between atoms: C_4  and  N_5 
REMARK    2  A    between atoms: N_5  and  C_6 
REMARK    3  A    between atoms: C_13  and  C_14 
REMARK       I    between atoms: C_14  and  N_15 
ROOT
HETATM    1  C   UNL     1       5.286  27.810  53.499  1.00  0.00     0.035 A 
HETATM    2  C   UNL     1       4.650  27.897  52.249  1.00  0.00     0.046 A 
HETATM    3  C   UNL     1       3.783  28.976  51.978  1.00  0.00     0.030 A 
HETATM    4  C   UNL     1       3.573  29.929  52.965  1.00  0.00     0.063 A 
HETATM    5  N   UNL     1       2.700  30.828  52.421  1.00  0.00    -0.277 N 
HETATM    6  H   UNL     1       2.320  31.659  52.862  1.00  0.00     0.189 HD
HETATM    7  N   UNL     1       2.328  30.549  51.159  1.00  0.00    -0.168 NA
HETATM    8  C   UNL     1       2.990  29.405  50.873  1.00  0.00     0.156 A 
HETATM    9  C   UNL     1       4.186  29.872  54.218  1.00  0.00     0.034 A 
HETATM   10  C   UNL     1       5.049  28.794  54.462  1.00  0.00     0.032 A 
ENDROOT
BRANCH   1  11
HETATM   11  N   UNL     1       6.139  26.709  53.699  1.00  0.00    -0.325 N 
HETATM   12  C   UNL     1       6.062  25.728  54.673  1.00  0.00     0.252 C 
HETATM   13  O   UNL     1       5.233  25.659  55.577  1.00  0.00    -0.270 OA
HETATM   14  H   UNL     1       6.893  26.585  53.026  1.00  0.00     0.169 HD
BRANCH  12  15
HETATM   15  C   UNL     1       7.209  24.714  54.587  1.00  0.00     0.229 C 
HETATM   16  C   UNL     1       7.155  23.965  53.241  1.00  0.00     0.056 C 
HETATM   17  C   UNL     1       8.027  24.610  52.174  1.00  0.00     0.018 C 
HETATM   18  C   UNL     1       7.613  22.627  53.702  1.00  0.00    -0.018 A 
HETATM   19  C   UNL     1       7.537  22.573  55.086  1.00  0.00     0.076 A 
HETATM   20  C   UNL     1       8.005  21.516  52.976  1.00  0.00     0.010 A 
HETATM   21  O   UNL     1       7.114  23.741  55.662  1.00  0.00    -0.335 OA
HETATM   22  C   UNL     1       7.843  21.430  55.795  1.00  0.00     0.037 A 
HETATM   23  C   UNL     1       8.252  20.307  55.074  1.00  0.00     0.003 A 
HETATM   24  C   UNL     1       8.334  20.351  53.673  1.00  0.00     0.001 A 
ENDBRANCH  12  15
ENDBRANCH   1  11
BRANCH   8  25
HETATM   25  C   UNL     1       2.861  28.752  49.564  1.00  0.00     0.270 C 
HETATM   26  N   UNL     1       1.773  27.931  49.452  1.00  0.00    -0.365 N 
HETATM   27  H   UNL     1       1.153  27.837  50.249  1.00  0.00     0.159 HD
HETATM   28  H   UNL     1       1.596  27.445  48.588  1.00  0.00     0.159 HD
HETATM   29  O   UNL     1       3.641  28.908  48.630  1.00  0.00    -0.266 OA
ENDBRANCH   8  25
TORSDOF 3
ENDMDL
MODEL 10
REMARK VINA RESULT:      -8.8      9.527     13.806
REMARK  3 active torsions:
REMARK  status: ('A' for Active; 'I' for Inactive)
REMARK    1  A    between atoms: C_3  and  C_4 
REMARK       I    between atoms: C_4  and  N_5 
REMARK    2  A    between atoms: N_5  and  C_6 
REMARK    3  A    between atoms: C_13  and  C_14 
REMARK       I    between atoms: C_14  and  N_15 
ROOT
HETATM    1  C   UNL     1       7.462  35.023  69.566  1.00  0.00     0.035 A 
HETATM    2  C   UNL     1       7.603  33.820  70.278  1.00  0.00     0.046 A 
HETATM    3  C   UNL     1       7.896  33.853  71.658  1.00  0.00     0.030 A 
HETATM    4  C   UNL     1       8.046  35.085  72.279  1.00  0.00     0.063 A 
HETATM    5  N   UNL     1       8.324  34.800  73.586  1.00  0.00    -0.277 N 
HETATM    6  H   UNL     1       8.498  35.461  74.336  1.00  0.00     0.189 HD
HETATM    7  N   UNL     1       8.359  33.486  73.874  1.00  0.00    -0.168 NA
HETATM    8  C   UNL     1       8.096  32.890  72.690  1.00  0.00     0.156 A 
HETATM    9  C   UNL     1       7.917  36.299  71.602  1.00  0.00     0.034 A 
HETATM   10  C   UNL     1       7.618  36.240  70.233  1.00  0.00     0.032 A 
ENDROOT
BRANCH   1  11
HETATM   11  N   UNL     1       7.167  34.914  68.194  1.00  0.00    -0.325 N 
HETATM   12  C   UNL     1       5.982  34.519  67.599  1.00  0.00     0.252 C 
HETATM   13  O   UNL     1       4.960  34.154  68.175  1.00  0.00    -0.270 OA
HETATM   14  H   UNL     1       7.900  35.193  67.545  1.00  0.00     0.169 HD
BRANCH  12  15
HETATM   15  C   UNL     1       6.068  34.488  66.068  1.00  0.00     0.229 C 
HETATM   16  C   UNL     1       4.938  33.612  65.491  1.00  0.00     0.056 C 
HETATM   17  C   UNL     1       3.703  34.417  65.118  1.00  0.00     0.018 C 
HETATM   18  C   UNL     1       5.671  33.018  64.341  1.00  0.00    -0.018 A 
HETATM   19  C   UNL     1       7.032  33.227  64.512  1.00  0.00     0.076 A 
HETATM   20  C   UNL     1       5.202  32.294  63.259  1.00  0.00     0.010 A 
HETATM   21  O   UNL     1       7.344  33.941  65.638  1.00  0.00    -0.335 OA
HETATM   22  C   UNL     1       7.968  32.732  63.629  1.00  0.00     0.037 A 
HETATM   23  C   UNL     1       7.506  32.011  62.526  1.00  0.00     0.003 A 
HETATM   24  C   UNL     1       6.131  31.794  62.342  1.00  0.00     0.001 A 
ENDBRANCH  12  15
ENDBRANCH   1  11
BRANCH   8  25
HETATM   25  C   UNL     1       8.037  31.427  72.564  1.00  0.00     0.270 C 
HETATM   26  N   UNL     1       8.822  30.755  73.461  1.00  0.00    -0.365 N 
HETATM   27  H   UNL     1       9.367  31.294  74.126  1.00  0.00     0.159 HD
HETATM   28  H   UNL     1       8.841  29.749  73.458  1.00  0.00     0.159 HD
HETATM   29  O   UNL     1       7.352  30.828  71.742  1.00  0.00    -0.266 OA
ENDBRANCH   8  25
TORSDOF 3
ENDMDL
