MODEL 1
REMARK VINA RESULT:     -10.0      0.000      0.000
REMARK  5 active torsions:
REMARK  status: ('A' for Active; 'I' for Inactive)
REMARK    1  A    between atoms: C_4  and  C_5 
REMARK    2  A    between atoms: C_5  and  O_6 
REMARK    3  A    between atoms: O_6  and  C_7 
REMARK    4  A    between atoms: C_8  and  N_9 
REMARK       I    between atoms: N_9  and  C_10 
REMARK       I    between atoms: C_10  and  N_11 
REMARK    5  A    between atoms: N_11  and  C_12 
ROOT
HETATM    1  C   UNL     1       8.909  28.968  57.010  1.00  0.00     0.037 A 
HETATM    2  C   UNL     1       8.578  29.952  57.947  1.00  0.00     0.052 A 
HETATM    3  C   UNL     1       9.545  30.860  58.396  1.00  0.00     0.046 A 
HETATM    4  C   UNL     1       9.179  31.903  59.305  1.00  0.00     0.099 C 
HETATM    5  N   UNL     1       8.874  32.754  60.033  1.00  0.00    -0.191 NA
HETATM    6  C   UNL     1      10.862  30.756  57.939  1.00  0.00     0.023 A 
HETATM    7  C   UNL     1      11.203  29.758  57.027  1.00  0.00     0.004 A 
HETATM    8  C   UNL     1      10.226  28.875  56.556  1.00  0.00     0.029 A 
ENDROOT
BRANCH   1   9
HETATM    9  N   UNL     1       7.878  28.124  56.573  1.00  0.00    -0.309 N 
HETATM   10  C   UNL     1       7.388  27.006  57.185  1.00  0.00     0.326 C 
HETATM   11  N   UNL     1       6.446  26.296  56.493  1.00  0.00    -0.291 N 
HETATM   12  O   UNL     1       7.774  26.549  58.260  1.00  0.00    -0.247 OA
HETATM   13  H   UNL     1       6.277  25.405  56.927  1.00  0.00     0.172 HD
HETATM   14  H   UNL     1       7.500  28.272  55.640  1.00  0.00     0.170 HD
BRANCH  11  15
HETATM   15  C   UNL     1       5.718  26.651  55.347  1.00  0.00     0.165 A 
HETATM   16  C   UNL     1       5.443  25.715  54.338  1.00  0.00     0.115 A 
HETATM   17  C   UNL     1       4.738  26.155  53.211  1.00  0.00     0.042 A 
HETATM   18  C   UNL     1       4.304  27.469  53.118  1.00  0.00     0.022 A 
HETATM   19  C   UNL     1       4.615  28.321  54.156  1.00  0.00     0.119 A 
HETATM   20  N   UNL     1       5.313  27.945  55.250  1.00  0.00    -0.240 NA
BRANCH  16  21
HETATM   21  O   UNL     1       5.925  24.447  54.201  1.00  0.00    -0.343 OA
BRANCH  21  22
HETATM   22  C   UNL     1       7.258  24.245  53.736  1.00  0.00     0.214 C 
BRANCH  22  23
HETATM   23  C   UNL     1       7.672  22.815  54.018  1.00  0.00    -0.034 A 
HETATM   24  C   UNL     1       7.680  22.290  55.323  1.00  0.00     0.009 A 
HETATM   25  C   UNL     1       8.056  20.969  55.565  1.00  0.00     0.001 A 
HETATM   26  C   UNL     1       8.433  20.150  54.507  1.00  0.00     0.000 A 
HETATM   27  C   UNL     1       8.427  20.649  53.207  1.00  0.00     0.001 A 
HETATM   28  C   UNL     1       8.040  21.971  52.961  1.00  0.00     0.009 A 
ENDBRANCH  22  23
ENDBRANCH  21  22
ENDBRANCH  16  21
ENDBRANCH  11  15
ENDBRANCH   1   9
TORSDOF 5
ENDMDL
MODEL 2
REMARK VINA RESULT:      -9.7      1.647      2.390
REMARK  5 active torsions:
REMARK  status: ('A' for Active; 'I' for Inactive)
REMARK    1  A    between atoms: C_4  and  C_5 
REMARK    2  A    between atoms: C_5  and  O_6 
REMARK    3  A    between atoms: O_6  and  C_7 
REMARK    4  A    between atoms: C_8  and  N_9 
REMARK       I    between atoms: N_9  and  C_10 
REMARK       I    between atoms: C_10  and  N_11 
REMARK    5  A    between atoms: N_11  and  C_12 
ROOT
HETATM    1  C   UNL     1       6.931  28.832  56.445  1.00  0.00     0.037 A 
HETATM    2  C   UNL     1       8.323  28.908  56.327  1.00  0.00     0.052 A 
HETATM    3  C   UNL     1       9.069  29.696  57.212  1.00  0.00     0.046 A 
HETATM    4  C   UNL     1      10.498  29.713  57.122  1.00  0.00     0.099 C 
HETATM    5  N   UNL     1      11.657  29.714  57.051  1.00  0.00    -0.191 NA
HETATM    6  C   UNL     1       8.418  30.447  58.194  1.00  0.00     0.023 A 
HETATM    7  C   UNL     1       7.028  30.398  58.296  1.00  0.00     0.004 A 
HETATM    8  C   UNL     1       6.290  29.583  57.432  1.00  0.00     0.029 A 
ENDROOT
BRANCH   1   9
HETATM    9  N   UNL     1       6.255  27.988  55.553  1.00  0.00    -0.309 N 
HETATM   10  C   UNL     1       5.435  26.936  55.847  1.00  0.00     0.326 C 
HETATM   11  N   UNL     1       4.982  26.202  54.785  1.00  0.00    -0.291 N 
HETATM   12  O   UNL     1       5.136  26.552  56.976  1.00  0.00    -0.247 OA
HETATM   13  H   UNL     1       4.543  25.353  55.096  1.00  0.00     0.172 HD
HETATM   14  H   UNL     1       6.462  28.074  54.561  1.00  0.00     0.170 HD
BRANCH  11  15
HETATM   15  C   UNL     1       5.028  26.488  53.412  1.00  0.00     0.165 A 
HETATM   16  C   UNL     1       5.422  25.520  52.476  1.00  0.00     0.115 A 
HETATM   17  C   UNL     1       5.472  25.892  51.128  1.00  0.00     0.042 A 
HETATM   18  C   UNL     1       5.114  27.173  50.735  1.00  0.00     0.022 A 
HETATM   19  C   UNL     1       4.737  28.062  51.719  1.00  0.00     0.119 A 
HETATM   20  N   UNL     1       4.697  27.752  53.034  1.00  0.00    -0.240 NA
BRANCH  16  21
HETATM   21  O   UNL     1       5.950  24.283  52.705  1.00  0.00    -0.343 OA
BRANCH  21  22
HETATM   22  C   UNL     1       7.353  24.142  52.913  1.00  0.00     0.214 C 
BRANCH  22  23
HETATM   23  C   UNL     1       7.620  22.843  53.647  1.00  0.00    -0.034 A 
HETATM   24  C   UNL     1       7.517  22.750  55.046  1.00  0.00     0.009 A 
HETATM   25  C   UNL     1       7.758  21.545  55.706  1.00  0.00     0.001 A 
HETATM   26  C   UNL     1       8.108  20.412  54.979  1.00  0.00     0.000 A 
HETATM   27  C   UNL     1       8.210  20.484  53.591  1.00  0.00     0.001 A 
HETATM   28  C   UNL     1       7.959  21.689  52.927  1.00  0.00     0.009 A 
ENDBRANCH  22  23
ENDBRANCH  21  22
ENDBRANCH  16  21
ENDBRANCH  11  15
ENDBRANCH   1   9
TORSDOF 5
ENDMDL
MODEL 3
REMARK VINA RESULT:      -9.6      2.401      8.887
REMARK  5 active torsions:
REMARK  status: ('A' for Active; 'I' for Inactive)
REMARK    1  A    between atoms: C_4  and  C_5 
REMARK    2  A    between atoms: C_5  and  O_6 
REMARK    3  A    between atoms: O_6  and  C_7 
REMARK    4  A    between atoms: C_8  and  N_9 
REMARK       I    between atoms: N_9  and  C_10 
REMARK       I    between atoms: C_10  and  N_11 
REMARK    5  A    between atoms: N_11  and  C_12 
ROOT
HETATM    1  C   UNL     1       7.583  25.283  54.932  1.00  0.00     0.037 A 
HETATM    2  C   UNL     1       7.782  24.180  55.770  1.00  0.00     0.052 A 
HETATM    3  C   UNL     1       7.795  22.883  55.243  1.00  0.00     0.046 A 
HETATM    4  C   UNL     1       8.065  21.768  56.099  1.00  0.00     0.099 C 
HETATM    5  N   UNL     1       8.295  20.868  56.796  1.00  0.00    -0.191 NA
HETATM    6  C   UNL     1       7.566  22.682  53.879  1.00  0.00     0.023 A 
HETATM    7  C   UNL     1       7.338  23.777  53.046  1.00  0.00     0.004 A 
HETATM    8  C   UNL     1       7.359  25.073  53.570  1.00  0.00     0.029 A 
ENDROOT
BRANCH   1   9
HETATM    9  N   UNL     1       7.628  26.555  55.523  1.00  0.00    -0.309 N 
HETATM   10  C   UNL     1       6.588  27.293  56.009  1.00  0.00     0.326 C 
HETATM   11  N   UNL     1       6.887  28.557  56.440  1.00  0.00    -0.291 N 
HETATM   12  O   UNL     1       5.406  26.950  56.021  1.00  0.00    -0.247 OA
HETATM   13  H   UNL     1       6.050  29.087  56.607  1.00  0.00     0.172 HD
HETATM   14  H   UNL     1       8.509  27.061  55.505  1.00  0.00     0.170 HD
BRANCH  11  15
HETATM   15  C   UNL     1       8.136  29.148  56.686  1.00  0.00     0.165 A 
HETATM   16  C   UNL     1       8.415  29.785  57.905  1.00  0.00     0.115 A 
HETATM   17  C   UNL     1       9.674  30.377  58.062  1.00  0.00     0.042 A 
HETATM   18  C   UNL     1      10.619  30.307  57.049  1.00  0.00     0.022 A 
HETATM   19  C   UNL     1      10.262  29.660  55.885  1.00  0.00     0.119 A 
HETATM   20  N   UNL     1       9.051  29.094  55.683  1.00  0.00    -0.240 NA
BRANCH  16  21
HETATM   21  O   UNL     1       7.560  30.078  58.926  1.00  0.00    -0.343 OA
BRANCH  21  22
HETATM   22  C   UNL     1       7.115  31.420  59.110  1.00  0.00     0.214 C 
BRANCH  22  23
HETATM   23  C   UNL     1       7.328  31.821  60.556  1.00  0.00    -0.034 A 
HETATM   24  C   UNL     1       8.313  31.213  61.355  1.00  0.00     0.009 A 
HETATM   25  C   UNL     1       8.502  31.598  62.682  1.00  0.00     0.001 A 
HETATM   26  C   UNL     1       7.708  32.597  63.235  1.00  0.00     0.000 A 
HETATM   27  C   UNL     1       6.730  33.215  62.458  1.00  0.00     0.001 A 
HETATM   28  C   UNL     1       6.546  32.837  61.124  1.00  0.00     0.009 A 
ENDBRANCH  22  23
ENDBRANCH  21  22
ENDBRANCH  16  21
ENDBRANCH  11  15
ENDBRANCH   1   9
TORSDOF 5
ENDMDL
MODEL 4
REMARK VINA RESULT:      -9.4      2.483      8.609
REMARK  5 active torsions:
REMARK  status: ('A' for Active; 'I' for Inactive)
REMARK    1  A    between atoms: C_4  and  C_5 
REMARK    2  A    between atoms: C_5  and  O_6 
REMARK    3  A    between atoms: O_6  and  C_7 
REMARK    4  A    between atoms: C_8  and  N_9 
REMARK       I    between atoms: N_9  and  C_10 
REMARK       I    between atoms: C_10  and  N_11 
REMARK    5  A    between atoms: N_11  and  C_12 
ROOT
HETATM    1  C   UNL     1       7.681  24.500  54.735  1.00  0.00     0.037 A 
HETATM    2  C   UNL     1       7.867  23.173  55.137  1.00  0.00     0.052 A 
HETATM    3  C   UNL     1       8.062  22.164  54.186  1.00  0.00     0.046 A 
HETATM    4  C   UNL     1       8.317  20.821  54.611  1.00  0.00     0.099 C 
HETATM    5  N   UNL     1       8.535  19.736  54.962  1.00  0.00    -0.191 NA
HETATM    6  C   UNL     1       8.028  22.475  52.824  1.00  0.00     0.023 A 
HETATM    7  C   UNL     1       7.812  23.791  52.418  1.00  0.00     0.004 A 
HETATM    8  C   UNL     1       7.652  24.801  53.372  1.00  0.00     0.029 A 
ENDROOT
BRANCH   1   9
HETATM    9  N   UNL     1       7.537  25.463  55.744  1.00  0.00    -0.309 N 
HETATM   10  C   UNL     1       8.172  25.517  56.952  1.00  0.00     0.326 C 
HETATM   11  N   UNL     1       7.772  26.509  57.806  1.00  0.00    -0.291 N 
HETATM   12  O   UNL     1       9.008  24.714  57.362  1.00  0.00    -0.247 OA
HETATM   13  H   UNL     1       8.152  26.366  58.726  1.00  0.00     0.172 HD
HETATM   14  H   UNL     1       6.803  26.158  55.642  1.00  0.00     0.170 HD
BRANCH  11  15
HETATM   15  C   UNL     1       6.974  27.636  57.560  1.00  0.00     0.165 A 
HETATM   16  C   UNL     1       7.394  28.923  57.928  1.00  0.00     0.115 A 
HETATM   17  C   UNL     1       6.527  29.994  57.676  1.00  0.00     0.042 A 
HETATM   18  C   UNL     1       5.305  29.781  57.055  1.00  0.00     0.022 A 
HETATM   19  C   UNL     1       4.971  28.485  56.726  1.00  0.00     0.119 A 
HETATM   20  N   UNL     1       5.767  27.420  56.971  1.00  0.00    -0.240 NA
BRANCH  16  21
HETATM   21  O   UNL     1       8.476  29.283  58.676  1.00  0.00    -0.343 OA
BRANCH  21  22
HETATM   22  C   UNL     1       8.876  30.650  58.727  1.00  0.00     0.214 C 
BRANCH  22  23
HETATM   23  C   UNL     1       8.595  31.200  60.111  1.00  0.00    -0.034 A 
HETATM   24  C   UNL     1       7.824  32.361  60.303  1.00  0.00     0.009 A 
HETATM   25  C   UNL     1       7.567  32.850  61.584  1.00  0.00     0.001 A 
HETATM   26  C   UNL     1       8.078  32.189  62.695  1.00  0.00     0.000 A 
HETATM   27  C   UNL     1       8.839  31.034  62.525  1.00  0.00     0.001 A 
HETATM   28  C   UNL     1       9.090  30.536  61.242  1.00  0.00     0.009 A 
ENDBRANCH  22  23
ENDBRANCH  21  22
ENDBRANCH  16  21
ENDBRANCH  11  15
ENDBRANCH   1   9
TORSDOF 5
ENDMDL
MODEL 5
REMARK VINA RESULT:      -9.1      2.385      3.598
REMARK  5 active torsions:
REMARK  status: ('A' for Active; 'I' for Inactive)
REMARK    1  A    between atoms: C_4  and  C_5 
REMARK    2  A    between atoms: C_5  and  O_6 
REMARK    3  A    between atoms: O_6  and  C_7 
REMARK    4  A    between atoms: C_8  and  N_9 
REMARK       I    between atoms: N_9  and  C_10 
REMARK       I    between atoms: C_10  and  N_11 
REMARK    5  A    between atoms: N_11  and  C_12 
ROOT
HETATM    1  C   UNL     1       7.978  30.920  60.156  1.00  0.00     0.037 A 
HETATM    2  C   UNL     1       7.164  32.000  60.516  1.00  0.00     0.052 A 
HETATM    3  C   UNL     1       7.374  32.675  61.725  1.00  0.00     0.046 A 
HETATM    4  C   UNL     1       6.577  33.819  62.051  1.00  0.00     0.099 C 
HETATM    5  N   UNL     1       5.936  34.753  62.306  1.00  0.00    -0.191 NA
HETATM    6  C   UNL     1       8.374  32.242  62.599  1.00  0.00     0.023 A 
HETATM    7  C   UNL     1       9.167  31.148  62.258  1.00  0.00     0.004 A 
HETATM    8  C   UNL     1       8.977  30.498  61.035  1.00  0.00     0.029 A 
ENDROOT
BRANCH   1   9
HETATM    9  N   UNL     1       7.738  30.322  58.910  1.00  0.00    -0.309 N 
HETATM   10  C   UNL     1       8.647  29.990  57.947  1.00  0.00     0.326 C 
HETATM   11  N   UNL     1       8.140  29.512  56.770  1.00  0.00    -0.291 N 
HETATM   12  O   UNL     1       9.864  30.155  58.020  1.00  0.00    -0.247 OA
HETATM   13  H   UNL     1       8.853  29.467  56.063  1.00  0.00     0.172 HD
HETATM   14  H   UNL     1       6.773  30.206  58.612  1.00  0.00     0.170 HD
BRANCH  11  15
HETATM   15  C   UNL     1       6.841  29.080  56.463  1.00  0.00     0.165 A 
HETATM   16  C   UNL     1       6.595  27.784  55.985  1.00  0.00     0.115 A 
HETATM   17  C   UNL     1       5.275  27.439  55.672  1.00  0.00     0.042 A 
HETATM   18  C   UNL     1       4.244  28.348  55.860  1.00  0.00     0.022 A 
HETATM   19  C   UNL     1       4.574  29.600  56.336  1.00  0.00     0.119 A 
HETATM   20  N   UNL     1       5.836  29.982  56.629  1.00  0.00    -0.240 NA
BRANCH  16  21
HETATM   21  O   UNL     1       7.496  26.835  55.599  1.00  0.00    -0.343 OA
BRANCH  21  22
HETATM   22  C   UNL     1       7.404  25.517  56.133  1.00  0.00     0.214 C 
BRANCH  22  23
HETATM   23  C   UNL     1       7.555  24.513  55.008  1.00  0.00    -0.034 A 
HETATM   24  C   UNL     1       7.690  24.918  53.668  1.00  0.00     0.009 A 
HETATM   25  C   UNL     1       7.836  23.982  52.645  1.00  0.00     0.001 A 
HETATM   26  C   UNL     1       7.847  22.623  52.942  1.00  0.00     0.000 A 
HETATM   27  C   UNL     1       7.720  22.203  54.265  1.00  0.00     0.001 A 
HETATM   28  C   UNL     1       7.583  23.140  55.293  1.00  0.00     0.009 A 
ENDBRANCH  22  23
ENDBRANCH  21  22
ENDBRANCH  16  21
ENDBRANCH  11  15
ENDBRANCH   1   9
TORSDOF 5
ENDMDL
MODEL 6
REMARK VINA RESULT:      -9.1      2.862      5.990
REMARK  5 active torsions:
REMARK  status: ('A' for Active; 'I' for Inactive)
REMARK    1  A    between atoms: C_4  and  C_5 
REMARK    2  A    between atoms: C_5  and  O_6 
REMARK    3  A    between atoms: O_6  and  C_7 
REMARK    4  A    between atoms: C_8  and  N_9 
REMARK       I    between atoms: N_9  and  C_10 
REMARK       I    between atoms: C_10  and  N_11 
REMARK    5  A    between atoms: N_11  and  C_12 
ROOT
HETATM    1  C   UNL     1       5.236  27.188  51.381  1.00  0.00     0.037 A 
HETATM    2  C   UNL     1       5.582  28.512  51.093  1.00  0.00     0.052 A 
HETATM    3  C   UNL     1       5.461  29.010  49.789  1.00  0.00     0.046 A 
HETATM    4  C   UNL     1       5.755  30.384  49.520  1.00  0.00     0.099 C 
HETATM    5  N   UNL     1       5.984  31.503  49.309  1.00  0.00    -0.191 NA
HETATM    6  C   UNL     1       5.034  28.167  48.760  1.00  0.00     0.023 A 
HETATM    7  C   UNL     1       4.717  26.838  49.037  1.00  0.00     0.004 A 
HETATM    8  C   UNL     1       4.806  26.355  50.346  1.00  0.00     0.029 A 
ENDROOT
BRANCH   1   9
HETATM    9  N   UNL     1       5.339  26.773  52.717  1.00  0.00    -0.309 N 
HETATM   10  C   UNL     1       5.004  25.561  53.250  1.00  0.00     0.326 C 
HETATM   11  N   UNL     1       5.102  25.446  54.610  1.00  0.00    -0.291 N 
HETATM   12  O   UNL     1       4.555  24.601  52.626  1.00  0.00    -0.247 OA
HETATM   13  H   UNL     1       4.669  24.597  54.931  1.00  0.00     0.172 HD
HETATM   14  H   UNL     1       5.588  27.467  53.417  1.00  0.00     0.170 HD
BRANCH  11  15
HETATM   15  C   UNL     1       5.716  26.298  55.540  1.00  0.00     0.165 A 
HETATM   16  C   UNL     1       7.023  26.063  55.994  1.00  0.00     0.115 A 
HETATM   17  C   UNL     1       7.555  26.942  56.946  1.00  0.00     0.042 A 
HETATM   18  C   UNL     1       6.815  28.025  57.398  1.00  0.00     0.022 A 
HETATM   19  C   UNL     1       5.540  28.182  56.898  1.00  0.00     0.119 A 
HETATM   20  N   UNL     1       4.979  27.346  55.996  1.00  0.00    -0.240 NA
BRANCH  16  21
HETATM   21  O   UNL     1       7.816  24.975  55.776  1.00  0.00    -0.343 OA
BRANCH  21  22
HETATM   22  C   UNL     1       7.446  23.712  56.323  1.00  0.00     0.214 C 
BRANCH  22  23
HETATM   23  C   UNL     1       7.692  22.631  55.290  1.00  0.00    -0.034 A 
HETATM   24  C   UNL     1       8.005  21.311  55.662  1.00  0.00     0.009 A 
HETATM   25  C   UNL     1       8.220  20.324  54.699  1.00  0.00     0.001 A 
HETATM   26  C   UNL     1       8.129  20.641  53.348  1.00  0.00     0.000 A 
HETATM   27  C   UNL     1       7.815  21.942  52.961  1.00  0.00     0.001 A 
HETATM   28  C   UNL     1       7.589  22.930  53.925  1.00  0.00     0.009 A 
ENDBRANCH  22  23
ENDBRANCH  21  22
ENDBRANCH  16  21
ENDBRANCH  11  15
ENDBRANCH   1   9
TORSDOF 5
ENDMDL
MODEL 7
REMARK VINA RESULT:      -9.0      8.095     11.150
REMARK  5 active torsions:
REMARK  status: ('A' for Active; 'I' for Inactive)
REMARK    1  A    between atoms: C_4  and  C_5 
REMARK    2  A    between atoms: C_5  and  O_6 
REMARK    3  A    between atoms: O_6  and  C_7 
REMARK    4  A    between atoms: C_8  and  N_9 
REMARK       I    between atoms: N_9  and  C_10 
REMARK       I    between atoms: C_10  and  N_11 
REMARK    5  A    between atoms: N_11  and  C_12 
ROOT
HETATM    1  C   UNL     1       6.694  32.208  61.391  1.00  0.00     0.037 A 
HETATM    2  C   UNL     1       7.554  32.336  60.296  1.00  0.00     0.052 A 
HETATM    3  C   UNL     1       8.854  31.817  60.349  1.00  0.00     0.046 A 
HETATM    4  C   UNL     1       9.702  31.896  59.199  1.00  0.00     0.099 C 
HETATM    5  N   UNL     1      10.382  31.953  58.259  1.00  0.00    -0.191 NA
HETATM    6  C   UNL     1       9.311  31.205  61.519  1.00  0.00     0.023 A 
HETATM    7  C   UNL     1       8.467  31.102  62.624  1.00  0.00     0.004 A 
HETATM    8  C   UNL     1       7.159  31.591  62.554  1.00  0.00     0.029 A 
ENDROOT
BRANCH   1   9
HETATM    9  N   UNL     1       5.393  32.711  61.249  1.00  0.00    -0.309 N 
HETATM   10  C   UNL     1       4.269  32.346  61.934  1.00  0.00     0.326 C 
HETATM   11  N   UNL     1       3.095  32.919  61.527  1.00  0.00    -0.291 N 
HETATM   12  O   UNL     1       4.213  31.499  62.823  1.00  0.00    -0.247 OA
HETATM   13  H   UNL     1       2.307  32.465  61.955  1.00  0.00     0.172 HD
HETATM   14  H   UNL     1       5.207  33.350  60.479  1.00  0.00     0.170 HD
BRANCH  11  15
HETATM   15  C   UNL     1       2.879  34.007  60.668  1.00  0.00     0.165 A 
HETATM   16  C   UNL     1       2.672  35.302  61.167  1.00  0.00     0.115 A 
HETATM   17  C   UNL     1       2.432  36.330  60.246  1.00  0.00     0.042 A 
HETATM   18  C   UNL     1       2.429  36.070  58.884  1.00  0.00     0.022 A 
HETATM   19  C   UNL     1       2.642  34.769  58.480  1.00  0.00     0.119 A 
HETATM   20  N   UNL     1       2.855  33.744  59.334  1.00  0.00    -0.240 NA
BRANCH  16  21
HETATM   21  O   UNL     1       2.489  35.696  62.460  1.00  0.00    -0.343 OA
BRANCH  21  22
HETATM   22  C   UNL     1       3.514  36.431  63.125  1.00  0.00     0.214 C 
BRANCH  22  23
HETATM   23  C   UNL     1       4.376  35.474  63.922  1.00  0.00    -0.034 A 
HETATM   24  C   UNL     1       3.829  34.628  64.904  1.00  0.00     0.009 A 
HETATM   25  C   UNL     1       4.635  33.746  65.623  1.00  0.00     0.001 A 
HETATM   26  C   UNL     1       6.003  33.695  65.376  1.00  0.00     0.000 A 
HETATM   27  C   UNL     1       6.562  34.522  64.403  1.00  0.00     0.001 A 
HETATM   28  C   UNL     1       5.754  35.400  63.674  1.00  0.00     0.009 A 
ENDBRANCH  22  23
ENDBRANCH  21  22
ENDBRANCH  16  21
ENDBRANCH  11  15
ENDBRANCH   1   9
TORSDOF 5
ENDMDL
MODEL 8
REMARK VINA RESULT:      -8.8      2.319      7.526
REMARK  5 active torsions:
REMARK  status: ('A' for Active; 'I' for Inactive)
REMARK    1  A    between atoms: C_4  and  C_5 
REMARK    2  A    between atoms: C_5  and  O_6 
REMARK    3  A    between atoms: O_6  and  C_7 
REMARK    4  A    between atoms: C_8  and  N_9 
REMARK       I    between atoms: N_9  and  C_10 
REMARK       I    between atoms: C_10  and  N_11 
REMARK    5  A    between atoms: N_11  and  C_12 
ROOT
HETATM    1  C   UNL     1       7.651  24.073  55.102  1.00  0.00     0.037 A 
HETATM    2  C   UNL     1       7.814  23.108  54.103  1.00  0.00     0.052 A 
HETATM    3  C   UNL     1       8.219  21.808  54.431  1.00  0.00     0.046 A 
HETATM    4  C   UNL     1       8.318  20.811  53.409  1.00  0.00     0.099 C 
HETATM    5  N   UNL     1       8.385  20.003  52.577  1.00  0.00    -0.191 NA
HETATM    6  C   UNL     1       8.506  21.483  55.760  1.00  0.00     0.023 A 
HETATM    7  C   UNL     1       8.375  22.451  56.755  1.00  0.00     0.004 A 
HETATM    8  C   UNL     1       7.937  23.738  56.427  1.00  0.00     0.029 A 
ENDROOT
BRANCH   1   9
HETATM    9  N   UNL     1       7.199  25.340  54.704  1.00  0.00    -0.309 N 
HETATM   10  C   UNL     1       7.502  26.020  53.560  1.00  0.00     0.326 C 
HETATM   11  N   UNL     1       7.011  27.294  53.460  1.00  0.00    -0.291 N 
HETATM   12  O   UNL     1       8.233  25.618  52.656  1.00  0.00    -0.247 OA
HETATM   13  H   UNL     1       7.426  27.779  52.685  1.00  0.00     0.172 HD
HETATM   14  H   UNL     1       6.666  25.890  55.373  1.00  0.00     0.170 HD
BRANCH  11  15
HETATM   15  C   UNL     1       6.044  27.945  54.241  1.00  0.00     0.165 A 
HETATM   16  C   UNL     1       6.247  28.180  55.609  1.00  0.00     0.115 A 
HETATM   17  C   UNL     1       5.221  28.809  56.326  1.00  0.00     0.042 A 
HETATM   18  C   UNL     1       4.056  29.209  55.688  1.00  0.00     0.022 A 
HETATM   19  C   UNL     1       3.940  28.940  54.341  1.00  0.00     0.119 A 
HETATM   20  N   UNL     1       4.895  28.316  53.615  1.00  0.00    -0.240 NA
BRANCH  16  21
HETATM   21  O   UNL     1       7.249  27.719  56.412  1.00  0.00    -0.343 OA
BRANCH  21  22
HETATM   22  C   UNL     1       7.394  28.242  57.730  1.00  0.00     0.214 C 
BRANCH  22  23
HETATM   23  C   UNL     1       8.554  29.217  57.753  1.00  0.00    -0.034 A 
HETATM   24  C   UNL     1       8.553  30.347  58.591  1.00  0.00     0.009 A 
HETATM   25  C   UNL     1       9.632  31.231  58.608  1.00  0.00     0.001 A 
HETATM   26  C   UNL     1      10.730  31.002  57.785  1.00  0.00     0.000 A 
HETATM   27  C   UNL     1      10.751  29.886  56.952  1.00  0.00     0.001 A 
HETATM   28  C   UNL     1       9.674  28.993  56.941  1.00  0.00     0.009 A 
ENDBRANCH  22  23
ENDBRANCH  21  22
ENDBRANCH  16  21
ENDBRANCH  11  15
ENDBRANCH   1   9
TORSDOF 5
ENDMDL
MODEL 9
REMARK VINA RESULT:      -8.8      3.505      5.178
REMARK  5 active torsions:
REMARK  status: ('A' for Active; 'I' for Inactive)
REMARK    1  A    between atoms: C_4  and  C_5 
REMARK    2  A    between atoms: C_5  and  O_6 
REMARK    3  A    between atoms: O_6  and  C_7 
REMARK    4  A    between atoms: C_8  and  N_9 
REMARK       I    between atoms: N_9  and  C_10 
REMARK       I    between atoms: C_10  and  N_11 
REMARK    5  A    between atoms: N_11  and  C_12 
ROOT
HETATM    1  C   UNL     1       7.100  31.873  61.668  1.00  0.00     0.037 A 
HETATM    2  C   UNL     1       5.837  32.331  62.055  1.00  0.00     0.052 A 
HETATM    3  C   UNL     1       5.670  33.015  63.266  1.00  0.00     0.046 A 
HETATM    4  C   UNL     1       4.385  33.536  63.620  1.00  0.00     0.099 C 
HETATM    5  N   UNL     1       3.342  33.968  63.896  1.00  0.00    -0.191 NA
HETATM    6  C   UNL     1       6.763  33.203  64.115  1.00  0.00     0.023 A 
HETATM    7  C   UNL     1       8.018  32.721  63.747  1.00  0.00     0.004 A 
HETATM    8  C   UNL     1       8.187  32.069  62.522  1.00  0.00     0.029 A 
ENDROOT
BRANCH   1   9
HETATM    9  N   UNL     1       7.200  31.238  60.421  1.00  0.00    -0.309 N 
HETATM   10  C   UNL     1       8.331  30.914  59.730  1.00  0.00     0.326 C 
HETATM   11  N   UNL     1       8.151  30.391  58.478  1.00  0.00    -0.291 N 
HETATM   12  O   UNL     1       9.485  31.121  60.102  1.00  0.00    -0.247 OA
HETATM   13  H   UNL     1       9.022  30.353  57.976  1.00  0.00     0.172 HD
HETATM   14  H   UNL     1       6.345  31.082  59.893  1.00  0.00     0.170 HD
BRANCH  11  15
HETATM   15  C   UNL     1       6.984  29.909  57.867  1.00  0.00     0.165 A 
HETATM   16  C   UNL     1       6.734  28.533  57.752  1.00  0.00     0.115 A 
HETATM   17  C   UNL     1       5.561  28.131  57.102  1.00  0.00     0.042 A 
HETATM   18  C   UNL     1       4.666  29.072  56.615  1.00  0.00     0.022 A 
HETATM   19  C   UNL     1       4.988  30.403  56.772  1.00  0.00     0.119 A 
HETATM   20  N   UNL     1       6.120  30.835  57.373  1.00  0.00    -0.240 NA
BRANCH  16  21
HETATM   21  O   UNL     1       7.571  27.491  58.029  1.00  0.00    -0.343 OA
BRANCH  21  22
HETATM   22  C   UNL     1       8.525  27.075  57.055  1.00  0.00     0.214 C 
BRANCH  22  23
HETATM   23  C   UNL     1       8.217  25.653  56.632  1.00  0.00    -0.034 A 
HETATM   24  C   UNL     1       8.678  24.546  57.367  1.00  0.00     0.009 A 
HETATM   25  C   UNL     1       8.379  23.243  56.970  1.00  0.00     0.001 A 
HETATM   26  C   UNL     1       7.616  23.023  55.828  1.00  0.00     0.000 A 
HETATM   27  C   UNL     1       7.146  24.106  55.090  1.00  0.00     0.001 A 
HETATM   28  C   UNL     1       7.436  25.414  55.492  1.00  0.00     0.009 A 
ENDBRANCH  22  23
ENDBRANCH  21  22
ENDBRANCH  16  21
ENDBRANCH  11  15
ENDBRANCH   1   9
TORSDOF 5
ENDMDL
MODEL 10
REMARK VINA RESULT:      -8.6      3.721      9.837
REMARK  5 active torsions:
REMARK  status: ('A' for Active; 'I' for Inactive)
REMARK    1  A    between atoms: C_4  and  C_5 
REMARK    2  A    between atoms: C_5  and  O_6 
REMARK    3  A    between atoms: O_6  and  C_7 
REMARK    4  A    between atoms: C_8  and  N_9 
REMARK       I    between atoms: N_9  and  C_10 
REMARK       I    between atoms: C_10  and  N_11 
REMARK    5  A    between atoms: N_11  and  C_12 
ROOT
HETATM    1  C   UNL     1       7.422  27.638  56.336  1.00  0.00     0.037 A 
HETATM    2  C   UNL     1       7.671  26.380  56.896  1.00  0.00     0.052 A 
HETATM    3  C   UNL     1       7.771  25.247  56.079  1.00  0.00     0.046 A 
HETATM    4  C   UNL     1       8.092  23.977  56.656  1.00  0.00     0.099 C 
HETATM    5  N   UNL     1       8.364  22.952  57.128  1.00  0.00    -0.191 NA
HETATM    6  C   UNL     1       7.578  25.364  54.700  1.00  0.00     0.023 A 
HETATM    7  C   UNL     1       7.299  26.611  54.142  1.00  0.00     0.004 A 
HETATM    8  C   UNL     1       7.234  27.745  54.957  1.00  0.00     0.029 A 
ENDROOT
BRANCH   1   9
HETATM    9  N   UNL     1       7.380  28.734  57.210  1.00  0.00    -0.309 N 
HETATM   10  C   UNL     1       6.281  29.358  57.726  1.00  0.00     0.326 C 
HETATM   11  N   UNL     1       6.512  30.479  58.476  1.00  0.00    -0.291 N 
HETATM   12  O   UNL     1       5.110  29.046  57.511  1.00  0.00    -0.247 OA
HETATM   13  H   UNL     1       5.655  30.972  58.659  1.00  0.00     0.172 HD
HETATM   14  H   UNL     1       8.252  29.212  57.421  1.00  0.00     0.170 HD
BRANCH  11  15
HETATM   15  C   UNL     1       7.715  30.970  59.006  1.00  0.00     0.165 A 
HETATM   16  C   UNL     1       7.833  31.303  60.364  1.00  0.00     0.115 A 
HETATM   17  C   UNL     1       9.057  31.816  60.810  1.00  0.00     0.042 A 
HETATM   18  C   UNL     1      10.123  31.961  59.934  1.00  0.00     0.022 A 
HETATM   19  C   UNL     1       9.921  31.608  58.617  1.00  0.00     0.119 A 
HETATM   20  N   UNL     1       8.750  31.131  58.139  1.00  0.00    -0.240 NA
BRANCH  16  21
HETATM   21  O   UNL     1       6.853  31.370  61.311  1.00  0.00    -0.343 OA
BRANCH  21  22
HETATM   22  C   UNL     1       6.112  32.577  61.474  1.00  0.00     0.214 C 
BRANCH  22  23
HETATM   23  C   UNL     1       6.162  32.999  62.928  1.00  0.00    -0.034 A 
HETATM   24  C   UNL     1       7.383  33.184  63.603  1.00  0.00     0.009 A 
HETATM   25  C   UNL     1       7.413  33.581  64.940  1.00  0.00     0.001 A 
HETATM   26  C   UNL     1       6.223  33.797  65.627  1.00  0.00     0.000 A 
HETATM   27  C   UNL     1       5.005  33.623  64.974  1.00  0.00     0.001 A 
HETATM   28  C   UNL     1       4.973  33.235  63.631  1.00  0.00     0.009 A 
ENDBRANCH  22  23
ENDBRANCH  21  22
ENDBRANCH  16  21
ENDBRANCH  11  15
ENDBRANCH   1   9
TORSDOF 5
ENDMDL
