MODEL 1
REMARK VINA RESULT:      -9.4      0.000      0.000
REMARK  7 active torsions:
REMARK  status: ('A' for Active; 'I' for Inactive)
REMARK    1  A    between atoms: CG_4  and  CB_5 
REMARK    2  A    between atoms: CB_5  and  CA_6 
REMARK    3  A    between atoms: CA_6  and  N_7 
REMARK    4  A    between atoms: CA_6  and  C_8 
REMARK       I    between atoms: N_7  and  C_14 
REMARK    5  A    between atoms: C_8  and  O_9 
REMARK       I    between atoms: C_14  and  N_15 
REMARK    6  A    between atoms: N_15  and  C_16 
REMARK    7  A    between atoms: C_22  and  C_23 
ROOT
ATOM      1  N   PHE A   1       7.621  26.501  53.724  1.00  0.00    -0.336 N 
ATOM      2  H   PHE A   1       8.073  26.597  52.820  1.00  0.00     0.164 HD
HETATM    3  C   UNK A   0       7.684  27.662  54.436  1.00  0.00     0.321 C 
HETATM    4  N   UNK A   0       6.985  27.680  55.610  1.00  0.00    -0.309 N 
HETATM    5  O   UNK A   0       8.356  28.575  53.971  1.00  0.00    -0.247 OA
HETATM    6  H   UNK A   0       6.261  26.987  55.709  1.00  0.00     0.170 HD
ENDROOT
BRANCH   1   7
ATOM      7  CA  PHE A   1       6.937  25.242  54.018  1.00  0.00     0.113 C 
BRANCH   7   8
ATOM      8  CB  PHE A   1       7.360  24.111  53.050  1.00  0.00     0.065 C 
BRANCH   8   9
ATOM      9  CG  PHE A   1       7.683  22.779  53.689  1.00  0.00    -0.056 A 
ATOM     10  CD1 PHE A   1       7.675  22.643  55.085  1.00  0.00     0.007 A 
ATOM     11  CE1 PHE A   1       7.986  21.420  55.682  1.00  0.00     0.001 A 
ATOM     12  CZ  PHE A   1       8.299  20.318  54.890  1.00  0.00     0.000 A 
ATOM     13  CE2 PHE A   1       8.295  20.436  53.502  1.00  0.00     0.001 A 
ATOM     14  CD2 PHE A   1       7.986  21.659  52.904  1.00  0.00     0.007 A 
ENDBRANCH   8   9
ENDBRANCH   7   8
BRANCH   7  15
ATOM     15  C   PHE A   1       5.414  25.450  54.098  1.00  0.00     0.189 C 
BRANCH  15  16
ATOM     16  O   PHE A   1       4.986  25.575  55.450  1.00  0.00    -0.399 OA
ATOM     17  H   PHE A   1       5.350  24.822  55.946  1.00  0.00     0.209 HD
ENDBRANCH  15  16
ENDBRANCH   7  15
ENDBRANCH   1   7
BRANCH   4  18
HETATM   18  C   UNK A   0       7.040  28.663  56.622  1.00  0.00     0.038 A 
HETATM   19  C   UNK A   0       8.046  28.711  57.596  1.00  0.00     0.063 A 
HETATM   20  C   UNK A   0       7.986  29.700  58.590  1.00  0.00     0.087 A 
HETATM   21  C   UNK A   0       6.939  30.613  58.584  1.00  0.00     0.063 A 
HETATM   22  N   UNK A   0       8.831  29.935  59.649  1.00  0.00    -0.228 NA
HETATM   23  N   UNK A   0       7.180  31.416  59.669  1.00  0.00    -0.338 N 
HETATM   24  C   UNK A   0       5.923  30.604  57.631  1.00  0.00     0.034 A 
HETATM   25  H   UNK A   0       6.616  32.196  59.975  1.00  0.00     0.167 HD
HETATM   26  C   UNK A   0       8.323  30.972  60.290  1.00  0.00     0.170 A 
HETATM   27  C   UNK A   0       5.995  29.601  56.653  1.00  0.00     0.032 A 
BRANCH  26  28
HETATM   28  C   UNK A   0       8.832  31.635  61.517  1.00  0.00     0.422 C 
HETATM   29  F   UNK A   0       8.757  30.792  62.585  1.00  0.00    -0.206 F 
HETATM   30  F   UNK A   0      10.153  31.938  61.385  1.00  0.00    -0.206 F 
ENDBRANCH  26  28
ENDBRANCH   4  18
TORSDOF 7
ENDMDL
MODEL 2
REMARK VINA RESULT:      -9.1      1.334      1.969
REMARK  7 active torsions:
REMARK  status: ('A' for Active; 'I' for Inactive)
REMARK    1  A    between atoms: CG_4  and  CB_5 
REMARK    2  A    between atoms: CB_5  and  CA_6 
REMARK    3  A    between atoms: CA_6  and  N_7 
REMARK    4  A    between atoms: CA_6  and  C_8 
REMARK       I    between atoms: N_7  and  C_14 
REMARK    5  A    between atoms: C_8  and  O_9 
REMARK       I    between atoms: C_14  and  N_15 
REMARK    6  A    between atoms: N_15  and  C_16 
REMARK    7  A    between atoms: C_22  and  C_23 
ROOT
ATOM      1  N   PHE A   1       6.636  26.660  53.328  1.00  0.00    -0.336 N 
ATOM      2  H   PHE A   1       6.235  26.909  52.430  1.00  0.00     0.164 HD
HETATM    3  C   UNK A   0       7.097  27.761  53.987  1.00  0.00     0.321 C 
HETATM    4  N   UNK A   0       7.532  27.552  55.266  1.00  0.00    -0.309 N 
HETATM    5  O   UNK A   0       7.087  28.828  53.384  1.00  0.00    -0.247 OA
HETATM    6  H   UNK A   0       7.209  26.710  55.715  1.00  0.00     0.170 HD
ENDROOT
BRANCH   1   7
ATOM      7  CA  PHE A   1       6.544  25.265  53.757  1.00  0.00     0.113 C 
BRANCH   7   8
ATOM      8  CB  PHE A   1       7.840  24.477  53.451  1.00  0.00     0.065 C 
BRANCH   8   9
ATOM      9  CG  PHE A   1       7.869  23.040  53.924  1.00  0.00    -0.056 A 
ATOM     10  CD1 PHE A   1       7.958  21.992  52.996  1.00  0.00     0.007 A 
ATOM     11  CE1 PHE A   1       7.972  20.664  53.424  1.00  0.00     0.001 A 
ATOM     12  CZ  PHE A   1       7.907  20.369  54.784  1.00  0.00     0.000 A 
ATOM     13  CE2 PHE A   1       7.835  21.402  55.716  1.00  0.00     0.001 A 
ATOM     14  CD2 PHE A   1       7.819  22.731  55.289  1.00  0.00     0.007 A 
ENDBRANCH   8   9
ENDBRANCH   7   8
BRANCH   7  15
ATOM     15  C   PHE A   1       5.272  24.602  53.201  1.00  0.00     0.189 C 
BRANCH  15  16
ATOM     16  O   PHE A   1       4.179  25.514  53.201  1.00  0.00    -0.399 OA
ATOM     17  H   PHE A   1       4.475  26.331  53.639  1.00  0.00     0.209 HD
ENDBRANCH  15  16
ENDBRANCH   7  15
ENDBRANCH   1   7
BRANCH   4  18
HETATM   18  C   UNK A   0       8.232  28.460  56.090  1.00  0.00     0.038 A 
HETATM   19  C   UNK A   0       7.765  28.879  57.343  1.00  0.00     0.063 A 
HETATM   20  C   UNK A   0       8.511  29.823  58.067  1.00  0.00     0.087 A 
HETATM   21  C   UNK A   0       9.695  30.315  57.532  1.00  0.00     0.063 A 
HETATM   22  N   UNK A   0       8.253  30.397  59.290  1.00  0.00    -0.228 NA
HETATM   23  N   UNK A   0      10.154  31.199  58.475  1.00  0.00    -0.338 N 
HETATM   24  C   UNK A   0      10.196  29.919  56.294  1.00  0.00     0.034 A 
HETATM   25  H   UNK A   0      11.000  31.749  58.419  1.00  0.00     0.167 HD
HETATM   26  C   UNK A   0       9.255  31.228  59.514  1.00  0.00     0.170 A 
HETATM   27  C   UNK A   0       9.431  28.984  55.582  1.00  0.00     0.032 A 
BRANCH  26  28
HETATM   28  C   UNK A   0       9.470  32.115  60.685  1.00  0.00     0.422 C 
HETATM   29  F   UNK A   0       8.281  32.585  61.156  1.00  0.00    -0.206 F 
HETATM   30  F   UNK A   0      10.022  31.420  61.718  1.00  0.00    -0.206 F 
ENDBRANCH  26  28
ENDBRANCH   4  18
TORSDOF 7
ENDMDL
MODEL 3
REMARK VINA RESULT:      -8.8      5.812      7.945
REMARK  7 active torsions:
REMARK  status: ('A' for Active; 'I' for Inactive)
REMARK    1  A    between atoms: CG_4  and  CB_5 
REMARK    2  A    between atoms: CB_5  and  CA_6 
REMARK    3  A    between atoms: CA_6  and  N_7 
REMARK    4  A    between atoms: CA_6  and  C_8 
REMARK       I    between atoms: N_7  and  C_14 
REMARK    5  A    between atoms: C_8  and  O_9 
REMARK       I    between atoms: C_14  and  N_15 
REMARK    6  A    between atoms: N_15  and  C_16 
REMARK    7  A    between atoms: C_22  and  C_23 
ROOT
ATOM      1  N   PHE A   1       6.451  25.799  56.350  1.00  0.00    -0.336 N 
ATOM      2  H   PHE A   1       6.036  26.008  57.252  1.00  0.00     0.164 HD
HETATM    3  C   UNK A   0       5.870  26.527  55.355  1.00  0.00     0.321 C 
HETATM    4  N   UNK A   0       6.450  26.421  54.122  1.00  0.00    -0.309 N 
HETATM    5  O   UNK A   0       4.889  27.201  55.646  1.00  0.00    -0.247 OA
HETATM    6  H   UNK A   0       7.397  26.079  54.102  1.00  0.00     0.170 HD
ENDROOT
BRANCH   1   7
ATOM      7  CA  PHE A   1       7.598  24.891  56.319  1.00  0.00     0.113 C 
BRANCH   7   8
ATOM      8  CB  PHE A   1       7.168  23.408  56.409  1.00  0.00     0.065 C 
BRANCH   8   9
ATOM      9  CG  PHE A   1       7.525  22.541  55.222  1.00  0.00    -0.056 A 
ATOM     10  CD1 PHE A   1       7.789  21.174  55.398  1.00  0.00     0.007 A 
ATOM     11  CE1 PHE A   1       8.132  20.372  54.310  1.00  0.00     0.001 A 
ATOM     12  CZ  PHE A   1       8.205  20.922  53.033  1.00  0.00     0.000 A 
ATOM     13  CE2 PHE A   1       7.929  22.274  52.843  1.00  0.00     0.001 A 
ATOM     14  CD2 PHE A   1       7.588  23.079  53.930  1.00  0.00     0.007 A 
ENDBRANCH   8   9
ENDBRANCH   7   8
BRANCH   7  15
ATOM     15  C   PHE A   1       8.648  25.296  57.368  1.00  0.00     0.189 C 
BRANCH  15  16
ATOM     16  O   PHE A   1       8.029  25.632  58.606  1.00  0.00    -0.399 OA
ATOM     17  H   PHE A   1       8.343  24.998  59.274  1.00  0.00     0.209 HD
ENDBRANCH  15  16
ENDBRANCH   7  15
ENDBRANCH   1   7
BRANCH   4  18
HETATM   18  C   UNK A   0       5.942  26.899  52.894  1.00  0.00     0.038 A 
HETATM   19  C   UNK A   0       5.455  26.060  51.883  1.00  0.00     0.063 A 
HETATM   20  C   UNK A   0       5.015  26.630  50.678  1.00  0.00     0.087 A 
HETATM   21  C   UNK A   0       5.064  28.009  50.515  1.00  0.00     0.063 A 
HETATM   22  N   UNK A   0       4.522  26.023  49.546  1.00  0.00    -0.228 NA
HETATM   23  N   UNK A   0       4.575  28.221  49.252  1.00  0.00    -0.338 N 
HETATM   24  C   UNK A   0       5.534  28.878  51.498  1.00  0.00     0.034 A 
HETATM   25  H   UNK A   0       4.466  29.115  48.794  1.00  0.00     0.167 HD
HETATM   26  C   UNK A   0       4.268  27.002  48.697  1.00  0.00     0.170 A 
HETATM   27  C   UNK A   0       5.979  28.288  52.690  1.00  0.00     0.032 A 
BRANCH  26  28
HETATM   28  C   UNK A   0       3.733  26.905  47.315  1.00  0.00     0.422 C 
HETATM   29  F   UNK A   0       3.146  25.693  47.111  1.00  0.00    -0.206 F 
HETATM   30  F   UNK A   0       2.748  27.825  47.118  1.00  0.00    -0.206 F 
ENDBRANCH  26  28
ENDBRANCH   4  18
TORSDOF 7
ENDMDL
MODEL 4
REMARK VINA RESULT:      -8.7      1.619      2.316
REMARK  7 active torsions:
REMARK  status: ('A' for Active; 'I' for Inactive)
REMARK    1  A    between atoms: CG_4  and  CB_5 
REMARK    2  A    between atoms: CB_5  and  CA_6 
REMARK    3  A    between atoms: CA_6  and  N_7 
REMARK    4  A    between atoms: CA_6  and  C_8 
REMARK       I    between atoms: N_7  and  C_14 
REMARK    5  A    between atoms: C_8  and  O_9 
REMARK       I    between atoms: C_14  and  N_15 
REMARK    6  A    between atoms: N_15  and  C_16 
REMARK    7  A    between atoms: C_22  and  C_23 
ROOT
ATOM      1  N   PHE A   1       7.582  26.449  53.355  1.00  0.00    -0.336 N 
ATOM      2  H   PHE A   1       8.018  26.617  52.455  1.00  0.00     0.164 HD
HETATM    3  C   UNK A   0       7.621  27.563  54.141  1.00  0.00     0.321 C 
HETATM    4  N   UNK A   0       6.938  27.484  55.322  1.00  0.00    -0.309 N 
HETATM    5  O   UNK A   0       8.260  28.524  53.729  1.00  0.00    -0.247 OA
HETATM    6  H   UNK A   0       6.235  26.765  55.384  1.00  0.00     0.170 HD
ENDROOT
BRANCH   1   7
ATOM      7  CA  PHE A   1       6.938  25.154  53.574  1.00  0.00     0.113 C 
BRANCH   7   8
ATOM      8  CB  PHE A   1       7.716  23.998  52.902  1.00  0.00     0.065 C 
BRANCH   8   9
ATOM      9  CG  PHE A   1       7.838  22.724  53.709  1.00  0.00    -0.056 A 
ATOM     10  CD1 PHE A   1       8.098  21.503  53.068  1.00  0.00     0.007 A 
ATOM     11  CE1 PHE A   1       8.198  20.322  53.805  1.00  0.00     0.001 A 
ATOM     12  CZ  PHE A   1       8.050  20.349  55.189  1.00  0.00     0.000 A 
ATOM     13  CE2 PHE A   1       7.808  21.558  55.838  1.00  0.00     0.001 A 
ATOM     14  CD2 PHE A   1       7.705  22.740  55.103  1.00  0.00     0.007 A 
ENDBRANCH   8   9
ENDBRANCH   7   8
BRANCH   7  15
ATOM     15  C   PHE A   1       5.450  25.207  53.185  1.00  0.00     0.189 C 
BRANCH  15  16
ATOM     16  O   PHE A   1       4.646  25.602  54.292  1.00  0.00    -0.399 OA
ATOM     17  H   PHE A   1       3.800  25.927  53.940  1.00  0.00     0.209 HD
ENDBRANCH  15  16
ENDBRANCH   7  15
ENDBRANCH   1   7
BRANCH   4  18
HETATM   18  C   UNK A   0       6.977  28.401  56.395  1.00  0.00     0.038 A 
HETATM   19  C   UNK A   0       5.995  29.377  56.610  1.00  0.00     0.063 A 
HETATM   20  C   UNK A   0       6.149  30.274  57.679  1.00  0.00     0.087 A 
HETATM   21  C   UNK A   0       7.263  30.173  58.503  1.00  0.00     0.063 A 
HETATM   22  N   UNK A   0       5.343  31.316  58.075  1.00  0.00    -0.228 NA
HETATM   23  N   UNK A   0       7.103  31.181  59.418  1.00  0.00    -0.338 N 
HETATM   24  C   UNK A   0       8.258  29.213  58.327  1.00  0.00     0.034 A 
HETATM   25  H   UNK A   0       7.732  31.407  60.176  1.00  0.00     0.167 HD
HETATM   26  C   UNK A   0       5.941  31.852  59.124  1.00  0.00     0.170 A 
HETATM   27  C   UNK A   0       8.091  28.333  57.248  1.00  0.00     0.032 A 
BRANCH  26  28
HETATM   28  C   UNK A   0       5.507  33.019  59.933  1.00  0.00     0.422 C 
HETATM   29  F   UNK A   0       4.187  32.915  60.256  1.00  0.00    -0.206 F 
HETATM   30  F   UNK A   0       6.171  33.050  61.122  1.00  0.00    -0.206 F 
ENDBRANCH  26  28
ENDBRANCH   4  18
TORSDOF 7
ENDMDL
MODEL 5
REMARK VINA RESULT:      -8.7      4.584      8.639
REMARK  7 active torsions:
REMARK  status: ('A' for Active; 'I' for Inactive)
REMARK    1  A    between atoms: CG_4  and  CB_5 
REMARK    2  A    between atoms: CB_5  and  CA_6 
REMARK    3  A    between atoms: CA_6  and  N_7 
REMARK    4  A    between atoms: CA_6  and  C_8 
REMARK       I    between atoms: N_7  and  C_14 
REMARK    5  A    between atoms: C_8  and  O_9 
REMARK       I    between atoms: C_14  and  N_15 
REMARK    6  A    between atoms: N_15  and  C_16 
REMARK    7  A    between atoms: C_22  and  C_23 
ROOT
ATOM      1  N   PHE A   1       5.054  28.268  57.133  1.00  0.00    -0.336 N 
ATOM      2  H   PHE A   1       4.132  28.303  57.554  1.00  0.00     0.164 HD
HETATM    3  C   UNK A   0       5.416  26.986  56.839  1.00  0.00     0.321 C 
HETATM    4  N   UNK A   0       6.583  26.841  56.143  1.00  0.00    -0.309 N 
HETATM    5  O   UNK A   0       4.677  26.087  57.224  1.00  0.00    -0.247 OA
HETATM    6  H   UNK A   0       6.914  27.655  55.652  1.00  0.00     0.170 HD
ENDROOT
BRANCH   1   7
ATOM      7  CA  PHE A   1       5.724  29.535  56.842  1.00  0.00     0.113 C 
BRANCH   7   8
ATOM      8  CB  PHE A   1       6.554  30.043  58.045  1.00  0.00     0.065 C 
BRANCH   8   9
ATOM      9  CG  PHE A   1       8.044  30.167  57.817  1.00  0.00    -0.056 A 
ATOM     10  CD1 PHE A   1       8.792  31.115  58.531  1.00  0.00     0.007 A 
ATOM     11  CE1 PHE A   1      10.165  31.245  58.316  1.00  0.00     0.001 A 
ATOM     12  CZ  PHE A   1      10.806  30.423  57.394  1.00  0.00     0.000 A 
ATOM     13  CE2 PHE A   1      10.078  29.467  56.690  1.00  0.00     0.001 A 
ATOM     14  CD2 PHE A   1       8.704  29.337  56.902  1.00  0.00     0.007 A 
ENDBRANCH   8   9
ENDBRANCH   7   8
BRANCH   7  15
ATOM     15  C   PHE A   1       4.726  30.571  56.297  1.00  0.00     0.189 C 
BRANCH  15  16
ATOM     16  O   PHE A   1       5.340  31.408  55.322  1.00  0.00    -0.399 OA
ATOM     17  H   PHE A   1       4.835  31.317  54.495  1.00  0.00     0.209 HD
ENDBRANCH  15  16
ENDBRANCH   7  15
ENDBRANCH   1   7
BRANCH   4  18
HETATM   18  C   UNK A   0       7.282  25.641  55.887  1.00  0.00     0.038 A 
HETATM   19  C   UNK A   0       7.074  24.859  54.743  1.00  0.00     0.063 A 
HETATM   20  C   UNK A   0       7.784  23.655  54.603  1.00  0.00     0.087 A 
HETATM   21  C   UNK A   0       8.679  23.270  55.592  1.00  0.00     0.063 A 
HETATM   22  N   UNK A   0       7.738  22.720  53.596  1.00  0.00    -0.228 NA
HETATM   23  N   UNK A   0       9.183  22.074  55.149  1.00  0.00    -0.338 N 
HETATM   24  C   UNK A   0       8.919  24.021  56.741  1.00  0.00     0.034 A 
HETATM   25  H   UNK A   0       9.867  21.500  55.622  1.00  0.00     0.167 HD
HETATM   26  C   UNK A   0       8.587  21.772  53.949  1.00  0.00     0.170 A 
HETATM   27  C   UNK A   0       8.192  25.214  56.868  1.00  0.00     0.032 A 
BRANCH  26  28
HETATM   28  C   UNK A   0       8.916  20.516  53.227  1.00  0.00     0.422 C 
HETATM   29  F   UNK A   0       9.190  19.513  54.108  1.00  0.00    -0.206 F 
HETATM   30  F   UNK A   0       7.845  20.084  52.505  1.00  0.00    -0.206 F 
ENDBRANCH  26  28
ENDBRANCH   4  18
TORSDOF 7
ENDMDL
MODEL 6
REMARK VINA RESULT:      -8.5      5.224      8.052
REMARK  7 active torsions:
REMARK  status: ('A' for Active; 'I' for Inactive)
REMARK    1  A    between atoms: CG_4  and  CB_5 
REMARK    2  A    between atoms: CB_5  and  CA_6 
REMARK    3  A    between atoms: CA_6  and  N_7 
REMARK    4  A    between atoms: CA_6  and  C_8 
REMARK       I    between atoms: N_7  and  C_14 
REMARK    5  A    between atoms: C_8  and  O_9 
REMARK       I    between atoms: C_14  and  N_15 
REMARK    6  A    between atoms: N_15  and  C_16 
REMARK    7  A    between atoms: C_22  and  C_23 
ROOT
ATOM      1  N   PHE A   1       6.009  28.977  52.597  1.00  0.00    -0.336 N 
ATOM      2  H   PHE A   1       6.359  29.864  52.943  1.00  0.00     0.164 HD
HETATM    3  C   UNK A   0       6.618  27.927  53.219  1.00  0.00     0.321 C 
HETATM    4  N   UNK A   0       6.120  26.689  52.924  1.00  0.00    -0.309 N 
HETATM    5  O   UNK A   0       7.549  28.180  53.974  1.00  0.00    -0.247 OA
HETATM    6  H   UNK A   0       5.191  26.663  52.535  1.00  0.00     0.170 HD
ENDROOT
BRANCH   1   7
ATOM      7  CA  PHE A   1       4.907  29.003  51.636  1.00  0.00     0.113 C 
BRANCH   7   8
ATOM      8  CB  PHE A   1       5.407  28.893  50.176  1.00  0.00     0.065 C 
BRANCH   8   9
ATOM      9  CG  PHE A   1       4.615  27.975  49.272  1.00  0.00    -0.056 A 
ATOM     10  CD1 PHE A   1       3.936  28.491  48.158  1.00  0.00     0.007 A 
ATOM     11  CE1 PHE A   1       3.192  27.652  47.328  1.00  0.00     0.001 A 
ATOM     12  CZ  PHE A   1       3.127  26.287  47.594  1.00  0.00     0.000 A 
ATOM     13  CE2 PHE A   1       3.811  25.759  48.687  1.00  0.00     0.001 A 
ATOM     14  CD2 PHE A   1       4.553  26.597  49.520  1.00  0.00     0.007 A 
ENDBRANCH   8   9
ENDBRANCH   7   8
BRANCH   7  15
ATOM     15  C   PHE A   1       3.988  30.212  51.886  1.00  0.00     0.189 C 
BRANCH  15  16
ATOM     16  O   PHE A   1       2.746  29.802  52.449  1.00  0.00    -0.399 OA
ATOM     17  H   PHE A   1       2.044  30.039  51.818  1.00  0.00     0.209 HD
ENDBRANCH  15  16
ENDBRANCH   7  15
ENDBRANCH   1   7
BRANCH   4  18
HETATM   18  C   UNK A   0       6.680  25.439  53.265  1.00  0.00     0.038 A 
HETATM   19  C   UNK A   0       6.560  24.863  54.537  1.00  0.00     0.063 A 
HETATM   20  C   UNK A   0       7.195  23.637  54.792  1.00  0.00     0.087 A 
HETATM   21  C   UNK A   0       7.920  23.018  53.781  1.00  0.00     0.063 A 
HETATM   22  N   UNK A   0       7.241  22.894  55.949  1.00  0.00    -0.228 NA
HETATM   23  N   UNK A   0       8.400  21.871  54.358  1.00  0.00    -0.338 N 
HETATM   24  C   UNK A   0       8.058  23.555  52.503  1.00  0.00     0.034 A 
HETATM   25  H   UNK A   0       8.975  21.171  53.911  1.00  0.00     0.167 HD
HETATM   26  C   UNK A   0       7.977  21.835  55.665  1.00  0.00     0.170 A 
HETATM   27  C   UNK A   0       7.426  24.785  52.271  1.00  0.00     0.032 A 
BRANCH  26  28
HETATM   28  C   UNK A   0       8.359  20.713  56.560  1.00  0.00     0.422 C 
HETATM   29  F   UNK A   0       9.654  20.348  56.348  1.00  0.00    -0.206 F 
HETATM   30  F   UNK A   0       8.299  21.101  57.865  1.00  0.00    -0.206 F 
ENDBRANCH  26  28
ENDBRANCH   4  18
TORSDOF 7
ENDMDL
MODEL 7
REMARK VINA RESULT:      -8.4      4.388      9.336
REMARK  7 active torsions:
REMARK  status: ('A' for Active; 'I' for Inactive)
REMARK    1  A    between atoms: CG_4  and  CB_5 
REMARK    2  A    between atoms: CB_5  and  CA_6 
REMARK    3  A    between atoms: CA_6  and  N_7 
REMARK    4  A    between atoms: CA_6  and  C_8 
REMARK       I    between atoms: N_7  and  C_14 
REMARK    5  A    between atoms: C_8  and  O_9 
REMARK       I    between atoms: C_14  and  N_15 
REMARK    6  A    between atoms: N_15  and  C_16 
REMARK    7  A    between atoms: C_22  and  C_23 
ROOT
ATOM      1  N   PHE A   1       7.713  28.477  58.290  1.00  0.00    -0.336 N 
ATOM      2  H   PHE A   1       7.744  28.374  59.298  1.00  0.00     0.164 HD
HETATM    3  C   UNK A   0       7.587  27.269  57.671  1.00  0.00     0.321 C 
HETATM    4  N   UNK A   0       7.398  27.308  56.318  1.00  0.00    -0.309 N 
HETATM    5  O   UNK A   0       7.659  26.265  58.370  1.00  0.00    -0.247 OA
HETATM    6  H   UNK A   0       7.070  28.181  55.939  1.00  0.00     0.170 HD
ENDROOT
BRANCH   1   7
ATOM      7  CA  PHE A   1       7.700  29.832  57.740  1.00  0.00     0.113 C 
BRANCH   7   8
ATOM      8  CB  PHE A   1       8.815  30.717  58.346  1.00  0.00     0.065 C 
BRANCH   8   9
ATOM      9  CG  PHE A   1       8.597  31.174  59.771  1.00  0.00    -0.056 A 
ATOM     10  CD1 PHE A   1       9.144  30.447  60.839  1.00  0.00     0.007 A 
ATOM     11  CE1 PHE A   1       8.935  30.856  62.157  1.00  0.00     0.001 A 
ATOM     12  CZ  PHE A   1       8.188  32.000  62.421  1.00  0.00     0.000 A 
ATOM     13  CE2 PHE A   1       7.654  32.740  61.369  1.00  0.00     0.001 A 
ATOM     14  CD2 PHE A   1       7.859  32.332  60.050  1.00  0.00     0.007 A 
ENDBRANCH   8   9
ENDBRANCH   7   8
BRANCH   7  15
ATOM     15  C   PHE A   1       6.295  30.452  57.842  1.00  0.00     0.189 C 
BRANCH  15  16
ATOM     16  O   PHE A   1       5.291  29.443  57.857  1.00  0.00    -0.399 OA
ATOM     17  H   PHE A   1       4.458  29.859  58.138  1.00  0.00     0.209 HD
ENDBRANCH  15  16
ENDBRANCH   7  15
ENDBRANCH   1   7
BRANCH   4  18
HETATM   18  C   UNK A   0       7.437  26.221  55.417  1.00  0.00     0.038 A 
HETATM   19  C   UNK A   0       7.500  24.883  55.828  1.00  0.00     0.063 A 
HETATM   20  C   UNK A   0       7.584  23.875  54.855  1.00  0.00     0.087 A 
HETATM   21  C   UNK A   0       7.594  24.222  53.510  1.00  0.00     0.063 A 
HETATM   22  N   UNK A   0       7.676  22.511  55.007  1.00  0.00    -0.228 NA
HETATM   23  N   UNK A   0       7.686  23.024  52.849  1.00  0.00    -0.338 N 
HETATM   24  C   UNK A   0       7.526  25.539  53.060  1.00  0.00     0.034 A 
HETATM   25  H   UNK A   0       7.720  22.892  51.848  1.00  0.00     0.167 HD
HETATM   26  C   UNK A   0       7.742  22.018  53.784  1.00  0.00     0.170 A 
HETATM   27  C   UNK A   0       7.454  26.532  54.048  1.00  0.00     0.032 A 
BRANCH  26  28
HETATM   28  C   UNK A   0       7.867  20.597  53.370  1.00  0.00     0.422 C 
HETATM   29  F   UNK A   0       8.595  20.493  52.223  1.00  0.00    -0.206 F 
HETATM   30  F   UNK A   0       8.558  19.886  54.305  1.00  0.00    -0.206 F 
ENDBRANCH  26  28
ENDBRANCH   4  18
TORSDOF 7
ENDMDL
MODEL 8
REMARK VINA RESULT:      -8.3      5.625      8.417
REMARK  7 active torsions:
REMARK  status: ('A' for Active; 'I' for Inactive)
REMARK    1  A    between atoms: CG_4  and  CB_5 
REMARK    2  A    between atoms: CB_5  and  CA_6 
REMARK    3  A    between atoms: CA_6  and  N_7 
REMARK    4  A    between atoms: CA_6  and  C_8 
REMARK       I    between atoms: N_7  and  C_14 
REMARK    5  A    between atoms: C_8  and  O_9 
REMARK       I    between atoms: C_14  and  N_15 
REMARK    6  A    between atoms: N_15  and  C_16 
REMARK    7  A    between atoms: C_22  and  C_23 
ROOT
ATOM      1  N   PHE A   1       5.457  28.534  52.060  1.00  0.00    -0.336 N 
ATOM      2  H   PHE A   1       5.909  29.436  51.957  1.00  0.00     0.164 HD
HETATM    3  C   UNK A   0       6.152  27.726  52.910  1.00  0.00     0.321 C 
HETATM    4  N   UNK A   0       5.555  26.538  53.226  1.00  0.00    -0.309 N 
HETATM    5  O   UNK A   0       7.240  28.126  53.309  1.00  0.00    -0.247 OA
HETATM    6  H   UNK A   0       4.562  26.481  53.068  1.00  0.00     0.170 HD
ENDROOT
BRANCH   1   7
ATOM      7  CA  PHE A   1       4.167  28.334  51.401  1.00  0.00     0.113 C 
BRANCH   7   8
ATOM      8  CB  PHE A   1       4.195  28.785  49.921  1.00  0.00     0.065 C 
BRANCH   8   9
ATOM      9  CG  PHE A   1       3.594  27.820  48.923  1.00  0.00    -0.056 A 
ATOM     10  CD1 PHE A   1       4.208  26.583  48.678  1.00  0.00     0.007 A 
ATOM     11  CE1 PHE A   1       3.667  25.693  47.748  1.00  0.00     0.001 A 
ATOM     12  CZ  PHE A   1       2.502  26.026  47.062  1.00  0.00     0.000 A 
ATOM     13  CE2 PHE A   1       1.874  27.244  47.310  1.00  0.00     0.001 A 
ATOM     14  CD2 PHE A   1       2.414  28.136  48.237  1.00  0.00     0.007 A 
ENDBRANCH   8   9
ENDBRANCH   7   8
BRANCH   7  15
ATOM     15  C   PHE A   1       3.028  28.967  52.219  1.00  0.00     0.189 C 
BRANCH  15  16
ATOM     16  O   PHE A   1       1.757  28.545  51.738  1.00  0.00    -0.399 OA
ATOM     17  H   PHE A   1       1.906  28.013  50.937  1.00  0.00     0.209 HD
ENDBRANCH  15  16
ENDBRANCH   7  15
ENDBRANCH   1   7
BRANCH   4  18
HETATM   18  C   UNK A   0       6.132  25.446  53.911  1.00  0.00     0.038 A 
HETATM   19  C   UNK A   0       6.709  24.347  53.260  1.00  0.00     0.063 A 
HETATM   20  C   UNK A   0       7.214  23.288  54.030  1.00  0.00     0.087 A 
HETATM   21  C   UNK A   0       7.140  23.353  55.416  1.00  0.00     0.063 A 
HETATM   22  N   UNK A   0       7.799  22.109  53.629  1.00  0.00    -0.228 NA
HETATM   23  N   UNK A   0       7.707  22.181  55.844  1.00  0.00    -0.338 N 
HETATM   24  C   UNK A   0       6.581  24.430  56.101  1.00  0.00     0.034 A 
HETATM   25  H   UNK A   0       7.823  21.886  56.803  1.00  0.00     0.167 HD
HETATM   26  C   UNK A   0       8.084  21.454  54.740  1.00  0.00     0.170 A 
HETATM   27  C   UNK A   0       6.072  25.473  55.313  1.00  0.00     0.032 A 
BRANCH  26  28
HETATM   28  C   UNK A   0       8.713  20.117  54.883  1.00  0.00     0.422 C 
HETATM   29  F   UNK A   0       9.226  19.697  53.693  1.00  0.00    -0.206 F 
HETATM   30  F   UNK A   0       9.775  20.177  55.735  1.00  0.00    -0.206 F 
ENDBRANCH  26  28
ENDBRANCH   4  18
TORSDOF 7
ENDMDL
MODEL 9
REMARK VINA RESULT:      -8.2      2.036      2.398
REMARK  7 active torsions:
REMARK  status: ('A' for Active; 'I' for Inactive)
REMARK    1  A    between atoms: CG_4  and  CB_5 
REMARK    2  A    between atoms: CB_5  and  CA_6 
REMARK    3  A    between atoms: CA_6  and  N_7 
REMARK    4  A    between atoms: CA_6  and  C_8 
REMARK       I    between atoms: N_7  and  C_14 
REMARK    5  A    between atoms: C_8  and  O_9 
REMARK       I    between atoms: C_14  and  N_15 
REMARK    6  A    between atoms: N_15  and  C_16 
REMARK    7  A    between atoms: C_22  and  C_23 
ROOT
ATOM      1  N   PHE A   1       6.579  26.495  52.549  1.00  0.00    -0.336 N 
ATOM      2  H   PHE A   1       6.939  26.619  51.609  1.00  0.00     0.164 HD
HETATM    3  C   UNK A   0       6.240  27.690  53.111  1.00  0.00     0.321 C 
HETATM    4  N   UNK A   0       5.617  27.622  54.326  1.00  0.00    -0.309 N 
HETATM    5  O   UNK A   0       6.524  28.708  52.491  1.00  0.00    -0.247 OA
HETATM    6  H   UNK A   0       5.195  26.740  54.562  1.00  0.00     0.170 HD
ENDROOT
BRANCH   1   7
ATOM      7  CA  PHE A   1       6.404  25.129  53.042  1.00  0.00     0.113 C 
BRANCH   7   8
ATOM      8  CB  PHE A   1       7.620  24.231  52.711  1.00  0.00     0.065 C 
BRANCH   8   9
ATOM      9  CG  PHE A   1       7.723  22.941  53.493  1.00  0.00    -0.056 A 
ATOM     10  CD1 PHE A   1       7.567  22.944  54.887  1.00  0.00     0.007 A 
ATOM     11  CE1 PHE A   1       7.675  21.759  55.616  1.00  0.00     0.001 A 
ATOM     12  CZ  PHE A   1       7.929  20.558  54.960  1.00  0.00     0.000 A 
ATOM     13  CE2 PHE A   1       8.069  20.539  53.575  1.00  0.00     0.001 A 
ATOM     14  CD2 PHE A   1       7.964  21.723  52.844  1.00  0.00     0.007 A 
ENDBRANCH   8   9
ENDBRANCH   7   8
BRANCH   7  15
ATOM     15  C   PHE A   1       5.059  24.546  52.576  1.00  0.00     0.189 C 
BRANCH  15  16
ATOM     16  O   PHE A   1       3.979  25.078  53.337  1.00  0.00    -0.399 OA
ATOM     17  H   PHE A   1       4.359  25.548  54.100  1.00  0.00     0.209 HD
ENDBRANCH  15  16
ENDBRANCH   7  15
ENDBRANCH   1   7
BRANCH   4  18
HETATM   18  C   UNK A   0       5.343  28.692  55.207  1.00  0.00     0.038 A 
HETATM   19  C   UNK A   0       6.204  29.074  56.244  1.00  0.00     0.063 A 
HETATM   20  C   UNK A   0       5.819  30.120  57.098  1.00  0.00     0.087 A 
HETATM   21  C   UNK A   0       4.602  30.758  56.893  1.00  0.00     0.063 A 
HETATM   22  N   UNK A   0       6.473  30.655  58.184  1.00  0.00    -0.228 NA
HETATM   23  N   UNK A   0       4.542  31.704  57.883  1.00  0.00    -0.338 N 
HETATM   24  C   UNK A   0       3.722  30.413  55.870  1.00  0.00     0.034 A 
HETATM   25  H   UNK A   0       3.789  32.359  58.042  1.00  0.00     0.167 HD
HETATM   26  C   UNK A   0       5.681  31.606  58.645  1.00  0.00     0.170 A 
HETATM   27  C   UNK A   0       4.119  29.358  55.035  1.00  0.00     0.032 A 
BRANCH  26  28
HETATM   28  C   UNK A   0       5.896  32.493  59.816  1.00  0.00     0.422 C 
HETATM   29  F   UNK A   0       7.225  32.729  60.003  1.00  0.00    -0.206 F 
HETATM   30  F   UNK A   0       5.336  33.716  59.599  1.00  0.00    -0.206 F 
ENDBRANCH  26  28
ENDBRANCH   4  18
TORSDOF 7
ENDMDL
MODEL 10
REMARK VINA RESULT:      -8.1      5.356      7.604
REMARK  7 active torsions:
REMARK  status: ('A' for Active; 'I' for Inactive)
REMARK    1  A    between atoms: CG_4  and  CB_5 
REMARK    2  A    between atoms: CB_5  and  CA_6 
REMARK    3  A    between atoms: CA_6  and  N_7 
REMARK    4  A    between atoms: CA_6  and  C_8 
REMARK       I    between atoms: N_7  and  C_14 
REMARK    5  A    between atoms: C_8  and  O_9 
REMARK       I    between atoms: C_14  and  N_15 
REMARK    6  A    between atoms: N_15  and  C_16 
REMARK    7  A    between atoms: C_22  and  C_23 
ROOT
ATOM      1  N   PHE A   1       6.476  26.173  56.063  1.00  0.00    -0.336 N 
ATOM      2  H   PHE A   1       6.123  26.572  56.926  1.00  0.00     0.164 HD
HETATM    3  C   UNK A   0       5.957  26.807  54.974  1.00  0.00     0.321 C 
HETATM    4  N   UNK A   0       6.474  26.436  53.765  1.00  0.00    -0.309 N 
HETATM    5  O   UNK A   0       5.079  27.640  55.169  1.00  0.00    -0.247 OA
HETATM    6  H   UNK A   0       7.369  25.975  53.785  1.00  0.00     0.170 HD
ENDROOT
BRANCH   1   7
ATOM      7  CA  PHE A   1       7.498  25.130  56.158  1.00  0.00     0.113 C 
BRANCH   7   8
ATOM      8  CB  PHE A   1       6.879  23.712  56.186  1.00  0.00     0.065 C 
BRANCH   8   9
ATOM      9  CG  PHE A   1       7.437  22.726  55.184  1.00  0.00    -0.056 A 
ATOM     10  CD1 PHE A   1       7.929  21.484  55.612  1.00  0.00     0.007 A 
ATOM     11  CE1 PHE A   1       8.457  20.575  54.694  1.00  0.00     0.001 A 
ATOM     12  CZ  PHE A   1       8.490  20.893  53.338  1.00  0.00     0.000 A 
ATOM     13  CE2 PHE A   1       7.989  22.116  52.899  1.00  0.00     0.001 A 
ATOM     14  CD2 PHE A   1       7.462  23.027  53.816  1.00  0.00     0.007 A 
ENDBRANCH   8   9
ENDBRANCH   7   8
BRANCH   7  15
ATOM     15  C   PHE A   1       8.460  25.408  57.327  1.00  0.00     0.189 C 
BRANCH  15  16
ATOM     16  O   PHE A   1       8.349  26.757  57.769  1.00  0.00    -0.399 OA
ATOM     17  H   PHE A   1       7.752  27.221  57.158  1.00  0.00     0.209 HD
ENDBRANCH  15  16
ENDBRANCH   7  15
ENDBRANCH   1   7
BRANCH   4  18
HETATM   18  C   UNK A   0       5.987  26.780  52.485  1.00  0.00     0.038 A 
HETATM   19  C   UNK A   0       5.909  28.100  52.020  1.00  0.00     0.063 A 
HETATM   20  C   UNK A   0       5.365  28.344  50.750  1.00  0.00     0.087 A 
HETATM   21  C   UNK A   0       4.922  27.276  49.978  1.00  0.00     0.063 A 
HETATM   22  N   UNK A   0       5.166  29.535  50.092  1.00  0.00    -0.228 NA
HETATM   23  N   UNK A   0       4.457  27.857  48.827  1.00  0.00    -0.338 N 
HETATM   24  C   UNK A   0       4.988  25.950  50.401  1.00  0.00     0.034 A 
HETATM   25  H   UNK A   0       4.056  27.377  48.033  1.00  0.00     0.167 HD
HETATM   26  C   UNK A   0       4.612  29.218  48.935  1.00  0.00     0.170 A 
HETATM   27  C   UNK A   0       5.525  25.728  51.677  1.00  0.00     0.032 A 
BRANCH  26  28
HETATM   28  C   UNK A   0       4.177  30.126  47.844  1.00  0.00     0.422 C 
HETATM   29  F   UNK A   0       4.463  31.421  48.154  1.00  0.00    -0.206 F 
HETATM   30  F   UNK A   0       4.867  29.865  46.700  1.00  0.00    -0.206 F 
ENDBRANCH  26  28
ENDBRANCH   4  18
TORSDOF 7
ENDMDL
