MODEL 1
REMARK VINA RESULT:      -8.6      0.000      0.000
REMARK  8 active torsions:
REMARK  status: ('A' for Active; 'I' for Inactive)
REMARK    1  A    between atoms: C_7  and  N_8 
REMARK    2  A    between atoms: N_8  and  C_9 
REMARK    3  A    between atoms: C_9  and  C_10 
REMARK    4  A    between atoms: C_18  and  N_19 
REMARK    5  A    between atoms: N_19  and  C_20 
REMARK    6  A    between atoms: C_20  and  C_21 
REMARK    7  A    between atoms: C_21  and  C_22 
REMARK    8  A    between atoms: C_22  and  O_23 
ROOT
HETATM    1  C   UNL     1       8.186  20.588  54.580  1.00  0.00     0.001 A 
HETATM    2  C   UNL     1       7.944  21.887  54.128  1.00  0.00     0.017 A 
HETATM    3  C   UNL     1       7.903  22.979  55.027  1.00  0.00     0.036 A 
HETATM    4  C   UNL     1       8.140  22.710  56.391  1.00  0.00     0.048 A 
HETATM    5  N   UNL     1       8.157  23.728  57.255  1.00  0.00    -0.330 N 
HETATM    6  H   UNL     1       8.293  23.591  58.249  1.00  0.00     0.168 HD
HETATM    7  C   UNL     1       7.977  24.977  56.847  1.00  0.00     0.182 A 
HETATM    8  N   UNL     1       7.703  25.316  55.583  1.00  0.00    -0.202 NA
HETATM    9  C   UNL     1       7.655  24.327  54.671  1.00  0.00     0.139 A 
HETATM   10  C   UNL     1       8.373  21.403  56.842  1.00  0.00     0.030 A 
HETATM   11  C   UNL     1       8.395  20.345  55.934  1.00  0.00     0.002 A 
ENDROOT
BRANCH   7  12
HETATM   12  N   UNL     1       8.056  25.981  57.809  1.00  0.00    -0.258 NA
HETATM   13  H   UNL     1       7.516  25.614  58.600  1.00  0.00     0.130 HD
BRANCH  12  14
HETATM   14  C   UNL     1       7.364  27.188  57.344  1.00  0.00     0.134 C 
BRANCH  14  15
HETATM   15  C   UNL     1       8.233  28.393  57.597  1.00  0.00    -0.045 A 
HETATM   16  C   UNL     1       7.853  29.373  58.528  1.00  0.00     0.011 A 
HETATM   17  C   UNL     1       8.668  30.484  58.754  1.00  0.00     0.043 A 
HETATM   18  C   UNL     1       9.855  30.622  58.045  1.00  0.00     0.116 A 
HETATM   19  F   UNL     1      10.636  31.686  58.266  1.00  0.00    -0.206 F 
HETATM   20  C   UNL     1      10.242  29.672  57.109  1.00  0.00     0.043 A 
HETATM   21  C   UNL     1       9.432  28.559  56.881  1.00  0.00     0.011 A 
ENDBRANCH  14  15
ENDBRANCH  12  14
ENDBRANCH   7  12
BRANCH   9  22
HETATM   22  N   UNL     1       7.443  24.658  53.333  1.00  0.00    -0.374 N 
HETATM   23  H   UNL     1       6.883  23.964  52.841  1.00  0.00     0.161 HD
BRANCH  22  24
HETATM   24  C   UNL     1       7.067  26.023  52.962  1.00  0.00     0.123 C 
BRANCH  24  25
HETATM   25  C   UNL     1       5.895  26.051  51.983  1.00  0.00     0.045 C 
BRANCH  25  26
HETATM   26  C   UNL     1       4.919  24.901  52.176  1.00  0.00     0.165 C 
BRANCH  26  27
HETATM   27  O   UNL     1       4.155  25.108  53.356  1.00  0.00    -0.401 OA
HETATM   28  H   UNL     1       4.702  25.599  53.995  1.00  0.00     0.209 HD
ENDBRANCH  26  27
ENDBRANCH  25  26
ENDBRANCH  24  25
ENDBRANCH  22  24
ENDBRANCH   9  22
TORSDOF 8
ENDMDL
MODEL 2
REMARK VINA RESULT:      -8.3      1.674      2.158
REMARK  8 active torsions:
REMARK  status: ('A' for Active; 'I' for Inactive)
REMARK    1  A    between atoms: C_7  and  N_8 
REMARK    2  A    between atoms: N_8  and  C_9 
REMARK    3  A    between atoms: C_9  and  C_10 
REMARK    4  A    between atoms: C_18  and  N_19 
REMARK    5  A    between atoms: N_19  and  C_20 
REMARK    6  A    between atoms: C_20  and  C_21 
REMARK    7  A    between atoms: C_21  and  C_22 
REMARK    8  A    between atoms: C_22  and  O_23 
ROOT
HETATM    1  C   UNL     1       8.543  20.421  53.388  1.00  0.00     0.001 A 
HETATM    2  C   UNL     1       7.914  21.635  53.105  1.00  0.00     0.017 A 
HETATM    3  C   UNL     1       7.562  22.536  54.138  1.00  0.00     0.036 A 
HETATM    4  C   UNL     1       7.889  22.173  55.461  1.00  0.00     0.048 A 
HETATM    5  N   UNL     1       7.613  23.025  56.450  1.00  0.00    -0.330 N 
HETATM    6  H   UNL     1       7.800  22.805  57.420  1.00  0.00     0.168 HD
HETATM    7  C   UNL     1       7.060  24.205  56.205  1.00  0.00     0.182 A 
HETATM    8  N   UNL     1       6.676  24.611  54.990  1.00  0.00    -0.202 NA
HETATM    9  C   UNL     1       6.914  23.782  53.956  1.00  0.00     0.139 A 
HETATM   10  C   UNL     1       8.512  20.948  55.742  1.00  0.00     0.030 A 
HETATM   11  C   UNL     1       8.838  20.075  54.704  1.00  0.00     0.002 A 
ENDROOT
BRANCH   7  12
HETATM   12  N   UNL     1       6.848  25.049  57.291  1.00  0.00    -0.258 NA
HETATM   13  H   UNL     1       5.973  25.534  57.067  1.00  0.00     0.130 HD
BRANCH  12  14
HETATM   14  C   UNL     1       7.897  26.073  57.354  1.00  0.00     0.134 C 
BRANCH  14  15
HETATM   15  C   UNL     1       7.262  27.437  57.444  1.00  0.00    -0.045 A 
HETATM   16  C   UNL     1       7.998  28.546  57.891  1.00  0.00     0.011 A 
HETATM   17  C   UNL     1       7.398  29.805  57.968  1.00  0.00     0.043 A 
HETATM   18  C   UNL     1       6.064  29.954  57.610  1.00  0.00     0.116 A 
HETATM   19  F   UNL     1       5.493  31.162  57.682  1.00  0.00    -0.206 F 
HETATM   20  C   UNL     1       5.314  28.867  57.180  1.00  0.00     0.043 A 
HETATM   21  C   UNL     1       5.910  27.608  57.098  1.00  0.00     0.011 A 
ENDBRANCH  14  15
ENDBRANCH  12  14
ENDBRANCH   7  12
BRANCH   9  22
HETATM   22  N   UNL     1       6.590  24.208  52.667  1.00  0.00    -0.374 N 
HETATM   23  H   UNL     1       5.632  23.978  52.407  1.00  0.00     0.161 HD
BRANCH  22  24
HETATM   24  C   UNL     1       6.970  25.547  52.216  1.00  0.00     0.123 C 
BRANCH  24  25
HETATM   25  C   UNL     1       5.796  26.299  51.594  1.00  0.00     0.045 C 
BRANCH  25  26
HETATM   26  C   UNL     1       4.815  26.844  52.621  1.00  0.00     0.165 C 
BRANCH  26  27
HETATM   27  O   UNL     1       4.147  25.770  53.268  1.00  0.00    -0.401 OA
HETATM   28  H   UNL     1       4.165  24.995  52.678  1.00  0.00     0.209 HD
ENDBRANCH  26  27
ENDBRANCH  25  26
ENDBRANCH  24  25
ENDBRANCH  22  24
ENDBRANCH   9  22
TORSDOF 8
ENDMDL
MODEL 3
REMARK VINA RESULT:      -8.2      3.883      7.697
REMARK  8 active torsions:
REMARK  status: ('A' for Active; 'I' for Inactive)
REMARK    1  A    between atoms: C_7  and  N_8 
REMARK    2  A    between atoms: N_8  and  C_9 
REMARK    3  A    between atoms: C_9  and  C_10 
REMARK    4  A    between atoms: C_18  and  N_19 
REMARK    5  A    between atoms: N_19  and  C_20 
REMARK    6  A    between atoms: C_20  and  C_21 
REMARK    7  A    between atoms: C_21  and  C_22 
REMARK    8  A    between atoms: C_22  and  O_23 
ROOT
HETATM    1  C   UNL     1       8.670  30.625  58.455  1.00  0.00     0.001 A 
HETATM    2  C   UNL     1       7.350  30.204  58.277  1.00  0.00     0.017 A 
HETATM    3  C   UNL     1       7.043  29.077  57.479  1.00  0.00     0.036 A 
HETATM    4  C   UNL     1       8.119  28.380  56.890  1.00  0.00     0.048 A 
HETATM    5  N   UNL     1       7.862  27.284  56.174  1.00  0.00    -0.330 N 
HETATM    6  H   UNL     1       8.592  26.761  55.705  1.00  0.00     0.168 HD
HETATM    7  C   UNL     1       6.623  26.834  56.027  1.00  0.00     0.182 A 
HETATM    8  N   UNL     1       5.543  27.455  56.512  1.00  0.00    -0.202 NA
HETATM    9  C   UNL     1       5.742  28.578  57.228  1.00  0.00     0.139 A 
HETATM   10  C   UNL     1       9.442  28.812  57.064  1.00  0.00     0.030 A 
HETATM   11  C   UNL     1       9.713  29.934  57.847  1.00  0.00     0.002 A 
ENDROOT
BRANCH   7  12
HETATM   12  N   UNL     1       6.452  25.659  55.301  1.00  0.00    -0.258 NA
HETATM   13  H   UNL     1       5.435  25.562  55.214  1.00  0.00     0.130 HD
BRANCH  12  14
HETATM   14  C   UNL     1       6.923  24.507  56.077  1.00  0.00     0.134 C 
BRANCH  14  15
HETATM   15  C   UNL     1       7.310  23.394  55.137  1.00  0.00    -0.045 A 
HETATM   16  C   UNL     1       7.615  22.112  55.624  1.00  0.00     0.011 A 
HETATM   17  C   UNL     1       7.970  21.089  54.742  1.00  0.00     0.043 A 
HETATM   18  C   UNL     1       8.032  21.348  53.378  1.00  0.00     0.116 A 
HETATM   19  F   UNL     1       8.370  20.365  52.535  1.00  0.00    -0.206 F 
HETATM   20  C   UNL     1       7.750  22.612  52.877  1.00  0.00     0.043 A 
HETATM   21  C   UNL     1       7.391  23.637  53.754  1.00  0.00     0.011 A 
ENDBRANCH  14  15
ENDBRANCH  12  14
ENDBRANCH   7  12
BRANCH   9  22
HETATM   22  N   UNL     1       4.639  29.208  57.807  1.00  0.00    -0.374 N 
HETATM   23  H   UNL     1       4.844  29.589  58.729  1.00  0.00     0.161 HD
BRANCH  22  24
HETATM   24  C   UNL     1       3.809  30.116  57.014  1.00  0.00     0.123 C 
BRANCH  24  25
HETATM   25  C   UNL     1       3.364  31.336  57.816  1.00  0.00     0.045 C 
BRANCH  25  26
HETATM   26  C   UNL     1       3.679  31.232  59.300  1.00  0.00     0.165 C 
BRANCH  26  27
HETATM   27  O   UNL     1       2.743  30.370  59.933  1.00  0.00    -0.401 OA
HETATM   28  H   UNL     1       1.856  30.569  59.584  1.00  0.00     0.209 HD
ENDBRANCH  26  27
ENDBRANCH  25  26
ENDBRANCH  24  25
ENDBRANCH  22  24
ENDBRANCH   9  22
TORSDOF 8
ENDMDL
MODEL 4
REMARK VINA RESULT:      -8.1      4.035      7.904
REMARK  8 active torsions:
REMARK  status: ('A' for Active; 'I' for Inactive)
REMARK    1  A    between atoms: C_7  and  N_8 
REMARK    2  A    between atoms: N_8  and  C_9 
REMARK    3  A    between atoms: C_9  and  C_10 
REMARK    4  A    between atoms: C_18  and  N_19 
REMARK    5  A    between atoms: N_19  and  C_20 
REMARK    6  A    between atoms: C_20  and  C_21 
REMARK    7  A    between atoms: C_21  and  C_22 
REMARK    8  A    between atoms: C_22  and  O_23 
ROOT
HETATM    1  C   UNL     1       4.879  30.956  56.719  1.00  0.00     0.001 A 
HETATM    2  C   UNL     1       6.012  30.234  57.104  1.00  0.00     0.017 A 
HETATM    3  C   UNL     1       6.065  28.827  56.965  1.00  0.00     0.036 A 
HETATM    4  C   UNL     1       4.942  28.184  56.402  1.00  0.00     0.048 A 
HETATM    5  N   UNL     1       4.984  26.863  56.213  1.00  0.00    -0.330 N 
HETATM    6  H   UNL     1       4.199  26.345  55.840  1.00  0.00     0.168 HD
HETATM    7  C   UNL     1       6.064  26.159  56.525  1.00  0.00     0.182 A 
HETATM    8  N   UNL     1       7.152  26.679  57.102  1.00  0.00    -0.202 NA
HETATM    9  C   UNL     1       7.157  28.006  57.334  1.00  0.00     0.139 A 
HETATM   10  C   UNL     1       3.804  28.911  56.026  1.00  0.00     0.030 A 
HETATM   11  C   UNL     1       3.776  30.296  56.186  1.00  0.00     0.002 A 
ENDROOT
BRANCH   7  12
HETATM   12  N   UNL     1       6.038  24.794  56.252  1.00  0.00    -0.258 NA
HETATM   13  H   UNL     1       5.467  24.398  57.006  1.00  0.00     0.130 HD
BRANCH  12  14
HETATM   14  C   UNL     1       7.381  24.220  56.390  1.00  0.00     0.134 C 
BRANCH  14  15
HETATM   15  C   UNL     1       7.585  23.163  55.335  1.00  0.00    -0.045 A 
HETATM   16  C   UNL     1       7.718  21.810  55.686  1.00  0.00     0.011 A 
HETATM   17  C   UNL     1       7.905  20.841  54.698  1.00  0.00     0.043 A 
HETATM   18  C   UNL     1       7.970  21.222  53.364  1.00  0.00     0.116 A 
HETATM   19  F   UNL     1       8.146  20.291  52.420  1.00  0.00    -0.206 F 
HETATM   20  C   UNL     1       7.856  22.556  52.996  1.00  0.00     0.043 A 
HETATM   21  C   UNL     1       7.666  23.528  53.979  1.00  0.00     0.011 A 
ENDBRANCH  14  15
ENDBRANCH  12  14
ENDBRANCH   7  12
BRANCH   9  22
HETATM   22  N   UNL     1       8.307  28.588  57.870  1.00  0.00    -0.374 N 
HETATM   23  H   UNL     1       8.572  28.182  58.765  1.00  0.00     0.161 HD
BRANCH  22  24
HETATM   24  C   UNL     1       9.471  28.838  57.020  1.00  0.00     0.123 C 
BRANCH  24  25
HETATM   25  C   UNL     1      10.289  30.034  57.502  1.00  0.00     0.045 C 
BRANCH  25  26
HETATM   26  C   UNL     1       9.527  30.943  58.454  1.00  0.00     0.165 C 
BRANCH  26  27
HETATM   27  O   UNL     1      10.144  32.222  58.499  1.00  0.00    -0.401 OA
HETATM   28  H   UNL     1      11.108  32.097  58.559  1.00  0.00     0.209 HD
ENDBRANCH  26  27
ENDBRANCH  25  26
ENDBRANCH  24  25
ENDBRANCH  22  24
ENDBRANCH   9  22
TORSDOF 8
ENDMDL
MODEL 5
REMARK VINA RESULT:      -8.0      3.726      7.495
REMARK  8 active torsions:
REMARK  status: ('A' for Active; 'I' for Inactive)
REMARK    1  A    between atoms: C_7  and  N_8 
REMARK    2  A    between atoms: N_8  and  C_9 
REMARK    3  A    between atoms: C_9  and  C_10 
REMARK    4  A    between atoms: C_18  and  N_19 
REMARK    5  A    between atoms: N_19  and  C_20 
REMARK    6  A    between atoms: C_20  and  C_21 
REMARK    7  A    between atoms: C_21  and  C_22 
REMARK    8  A    between atoms: C_22  and  O_23 
ROOT
HETATM    1  C   UNL     1       8.680  30.527  58.228  1.00  0.00     0.001 A 
HETATM    2  C   UNL     1       7.339  30.155  58.109  1.00  0.00     0.017 A 
HETATM    3  C   UNL     1       6.967  28.966  57.438  1.00  0.00     0.036 A 
HETATM    4  C   UNL     1       8.000  28.161  56.913  1.00  0.00     0.048 A 
HETATM    5  N   UNL     1       7.680  27.009  56.318  1.00  0.00    -0.330 N 
HETATM    6  H   UNL     1       8.377  26.407  55.899  1.00  0.00     0.168 HD
HETATM    7  C   UNL     1       6.419  26.607  56.234  1.00  0.00     0.182 A 
HETATM    8  N   UNL     1       5.377  27.326  56.663  1.00  0.00    -0.202 NA
HETATM    9  C   UNL     1       5.640  28.507  57.256  1.00  0.00     0.139 A 
HETATM   10  C   UNL     1       9.344  28.544  57.026  1.00  0.00     0.030 A 
HETATM   11  C   UNL     1       9.680  29.728  57.683  1.00  0.00     0.002 A 
ENDROOT
BRANCH   7  12
HETATM   12  N   UNL     1       6.181  25.372  55.637  1.00  0.00    -0.258 NA
HETATM   13  H   UNL     1       5.213  25.152  55.891  1.00  0.00     0.130 HD
BRANCH  12  14
HETATM   14  C   UNL     1       7.026  24.340  56.248  1.00  0.00     0.134 C 
BRANCH  14  15
HETATM   15  C   UNL     1       7.381  23.305  55.210  1.00  0.00    -0.045 A 
HETATM   16  C   UNL     1       7.471  23.648  53.852  1.00  0.00     0.011 A 
HETATM   17  C   UNL     1       7.803  22.680  52.901  1.00  0.00     0.043 A 
HETATM   18  C   UNL     1       8.034  21.371  53.305  1.00  0.00     0.116 A 
HETATM   19  F   UNL     1       8.355  20.446  52.392  1.00  0.00    -0.206 F 
HETATM   20  C   UNL     1       7.936  21.008  54.642  1.00  0.00     0.043 A 
HETATM   21  C   UNL     1       7.607  21.972  55.595  1.00  0.00     0.011 A 
ENDBRANCH  14  15
ENDBRANCH  12  14
ENDBRANCH   7  12
BRANCH   9  22
HETATM   22  N   UNL     1       4.578  29.246  57.777  1.00  0.00    -0.374 N 
HETATM   23  H   UNL     1       4.844  29.794  58.593  1.00  0.00     0.161 HD
BRANCH  22  24
HETATM   24  C   UNL     1       3.692  29.995  56.884  1.00  0.00     0.123 C 
BRANCH  24  25
HETATM   25  C   UNL     1       3.785  31.502  57.113  1.00  0.00     0.045 C 
BRANCH  25  26
HETATM   26  C   UNL     1       4.840  32.180  56.252  1.00  0.00     0.165 C 
BRANCH  26  27
HETATM   27  O   UNL     1       5.325  31.269  55.275  1.00  0.00    -0.401 OA
HETATM   28  H   UNL     1       6.078  31.682  54.816  1.00  0.00     0.209 HD
ENDBRANCH  26  27
ENDBRANCH  25  26
ENDBRANCH  24  25
ENDBRANCH  22  24
ENDBRANCH   9  22
TORSDOF 8
ENDMDL
MODEL 6
REMARK VINA RESULT:      -7.8      4.224      7.475
REMARK  8 active torsions:
REMARK  status: ('A' for Active; 'I' for Inactive)
REMARK    1  A    between atoms: C_7  and  N_8 
REMARK    2  A    between atoms: N_8  and  C_9 
REMARK    3  A    between atoms: C_9  and  C_10 
REMARK    4  A    between atoms: C_18  and  N_19 
REMARK    5  A    between atoms: N_19  and  C_20 
REMARK    6  A    between atoms: C_20  and  C_21 
REMARK    7  A    between atoms: C_21  and  C_22 
REMARK    8  A    between atoms: C_22  and  O_23 
ROOT
HETATM    1  C   UNL     1       8.523  22.454  55.216  1.00  0.00     0.001 A 
HETATM    2  C   UNL     1       7.767  23.554  55.627  1.00  0.00     0.017 A 
HETATM    3  C   UNL     1       6.948  24.261  54.715  1.00  0.00     0.036 A 
HETATM    4  C   UNL     1       6.906  23.801  53.382  1.00  0.00     0.048 A 
HETATM    5  N   UNL     1       6.104  24.418  52.512  1.00  0.00    -0.330 N 
HETATM    6  H   UNL     1       6.055  24.149  51.537  1.00  0.00     0.168 HD
HETATM    7  C   UNL     1       5.339  25.435  52.886  1.00  0.00     0.182 A 
HETATM    8  N   UNL     1       5.349  25.963  54.114  1.00  0.00    -0.202 NA
HETATM    9  C   UNL     1       6.154  25.391  55.029  1.00  0.00     0.139 A 
HETATM   10  C   UNL     1       7.675  22.702  52.972  1.00  0.00     0.030 A 
HETATM   11  C   UNL     1       8.482  22.032  53.891  1.00  0.00     0.002 A 
ENDROOT
BRANCH   7  12
HETATM   12  N   UNL     1       4.500  25.990  51.924  1.00  0.00    -0.258 NA
HETATM   13  H   UNL     1       3.817  25.251  51.728  1.00  0.00     0.130 HD
BRANCH  12  14
HETATM   14  C   UNL     1       5.238  26.228  50.679  1.00  0.00     0.134 C 
BRANCH  14  15
HETATM   15  C   UNL     1       4.263  26.476  49.557  1.00  0.00    -0.045 A 
HETATM   16  C   UNL     1       3.777  27.767  49.296  1.00  0.00     0.011 A 
HETATM   17  C   UNL     1       2.875  27.984  48.252  1.00  0.00     0.043 A 
HETATM   18  C   UNL     1       2.451  26.911  47.477  1.00  0.00     0.116 A 
HETATM   19  F   UNL     1       1.588  27.122  46.476  1.00  0.00    -0.206 F 
HETATM   20  C   UNL     1       2.907  25.624  47.727  1.00  0.00     0.043 A 
HETATM   21  C   UNL     1       3.811  25.403  48.767  1.00  0.00     0.011 A 
ENDBRANCH  14  15
ENDBRANCH  12  14
ENDBRANCH   7  12
BRANCH   9  22
HETATM   22  N   UNL     1       6.133  25.875  56.337  1.00  0.00    -0.374 N 
HETATM   23  H   UNL     1       6.246  25.138  57.031  1.00  0.00     0.161 HD
BRANCH  22  24
HETATM   24  C   UNL     1       6.890  27.076  56.691  1.00  0.00     0.123 C 
BRANCH  24  25
HETATM   25  C   UNL     1       6.007  28.148  57.325  1.00  0.00     0.045 C 
BRANCH  25  26
HETATM   26  C   UNL     1       5.010  28.762  56.354  1.00  0.00     0.165 C 
BRANCH  26  27
HETATM   27  O   UNL     1       3.900  27.891  56.186  1.00  0.00    -0.401 OA
HETATM   28  H   UNL     1       4.170  26.993  56.447  1.00  0.00     0.209 HD
ENDBRANCH  26  27
ENDBRANCH  25  26
ENDBRANCH  24  25
ENDBRANCH  22  24
ENDBRANCH   9  22
TORSDOF 8
ENDMDL
MODEL 7
REMARK VINA RESULT:      -7.7      3.965      7.733
REMARK  8 active torsions:
REMARK  status: ('A' for Active; 'I' for Inactive)
REMARK    1  A    between atoms: C_7  and  N_8 
REMARK    2  A    between atoms: N_8  and  C_9 
REMARK    3  A    between atoms: C_9  and  C_10 
REMARK    4  A    between atoms: C_18  and  N_19 
REMARK    5  A    between atoms: N_19  and  C_20 
REMARK    6  A    between atoms: C_20  and  C_21 
REMARK    7  A    between atoms: C_21  and  C_22 
REMARK    8  A    between atoms: C_22  and  O_23 
ROOT
HETATM    1  C   UNL     1       3.302  29.262  50.115  1.00  0.00     0.001 A 
HETATM    2  C   UNL     1       3.539  28.768  51.400  1.00  0.00     0.017 A 
HETATM    3  C   UNL     1       4.463  27.719  51.621  1.00  0.00     0.036 A 
HETATM    4  C   UNL     1       5.151  27.208  50.501  1.00  0.00     0.048 A 
HETATM    5  N   UNL     1       6.064  26.252  50.687  1.00  0.00    -0.330 N 
HETATM    6  H   UNL     1       6.567  25.828  49.917  1.00  0.00     0.168 HD
HETATM    7  C   UNL     1       6.344  25.797  51.901  1.00  0.00     0.182 A 
HETATM    8  N   UNL     1       5.710  26.192  53.009  1.00  0.00    -0.202 NA
HETATM    9  C   UNL     1       4.765  27.143  52.878  1.00  0.00     0.139 A 
HETATM   10  C   UNL     1       4.903  27.700  49.212  1.00  0.00     0.030 A 
HETATM   11  C   UNL     1       3.978  28.727  49.023  1.00  0.00     0.002 A 
ENDROOT
BRANCH   7  12
HETATM   12  N   UNL     1       7.342  24.832  52.007  1.00  0.00    -0.258 NA
HETATM   13  H   UNL     1       6.847  23.943  51.883  1.00  0.00     0.130 HD
BRANCH  12  14
HETATM   14  C   UNL     1       7.900  24.823  53.363  1.00  0.00     0.134 C 
BRANCH  14  15
HETATM   15  C   UNL     1       8.064  23.398  53.828  1.00  0.00    -0.045 A 
HETATM   16  C   UNL     1       7.897  22.325  52.938  1.00  0.00     0.011 A 
HETATM   17  C   UNL     1       8.053  21.010  53.381  1.00  0.00     0.043 A 
HETATM   18  C   UNL     1       8.365  20.766  54.713  1.00  0.00     0.116 A 
HETATM   19  F   UNL     1       8.516  19.505  55.134  1.00  0.00    -0.206 F 
HETATM   20  C   UNL     1       8.519  21.812  55.614  1.00  0.00     0.043 A 
HETATM   21  C   UNL     1       8.367  23.128  55.175  1.00  0.00     0.011 A 
ENDBRANCH  14  15
ENDBRANCH  12  14
ENDBRANCH   7  12
BRANCH   9  22
HETATM   22  N   UNL     1       4.137  27.626  54.027  1.00  0.00    -0.374 N 
HETATM   23  H   UNL     1       3.865  26.883  54.668  1.00  0.00     0.161 HD
BRANCH  22  24
HETATM   24  C   UNL     1       4.685  28.783  54.735  1.00  0.00     0.123 C 
BRANCH  24  25
HETATM   25  C   UNL     1       5.848  28.400  55.647  1.00  0.00     0.045 C 
BRANCH  25  26
HETATM   26  C   UNL     1       5.405  27.817  56.980  1.00  0.00     0.165 C 
BRANCH  26  27
HETATM   27  O   UNL     1       4.334  26.906  56.776  1.00  0.00    -0.401 OA
HETATM   28  H   UNL     1       3.814  27.207  56.010  1.00  0.00     0.209 HD
ENDBRANCH  26  27
ENDBRANCH  25  26
ENDBRANCH  24  25
ENDBRANCH  22  24
ENDBRANCH   9  22
TORSDOF 8
ENDMDL
MODEL 8
REMARK VINA RESULT:      -7.7      4.457      7.578
REMARK  8 active torsions:
REMARK  status: ('A' for Active; 'I' for Inactive)
REMARK    1  A    between atoms: C_7  and  N_8 
REMARK    2  A    between atoms: N_8  and  C_9 
REMARK    3  A    between atoms: C_9  and  C_10 
REMARK    4  A    between atoms: C_18  and  N_19 
REMARK    5  A    between atoms: N_19  and  C_20 
REMARK    6  A    between atoms: C_20  and  C_21 
REMARK    7  A    between atoms: C_21  and  C_22 
REMARK    8  A    between atoms: C_22  and  O_23 
ROOT
HETATM    1  C   UNL     1       3.475  29.829  52.966  1.00  0.00     0.001 A 
HETATM    2  C   UNL     1       4.065  29.040  51.976  1.00  0.00     0.017 A 
HETATM    3  C   UNL     1       4.999  28.030  52.306  1.00  0.00     0.036 A 
HETATM    4  C   UNL     1       5.295  27.834  53.671  1.00  0.00     0.048 A 
HETATM    5  N   UNL     1       6.135  26.855  54.015  1.00  0.00    -0.330 N 
HETATM    6  H   UNL     1       6.406  26.688  54.976  1.00  0.00     0.168 HD
HETATM    7  C   UNL     1       6.672  26.059  53.100  1.00  0.00     0.182 A 
HETATM    8  N   UNL     1       6.482  26.202  51.784  1.00  0.00    -0.202 NA
HETATM    9  C   UNL     1       5.658  27.186  51.379  1.00  0.00     0.139 A 
HETATM   10  C   UNL     1       4.708  28.636  54.661  1.00  0.00     0.030 A 
HETATM   11  C   UNL     1       3.799  29.632  54.305  1.00  0.00     0.002 A 
ENDROOT
BRANCH   7  12
HETATM   12  N   UNL     1       7.502  25.037  53.550  1.00  0.00    -0.258 NA
HETATM   13  H   UNL     1       8.445  25.344  53.290  1.00  0.00     0.130 HD
BRANCH  12  14
HETATM   14  C   UNL     1       7.237  23.800  52.808  1.00  0.00     0.134 C 
BRANCH  14  15
HETATM   15  C   UNL     1       7.597  22.613  53.665  1.00  0.00    -0.045 A 
HETATM   16  C   UNL     1       8.083  21.429  53.088  1.00  0.00     0.011 A 
HETATM   17  C   UNL     1       8.415  20.337  53.894  1.00  0.00     0.043 A 
HETATM   18  C   UNL     1       8.250  20.424  55.271  1.00  0.00     0.116 A 
HETATM   19  F   UNL     1       8.571  19.377  56.041  1.00  0.00    -0.206 F 
HETATM   20  C   UNL     1       7.757  21.581  55.860  1.00  0.00     0.043 A 
HETATM   21  C   UNL     1       7.427  22.675  55.060  1.00  0.00     0.011 A 
ENDBRANCH  14  15
ENDBRANCH  12  14
ENDBRANCH   7  12
BRANCH   9  22
HETATM   22  N   UNL     1       5.384  27.313  50.017  1.00  0.00    -0.374 N 
HETATM   23  H   UNL     1       6.226  27.431  49.456  1.00  0.00     0.161 HD
BRANCH  22  24
HETATM   24  C   UNL     1       4.421  26.420  49.372  1.00  0.00     0.123 C 
BRANCH  24  25
HETATM   25  C   UNL     1       3.896  26.993  48.057  1.00  0.00     0.045 C 
BRANCH  25  26
HETATM   26  C   UNL     1       4.934  27.800  47.293  1.00  0.00     0.165 C 
BRANCH  26  27
HETATM   27  O   UNL     1       6.071  26.993  47.022  1.00  0.00    -0.401 OA
HETATM   28  H   UNL     1       6.805  27.294  47.586  1.00  0.00     0.209 HD
ENDBRANCH  26  27
ENDBRANCH  25  26
ENDBRANCH  24  25
ENDBRANCH  22  24
ENDBRANCH   9  22
TORSDOF 8
ENDMDL
MODEL 9
REMARK VINA RESULT:      -7.6      2.095      3.977
REMARK  8 active torsions:
REMARK  status: ('A' for Active; 'I' for Inactive)
REMARK    1  A    between atoms: C_7  and  N_8 
REMARK    2  A    between atoms: N_8  and  C_9 
REMARK    3  A    between atoms: C_9  and  C_10 
REMARK    4  A    between atoms: C_18  and  N_19 
REMARK    5  A    between atoms: N_19  and  C_20 
REMARK    6  A    between atoms: C_20  and  C_21 
REMARK    7  A    between atoms: C_21  and  C_22 
REMARK    8  A    between atoms: C_22  and  O_23 
ROOT
HETATM    1  C   UNL     1       7.552  23.562  52.610  1.00  0.00     0.001 A 
HETATM    2  C   UNL     1       7.481  23.430  53.998  1.00  0.00     0.017 A 
HETATM    3  C   UNL     1       7.502  24.565  54.843  1.00  0.00     0.036 A 
HETATM    4  C   UNL     1       7.574  25.834  54.230  1.00  0.00     0.048 A 
HETATM    5  N   UNL     1       7.546  26.924  55.001  1.00  0.00    -0.330 N 
HETATM    6  H   UNL     1       7.624  27.858  54.618  1.00  0.00     0.168 HD
HETATM    7  C   UNL     1       7.430  26.830  56.319  1.00  0.00     0.182 A 
HETATM    8  N   UNL     1       7.400  25.671  56.983  1.00  0.00    -0.202 NA
HETATM    9  C   UNL     1       7.445  24.537  56.257  1.00  0.00     0.139 A 
HETATM   10  C   UNL     1       7.656  25.961  52.836  1.00  0.00     0.030 A 
HETATM   11  C   UNL     1       7.645  24.823  52.029  1.00  0.00     0.002 A 
ENDROOT
BRANCH   7  12
HETATM   12  N   UNL     1       7.363  28.019  57.040  1.00  0.00    -0.258 NA
HETATM   13  H   UNL     1       6.467  28.432  56.762  1.00  0.00     0.130 HD
BRANCH  12  14
HETATM   14  C   UNL     1       8.413  28.943  56.599  1.00  0.00     0.134 C 
BRANCH  14  15
HETATM   15  C   UNL     1       8.774  29.870  57.732  1.00  0.00    -0.045 A 
HETATM   16  C   UNL     1       7.989  29.925  58.895  1.00  0.00     0.011 A 
HETATM   17  C   UNL     1       8.335  30.787  59.938  1.00  0.00     0.043 A 
HETATM   18  C   UNL     1       9.456  31.599  59.816  1.00  0.00     0.116 A 
HETATM   19  F   UNL     1       9.787  32.422  60.818  1.00  0.00    -0.206 F 
HETATM   20  C   UNL     1      10.237  31.570  58.668  1.00  0.00     0.043 A 
HETATM   21  C   UNL     1       9.897  30.709  57.624  1.00  0.00     0.011 A 
ENDBRANCH  14  15
ENDBRANCH  12  14
ENDBRANCH   7  12
BRANCH   9  22
HETATM   22  N   UNL     1       7.344  23.313  56.918  1.00  0.00    -0.374 N 
HETATM   23  H   UNL     1       6.504  22.796  56.662  1.00  0.00     0.161 HD
BRANCH  22  24
HETATM   24  C   UNL     1       8.510  22.436  57.029  1.00  0.00     0.123 C 
BRANCH  24  25
HETATM   25  C   UNL     1       8.194  21.003  56.607  1.00  0.00     0.045 C 
BRANCH  25  26
HETATM   26  C   UNL     1       9.378  20.284  55.978  1.00  0.00     0.165 C 
BRANCH  26  27
HETATM   27  O   UNL     1       8.936  19.493  54.883  1.00  0.00    -0.401 OA
HETATM   28  H   UNL     1       9.688  18.965  54.561  1.00  0.00     0.209 HD
ENDBRANCH  26  27
ENDBRANCH  25  26
ENDBRANCH  24  25
ENDBRANCH  22  24
ENDBRANCH   9  22
TORSDOF 8
ENDMDL
MODEL 10
REMARK VINA RESULT:      -7.4      3.569      6.934
REMARK  8 active torsions:
REMARK  status: ('A' for Active; 'I' for Inactive)
REMARK    1  A    between atoms: C_7  and  N_8 
REMARK    2  A    between atoms: N_8  and  C_9 
REMARK    3  A    between atoms: C_9  and  C_10 
REMARK    4  A    between atoms: C_18  and  N_19 
REMARK    5  A    between atoms: N_19  and  C_20 
REMARK    6  A    between atoms: C_20  and  C_21 
REMARK    7  A    between atoms: C_21  and  C_22 
REMARK    8  A    between atoms: C_22  and  O_23 
ROOT
HETATM    1  C   UNL     1       6.808  29.601  57.560  1.00  0.00     0.001 A 
HETATM    2  C   UNL     1       6.255  29.581  56.278  1.00  0.00     0.017 A 
HETATM    3  C   UNL     1       6.572  28.552  55.361  1.00  0.00     0.036 A 
HETATM    4  C   UNL     1       7.447  27.535  55.796  1.00  0.00     0.048 A 
HETATM    5  N   UNL     1       7.725  26.525  54.969  1.00  0.00    -0.330 N 
HETATM    6  H   UNL     1       8.368  25.784  55.217  1.00  0.00     0.168 HD
HETATM    7  C   UNL     1       7.177  26.455  53.763  1.00  0.00     0.182 A 
HETATM    8  N   UNL     1       6.374  27.395  53.254  1.00  0.00    -0.202 NA
HETATM    9  C   UNL     1       6.075  28.448  54.039  1.00  0.00     0.139 A 
HETATM   10  C   UNL     1       8.008  27.564  57.082  1.00  0.00     0.030 A 
HETATM   11  C   UNL     1       7.686  28.599  57.960  1.00  0.00     0.002 A 
ENDROOT
BRANCH   7  12
HETATM   12  N   UNL     1       7.487  25.344  52.984  1.00  0.00    -0.258 NA
HETATM   13  H   UNL     1       7.304  25.652  52.023  1.00  0.00     0.130 HD
BRANCH  12  14
HETATM   14  C   UNL     1       6.554  24.248  53.265  1.00  0.00     0.134 C 
BRANCH  14  15
HETATM   15  C   UNL     1       7.305  23.096  53.883  1.00  0.00    -0.045 A 
HETATM   16  C   UNL     1       7.986  22.167  53.081  1.00  0.00     0.011 A 
HETATM   17  C   UNL     1       8.680  21.105  53.667  1.00  0.00     0.043 A 
HETATM   18  C   UNL     1       8.684  20.966  55.050  1.00  0.00     0.116 A 
HETATM   19  F   UNL     1       9.351  19.950  55.608  1.00  0.00    -0.206 F 
HETATM   20  C   UNL     1       8.004  21.866  55.860  1.00  0.00     0.043 A 
HETATM   21  C   UNL     1       7.312  22.929  55.279  1.00  0.00     0.011 A 
ENDBRANCH  14  15
ENDBRANCH  12  14
ENDBRANCH   7  12
BRANCH   9  22
HETATM   22  N   UNL     1       5.183  29.408  53.561  1.00  0.00    -0.374 N 
HETATM   23  H   UNL     1       5.653  30.193  53.113  1.00  0.00     0.161 HD
BRANCH  22  24
HETATM   24  C   UNL     1       3.985  29.001  52.826  1.00  0.00     0.123 C 
BRANCH  24  25
HETATM   25  C   UNL     1       3.865  29.712  51.481  1.00  0.00     0.045 C 
BRANCH  25  26
HETATM   26  C   UNL     1       5.093  29.547  50.599  1.00  0.00     0.165 C 
BRANCH  26  27
HETATM   27  O   UNL     1       6.111  30.448  51.014  1.00  0.00    -0.401 OA
HETATM   28  H   UNL     1       6.867  30.359  50.407  1.00  0.00     0.209 HD
ENDBRANCH  26  27
ENDBRANCH  25  26
ENDBRANCH  24  25
ENDBRANCH  22  24
ENDBRANCH   9  22
TORSDOF 8
ENDMDL
