MODEL 1
REMARK VINA RESULT:      -9.7      0.000      0.000
REMARK  5 active torsions:
REMARK  status: ('A' for Active; 'I' for Inactive)
REMARK    1  A    between atoms: C_3  and  N_4 
REMARK       I    between atoms: N_4  and  C_5 
REMARK       I    between atoms: C_5  and  N_6 
REMARK    2  A    between atoms: N_6  and  C_7 
REMARK    3  A    between atoms: C_7  and  C_8 
REMARK       I    between atoms: C_8  and  N_9 
REMARK    4  A    between atoms: N_9  and  C_10 
REMARK    5  A    between atoms: C_19  and  C_20 
ROOT
HETATM    1  N   UNL     1       8.358  28.358  57.274  1.00  0.00    -0.309 N 
HETATM    2  C   UNL     1       7.622  28.381  56.113  1.00  0.00     0.321 C 
HETATM    3  N   UNL     1       7.633  27.168  55.475  1.00  0.00    -0.334 N 
HETATM    4  O   UNL     1       6.996  29.340  55.678  1.00  0.00    -0.247 OA
HETATM    5  H   UNL     1       8.266  27.502  57.797  1.00  0.00     0.170 HD
HETATM    6  H   UNL     1       8.290  26.478  55.809  1.00  0.00     0.164 HD
ENDROOT
BRANCH   1   7
HETATM    7  C   UNL     1       8.713  29.517  58.001  1.00  0.00     0.043 A 
HETATM    8  C   UNL     1       9.912  30.193  57.712  1.00  0.00    -0.035 A 
HETATM    9  C   UNL     1      10.917  29.670  56.723  1.00  0.00     0.050 C 
HETATM   10  C   UNL     1      10.219  31.361  58.427  1.00  0.00     0.010 A 
HETATM   11  C   UNL     1       9.333  31.872  59.378  1.00  0.00     0.016 A 
HETATM   12  C   UNL     1       8.121  31.227  59.649  1.00  0.00     0.019 A 
HETATM   13  C   UNL     1       7.833  30.036  58.965  1.00  0.00     0.046 A 
BRANCH  12  14
HETATM   14  C   UNL     1       7.186  31.822  60.599  1.00  0.00     0.179 A 
HETATM   15  O   UNL     1       7.275  31.408  61.905  1.00  0.00    -0.302 OA
HETATM   16  C   UNL     1       6.272  32.076  62.538  1.00  0.00     0.163 A 
HETATM   17  C   UNL     1       5.628  32.852  61.609  1.00  0.00     0.144 A 
HETATM   18  N   UNL     1       6.211  32.687  60.378  1.00  0.00    -0.234 NA
ENDBRANCH  12  14
ENDBRANCH   1   7
BRANCH   3  19
HETATM   19  C   UNL     1       6.560  26.706  54.605  1.00  0.00     0.227 C 
BRANCH  19  20
HETATM   20  C   UNL     1       6.281  25.201  54.412  1.00  0.00     0.239 C 
HETATM   21  N   UNL     1       7.324  24.389  54.803  1.00  0.00    -0.326 N 
HETATM   22  H   UNL     1       8.070  24.844  55.331  1.00  0.00     0.169 HD
HETATM   23  O   UNL     1       5.275  24.841  53.801  1.00  0.00    -0.271 OA
BRANCH  21  24
HETATM   24  C   UNL     1       7.554  23.039  54.475  1.00  0.00     0.034 A 
HETATM   25  C   UNL     1       7.803  22.578  53.183  1.00  0.00     0.029 A 
HETATM   26  C   UNL     1       8.096  21.228  52.959  1.00  0.00     0.002 A 
HETATM   27  C   UNL     1       8.133  20.330  54.023  1.00  0.00     0.000 A 
HETATM   28  C   UNL     1       7.871  20.778  55.315  1.00  0.00     0.002 A 
HETATM   29  C   UNL     1       7.585  22.126  55.539  1.00  0.00     0.029 A 
ENDBRANCH  21  24
ENDBRANCH  19  20
ENDBRANCH   3  19
TORSDOF 5
ENDMDL
MODEL 2
REMARK VINA RESULT:      -9.4      1.985     10.054
REMARK  5 active torsions:
REMARK  status: ('A' for Active; 'I' for Inactive)
REMARK    1  A    between atoms: C_3  and  N_4 
REMARK       I    between atoms: N_4  and  C_5 
REMARK       I    between atoms: C_5  and  N_6 
REMARK    2  A    between atoms: N_6  and  C_7 
REMARK    3  A    between atoms: C_7  and  C_8 
REMARK       I    between atoms: C_8  and  N_9 
REMARK    4  A    between atoms: N_9  and  C_10 
REMARK    5  A    between atoms: C_19  and  C_20 
ROOT
HETATM    1  N   UNL     1       6.529  27.174  57.386  1.00  0.00    -0.309 N 
HETATM    2  C   UNL     1       7.539  28.106  57.426  1.00  0.00     0.321 C 
HETATM    3  N   UNL     1       7.274  29.110  58.321  1.00  0.00    -0.334 N 
HETATM    4  O   UNL     1       8.577  28.069  56.777  1.00  0.00    -0.247 OA
HETATM    5  H   UNL     1       6.131  26.967  58.288  1.00  0.00     0.170 HD
HETATM    6  H   UNL     1       6.340  29.155  58.700  1.00  0.00     0.164 HD
ENDROOT
BRANCH   1   7
HETATM    7  C   UNL     1       6.425  26.171  56.394  1.00  0.00     0.043 A 
HETATM    8  C   UNL     1       5.768  26.443  55.181  1.00  0.00    -0.035 A 
HETATM    9  C   UNL     1       5.051  27.739  54.922  1.00  0.00     0.050 C 
HETATM   10  C   UNL     1       5.713  25.438  54.202  1.00  0.00     0.010 A 
HETATM   11  C   UNL     1       6.337  24.205  54.406  1.00  0.00     0.016 A 
HETATM   12  C   UNL     1       7.024  23.937  55.595  1.00  0.00     0.019 A 
HETATM   13  C   UNL     1       7.042  24.925  56.591  1.00  0.00     0.046 A 
BRANCH  12  14
HETATM   14  C   UNL     1       7.723  22.665  55.751  1.00  0.00     0.179 A 
HETATM   15  O   UNL     1       7.828  21.870  54.637  1.00  0.00    -0.302 OA
HETATM   16  C   UNL     1       8.468  20.754  55.080  1.00  0.00     0.163 A 
HETATM   17  C   UNL     1       8.720  20.913  56.418  1.00  0.00     0.144 A 
HETATM   18  N   UNL     1       8.244  22.128  56.841  1.00  0.00    -0.234 NA
ENDBRANCH  12  14
ENDBRANCH   1   7
BRANCH   3  19
HETATM   19  C   UNL     1       8.310  29.879  58.998  1.00  0.00     0.227 C 
BRANCH  19  20
HETATM   20  C   UNL     1       7.958  31.127  59.835  1.00  0.00     0.239 C 
HETATM   21  N   UNL     1       7.899  30.888  61.191  1.00  0.00    -0.326 N 
HETATM   22  H   UNL     1       8.262  29.984  61.501  1.00  0.00     0.169 HD
HETATM   23  O   UNL     1       7.607  32.161  59.267  1.00  0.00    -0.271 OA
BRANCH  21  24
HETATM   24  C   UNL     1       7.302  31.675  62.194  1.00  0.00     0.034 A 
HETATM   25  C   UNL     1       5.925  31.794  62.381  1.00  0.00     0.029 A 
HETATM   26  C   UNL     1       5.419  32.538  63.452  1.00  0.00     0.002 A 
HETATM   27  C   UNL     1       6.286  33.176  64.336  1.00  0.00     0.000 A 
HETATM   28  C   UNL     1       7.661  33.075  64.150  1.00  0.00     0.002 A 
HETATM   29  C   UNL     1       8.166  32.327  63.085  1.00  0.00     0.029 A 
ENDBRANCH  21  24
ENDBRANCH  19  20
ENDBRANCH   3  19
TORSDOF 5
ENDMDL
MODEL 3
REMARK VINA RESULT:      -9.0      2.271      9.352
REMARK  5 active torsions:
REMARK  status: ('A' for Active; 'I' for Inactive)
REMARK    1  A    between atoms: C_3  and  N_4 
REMARK       I    between atoms: N_4  and  C_5 
REMARK       I    between atoms: C_5  and  N_6 
REMARK    2  A    between atoms: N_6  and  C_7 
REMARK    3  A    between atoms: C_7  and  C_8 
REMARK       I    between atoms: C_8  and  N_9 
REMARK    4  A    between atoms: N_9  and  C_10 
REMARK    5  A    between atoms: C_19  and  C_20 
ROOT
HETATM    1  N   UNL     1       5.153  26.182  54.536  1.00  0.00    -0.309 N 
HETATM    2  C   UNL     1       5.553  27.257  55.293  1.00  0.00     0.321 C 
HETATM    3  N   UNL     1       4.513  28.105  55.567  1.00  0.00    -0.334 N 
HETATM    4  O   UNL     1       6.686  27.457  55.713  1.00  0.00    -0.247 OA
HETATM    5  H   UNL     1       4.248  25.819  54.790  1.00  0.00     0.170 HD
HETATM    6  H   UNL     1       3.652  27.957  55.063  1.00  0.00     0.164 HD
ENDROOT
BRANCH   1   7
HETATM    7  C   UNL     1       6.049  25.283  53.912  1.00  0.00     0.043 A 
HETATM    8  C   UNL     1       6.570  25.575  52.638  1.00  0.00    -0.035 A 
HETATM    9  C   UNL     1       6.123  26.766  51.835  1.00  0.00     0.050 C 
HETATM   10  C   UNL     1       7.485  24.681  52.061  1.00  0.00     0.010 A 
HETATM   11  C   UNL     1       7.909  23.544  52.752  1.00  0.00     0.016 A 
HETATM   12  C   UNL     1       7.424  23.263  54.034  1.00  0.00     0.019 A 
HETATM   13  C   UNL     1       6.477  24.133  54.595  1.00  0.00     0.046 A 
BRANCH  12  14
HETATM   14  C   UNL     1       7.937  22.104  54.759  1.00  0.00     0.179 A 
HETATM   15  O   UNL     1       8.366  21.038  54.007  1.00  0.00    -0.302 OA
HETATM   16  C   UNL     1       8.735  20.105  54.928  1.00  0.00     0.163 A 
HETATM   17  C   UNL     1       8.519  20.632  56.174  1.00  0.00     0.144 A 
HETATM   18  N   UNL     1       8.012  21.902  56.063  1.00  0.00    -0.234 NA
ENDBRANCH  12  14
ENDBRANCH   1   7
BRANCH   3  19
HETATM   19  C   UNL     1       4.460  28.959  56.747  1.00  0.00     0.227 C 
BRANCH  19  20
HETATM   20  C   UNL     1       5.492  30.085  56.964  1.00  0.00     0.239 C 
HETATM   21  N   UNL     1       6.479  29.767  57.871  1.00  0.00    -0.326 N 
HETATM   22  H   UNL     1       6.525  28.786  58.156  1.00  0.00     0.169 HD
HETATM   23  O   UNL     1       5.294  31.196  56.473  1.00  0.00    -0.271 OA
BRANCH  21  24
HETATM   24  C   UNL     1       7.361  30.632  58.547  1.00  0.00     0.034 A 
HETATM   25  C   UNL     1       6.960  31.587  59.481  1.00  0.00     0.029 A 
HETATM   26  C   UNL     1       7.913  32.353  60.161  1.00  0.00     0.002 A 
HETATM   27  C   UNL     1       9.271  32.177  59.904  1.00  0.00     0.000 A 
HETATM   28  C   UNL     1       9.680  31.236  58.963  1.00  0.00     0.002 A 
HETATM   29  C   UNL     1       8.730  30.467  58.290  1.00  0.00     0.029 A 
ENDBRANCH  21  24
ENDBRANCH  19  20
ENDBRANCH   3  19
TORSDOF 5
ENDMDL
MODEL 4
REMARK VINA RESULT:      -9.0      4.278      8.401
REMARK  5 active torsions:
REMARK  status: ('A' for Active; 'I' for Inactive)
REMARK    1  A    between atoms: C_3  and  N_4 
REMARK       I    between atoms: N_4  and  C_5 
REMARK       I    between atoms: C_5  and  N_6 
REMARK    2  A    between atoms: N_6  and  C_7 
REMARK    3  A    between atoms: C_7  and  C_8 
REMARK       I    between atoms: C_8  and  N_9 
REMARK    4  A    between atoms: N_9  and  C_10 
REMARK    5  A    between atoms: C_19  and  C_20 
ROOT
HETATM    1  N   UNL     1       5.551  26.122  55.629  1.00  0.00    -0.309 N 
HETATM    2  C   UNL     1       5.428  26.924  54.519  1.00  0.00     0.321 C 
HETATM    3  N   UNL     1       4.139  27.349  54.334  1.00  0.00    -0.334 N 
HETATM    4  O   UNL     1       6.340  27.262  53.775  1.00  0.00    -0.247 OA
HETATM    5  H   UNL     1       4.991  26.422  56.412  1.00  0.00     0.170 HD
HETATM    6  H   UNL     1       3.424  26.908  54.893  1.00  0.00     0.164 HD
ENDROOT
BRANCH   1   7
HETATM    7  C   UNL     1       6.703  25.358  55.923  1.00  0.00     0.043 A 
HETATM    8  C   UNL     1       7.582  25.768  56.943  1.00  0.00    -0.035 A 
HETATM    9  C   UNL     1       7.418  27.070  57.677  1.00  0.00     0.050 C 
HETATM   10  C   UNL     1       8.698  24.968  57.235  1.00  0.00     0.010 A 
HETATM   11  C   UNL     1       8.913  23.764  56.561  1.00  0.00     0.016 A 
HETATM   12  C   UNL     1       8.027  23.330  55.570  1.00  0.00     0.019 A 
HETATM   13  C   UNL     1       6.934  24.149  55.246  1.00  0.00     0.046 A 
BRANCH  12  14
HETATM   14  C   UNL     1       8.240  22.035  54.930  1.00  0.00     0.179 A 
HETATM   15  O   UNL     1       7.687  21.855  53.687  1.00  0.00    -0.302 OA
HETATM   16  C   UNL     1       7.997  20.569  53.364  1.00  0.00     0.163 A 
HETATM   17  C   UNL     1       8.712  20.033  54.403  1.00  0.00     0.144 A 
HETATM   18  N   UNL     1       8.864  20.967  55.397  1.00  0.00    -0.234 NA
ENDBRANCH  12  14
ENDBRANCH   1   7
BRANCH   3  19
HETATM   19  C   UNL     1       3.790  28.591  53.658  1.00  0.00     0.227 C 
BRANCH  19  20
HETATM   20  C   UNL     1       3.538  28.628  52.136  1.00  0.00     0.239 C 
HETATM   21  N   UNL     1       4.312  27.737  51.424  1.00  0.00    -0.326 N 
HETATM   22  H   UNL     1       4.819  27.044  51.977  1.00  0.00     0.169 HD
HETATM   23  O   UNL     1       2.827  29.511  51.658  1.00  0.00    -0.271 OA
BRANCH  21  24
HETATM   24  C   UNL     1       4.587  27.725  50.043  1.00  0.00     0.034 A 
HETATM   25  C   UNL     1       5.195  28.776  49.356  1.00  0.00     0.029 A 
HETATM   26  C   UNL     1       5.500  28.648  47.997  1.00  0.00     0.002 A 
HETATM   27  C   UNL     1       5.191  27.474  47.313  1.00  0.00     0.000 A 
HETATM   28  C   UNL     1       4.571  26.425  47.987  1.00  0.00     0.002 A 
HETATM   29  C   UNL     1       4.272  26.550  49.345  1.00  0.00     0.029 A 
ENDBRANCH  21  24
ENDBRANCH  19  20
ENDBRANCH   3  19
TORSDOF 5
ENDMDL
MODEL 5
REMARK VINA RESULT:      -8.9      2.107      9.640
REMARK  5 active torsions:
REMARK  status: ('A' for Active; 'I' for Inactive)
REMARK    1  A    between atoms: C_3  and  N_4 
REMARK       I    between atoms: N_4  and  C_5 
REMARK       I    between atoms: C_5  and  N_6 
REMARK    2  A    between atoms: N_6  and  C_7 
REMARK    3  A    between atoms: C_7  and  C_8 
REMARK       I    between atoms: C_8  and  N_9 
REMARK    4  A    between atoms: N_9  and  C_10 
REMARK    5  A    between atoms: C_19  and  C_20 
ROOT
HETATM    1  N   UNL     1       6.153  26.668  55.354  1.00  0.00    -0.309 N 
HETATM    2  C   UNL     1       6.898  27.823  55.381  1.00  0.00     0.321 C 
HETATM    3  N   UNL     1       6.233  28.846  56.003  1.00  0.00    -0.334 N 
HETATM    4  O   UNL     1       8.032  27.955  54.939  1.00  0.00    -0.247 OA
HETATM    5  H   UNL     1       5.628  26.502  56.198  1.00  0.00     0.170 HD
HETATM    6  H   UNL     1       5.254  28.707  56.202  1.00  0.00     0.164 HD
ENDROOT
BRANCH   1   7
HETATM    7  C   UNL     1       6.487  25.535  54.576  1.00  0.00     0.043 A 
HETATM    8  C   UNL     1       6.328  25.566  53.178  1.00  0.00    -0.035 A 
HETATM    9  C   UNL     1       5.698  26.728  52.461  1.00  0.00     0.050 C 
HETATM   10  C   UNL     1       6.703  24.439  52.430  1.00  0.00     0.010 A 
HETATM   11  C   UNL     1       7.266  23.322  53.052  1.00  0.00     0.016 A 
HETATM   12  C   UNL     1       7.461  23.295  54.437  1.00  0.00     0.019 A 
HETATM   13  C   UNL     1       7.047  24.404  55.191  1.00  0.00     0.046 A 
BRANCH  12  14
HETATM   14  C   UNL     1       8.113  22.141  55.049  1.00  0.00     0.179 A 
HETATM   15  O   UNL     1       7.309  21.253  55.719  1.00  0.00    -0.302 OA
HETATM   16  C   UNL     1       8.174  20.327  56.218  1.00  0.00     0.163 A 
HETATM   17  C   UNL     1       9.441  20.684  55.837  1.00  0.00     0.144 A 
HETATM   18  N   UNL     1       9.399  21.837  55.095  1.00  0.00    -0.234 NA
ENDBRANCH  12  14
ENDBRANCH   1   7
BRANCH   3  19
HETATM   19  C   UNL     1       6.904  29.947  56.683  1.00  0.00     0.227 C 
BRANCH  19  20
HETATM   20  C   UNL     1       7.347  29.824  58.156  1.00  0.00     0.239 C 
HETATM   21  N   UNL     1       7.058  30.936  58.917  1.00  0.00    -0.326 N 
HETATM   22  H   UNL     1       6.440  31.625  58.484  1.00  0.00     0.169 HD
HETATM   23  O   UNL     1       8.040  28.869  58.506  1.00  0.00    -0.271 OA
BRANCH  21  24
HETATM   24  C   UNL     1       7.592  31.306  60.166  1.00  0.00     0.034 A 
HETATM   25  C   UNL     1       8.886  30.998  60.587  1.00  0.00     0.029 A 
HETATM   26  C   UNL     1       9.360  31.471  61.816  1.00  0.00     0.002 A 
HETATM   27  C   UNL     1       8.540  32.245  62.635  1.00  0.00     0.000 A 
HETATM   28  C   UNL     1       7.243  32.545  62.229  1.00  0.00     0.002 A 
HETATM   29  C   UNL     1       6.772  32.079  61.000  1.00  0.00     0.029 A 
ENDBRANCH  21  24
ENDBRANCH  19  20
ENDBRANCH   3  19
TORSDOF 5
ENDMDL
MODEL 6
REMARK VINA RESULT:      -8.7      2.078      2.832
REMARK  5 active torsions:
REMARK  status: ('A' for Active; 'I' for Inactive)
REMARK    1  A    between atoms: C_3  and  N_4 
REMARK       I    between atoms: N_4  and  C_5 
REMARK       I    between atoms: C_5  and  N_6 
REMARK    2  A    between atoms: N_6  and  C_7 
REMARK    3  A    between atoms: C_7  and  C_8 
REMARK       I    between atoms: C_8  and  N_9 
REMARK    4  A    between atoms: N_9  and  C_10 
REMARK    5  A    between atoms: C_19  and  C_20 
ROOT
HETATM    1  N   UNL     1       6.550  29.167  55.867  1.00  0.00    -0.309 N 
HETATM    2  C   UNL     1       5.783  28.027  55.881  1.00  0.00     0.321 C 
HETATM    3  N   UNL     1       5.932  27.296  54.732  1.00  0.00    -0.334 N 
HETATM    4  O   UNL     1       5.061  27.659  56.799  1.00  0.00    -0.247 OA
HETATM    5  H   UNL     1       7.460  29.041  55.453  1.00  0.00     0.170 HD
HETATM    6  H   UNL     1       6.419  27.736  53.965  1.00  0.00     0.164 HD
ENDROOT
BRANCH   1   7
HETATM    7  C   UNL     1       6.416  30.216  56.806  1.00  0.00     0.043 A 
HETATM    8  C   UNL     1       5.418  31.194  56.635  1.00  0.00    -0.035 A 
HETATM    9  C   UNL     1       4.540  31.249  55.415  1.00  0.00     0.050 C 
HETATM   10  C   UNL     1       5.286  32.201  57.603  1.00  0.00     0.010 A 
HETATM   11  C   UNL     1       6.098  32.213  58.740  1.00  0.00     0.016 A 
HETATM   12  C   UNL     1       7.069  31.226  58.937  1.00  0.00     0.019 A 
HETATM   13  C   UNL     1       7.231  30.242  57.949  1.00  0.00     0.046 A 
BRANCH  12  14
HETATM   14  C   UNL     1       7.856  31.225  60.167  1.00  0.00     0.179 A 
HETATM   15  O   UNL     1       8.762  30.206  60.327  1.00  0.00    -0.302 OA
HETATM   16  C   UNL     1       9.302  30.428  61.557  1.00  0.00     0.163 A 
HETATM   17  C   UNL     1       8.714  31.549  62.082  1.00  0.00     0.144 A 
HETATM   18  N   UNL     1       7.795  32.053  61.197  1.00  0.00    -0.234 NA
ENDBRANCH  12  14
ENDBRANCH   1   7
BRANCH   3  19
HETATM   19  C   UNL     1       5.744  25.852  54.666  1.00  0.00     0.227 C 
BRANCH  19  20
HETATM   20  C   UNL     1       6.941  24.886  54.780  1.00  0.00     0.239 C 
HETATM   21  N   UNL     1       6.750  23.686  54.129  1.00  0.00    -0.326 N 
HETATM   22  H   UNL     1       5.939  23.639  53.509  1.00  0.00     0.169 HD
HETATM   23  O   UNL     1       7.872  25.156  55.539  1.00  0.00    -0.271 OA
BRANCH  21  24
HETATM   24  C   UNL     1       7.456  22.479  54.291  1.00  0.00     0.034 A 
HETATM   25  C   UNL     1       7.637  21.835  55.514  1.00  0.00     0.029 A 
HETATM   26  C   UNL     1       8.289  20.598  55.572  1.00  0.00     0.002 A 
HETATM   27  C   UNL     1       8.772  20.003  54.409  1.00  0.00     0.000 A 
HETATM   28  C   UNL     1       8.609  20.645  53.184  1.00  0.00     0.002 A 
HETATM   29  C   UNL     1       7.952  21.876  53.126  1.00  0.00     0.029 A 
ENDBRANCH  21  24
ENDBRANCH  19  20
ENDBRANCH   3  19
TORSDOF 5
ENDMDL
MODEL 7
REMARK VINA RESULT:      -8.7      2.927     10.894
REMARK  5 active torsions:
REMARK  status: ('A' for Active; 'I' for Inactive)
REMARK    1  A    between atoms: C_3  and  N_4 
REMARK       I    between atoms: N_4  and  C_5 
REMARK       I    between atoms: C_5  and  N_6 
REMARK    2  A    between atoms: N_6  and  C_7 
REMARK    3  A    between atoms: C_7  and  C_8 
REMARK       I    between atoms: C_8  and  N_9 
REMARK    4  A    between atoms: N_9  and  C_10 
REMARK    5  A    between atoms: C_19  and  C_20 
ROOT
HETATM    1  N   UNL     1       7.841  30.484  59.936  1.00  0.00    -0.309 N 
HETATM    2  C   UNL     1       6.994  31.565  59.998  1.00  0.00     0.321 C 
HETATM    3  N   UNL     1       6.432  31.703  61.240  1.00  0.00    -0.334 N 
HETATM    4  O   UNL     1       6.761  32.348  59.087  1.00  0.00    -0.247 OA
HETATM    5  H   UNL     1       8.394  30.351  60.767  1.00  0.00     0.170 HD
HETATM    6  H   UNL     1       6.550  30.939  61.888  1.00  0.00     0.164 HD
ENDROOT
BRANCH   1   7
HETATM    7  C   UNL     1       8.366  29.967  58.729  1.00  0.00     0.043 A 
HETATM    8  C   UNL     1       9.551  30.500  58.188  1.00  0.00    -0.035 A 
HETATM    9  C   UNL     1      10.241  31.698  58.779  1.00  0.00     0.050 C 
HETATM   10  C   UNL     1      10.067  29.941  57.009  1.00  0.00     0.010 A 
HETATM   11  C   UNL     1       9.446  28.846  56.404  1.00  0.00     0.016 A 
HETATM   12  C   UNL     1       8.288  28.286  56.952  1.00  0.00     0.019 A 
HETATM   13  C   UNL     1       7.746  28.871  58.108  1.00  0.00     0.046 A 
BRANCH  12  14
HETATM   14  C   UNL     1       7.700  27.100  56.335  1.00  0.00     0.179 A 
HETATM   15  O   UNL     1       6.738  27.307  55.378  1.00  0.00    -0.302 OA
HETATM   16  C   UNL     1       6.343  26.054  55.023  1.00  0.00     0.163 A 
HETATM   17  C   UNL     1       7.066  25.156  55.764  1.00  0.00     0.144 A 
HETATM   18  N   UNL     1       7.927  25.824  56.597  1.00  0.00    -0.234 NA
ENDBRANCH  12  14
ENDBRANCH   1   7
BRANCH   3  19
HETATM   19  C   UNL     1       5.989  32.980  61.785  1.00  0.00     0.227 C 
BRANCH  19  20
HETATM   20  C   UNL     1       5.419  33.082  63.216  1.00  0.00     0.239 C 
HETATM   21  N   UNL     1       5.690  34.283  63.836  1.00  0.00    -0.326 N 
HETATM   22  H   UNL     1       6.066  35.020  63.237  1.00  0.00     0.169 HD
HETATM   23  O   UNL     1       4.934  32.086  63.750  1.00  0.00    -0.271 OA
BRANCH  21  24
HETATM   24  C   UNL     1       5.624  34.595  65.207  1.00  0.00     0.034 A 
HETATM   25  C   UNL     1       4.646  35.408  65.780  1.00  0.00     0.029 A 
HETATM   26  C   UNL     1       4.612  35.604  67.165  1.00  0.00     0.002 A 
HETATM   27  C   UNL     1       5.561  34.997  67.984  1.00  0.00     0.000 A 
HETATM   28  C   UNL     1       6.550  34.195  67.421  1.00  0.00     0.002 A 
HETATM   29  C   UNL     1       6.579  33.994  66.039  1.00  0.00     0.029 A 
ENDBRANCH  21  24
ENDBRANCH  19  20
ENDBRANCH   3  19
TORSDOF 5
ENDMDL
MODEL 8
REMARK VINA RESULT:      -8.5      2.600     10.055
REMARK  5 active torsions:
REMARK  status: ('A' for Active; 'I' for Inactive)
REMARK    1  A    between atoms: C_3  and  N_4 
REMARK       I    between atoms: N_4  and  C_5 
REMARK       I    between atoms: C_5  and  N_6 
REMARK    2  A    between atoms: N_6  and  C_7 
REMARK    3  A    between atoms: C_7  and  C_8 
REMARK       I    between atoms: C_8  and  N_9 
REMARK    4  A    between atoms: N_9  and  C_10 
REMARK    5  A    between atoms: C_19  and  C_20 
ROOT
HETATM    1  N   UNL     1       7.659  28.131  56.435  1.00  0.00    -0.309 N 
HETATM    2  C   UNL     1       6.808  29.006  57.066  1.00  0.00     0.321 C 
HETATM    3  N   UNL     1       7.466  29.797  57.971  1.00  0.00    -0.334 N 
HETATM    4  O   UNL     1       5.606  29.115  56.857  1.00  0.00    -0.247 OA
HETATM    5  H   UNL     1       8.559  28.527  56.212  1.00  0.00     0.170 HD
HETATM    6  H   UNL     1       8.416  29.547  58.198  1.00  0.00     0.164 HD
ENDROOT
BRANCH   1   7
HETATM    7  C   UNL     1       7.223  27.048  55.637  1.00  0.00     0.043 A 
HETATM    8  C   UNL     1       7.187  25.746  56.171  1.00  0.00    -0.035 A 
HETATM    9  C   UNL     1       7.711  25.420  57.542  1.00  0.00     0.050 C 
HETATM   10  C   UNL     1       6.715  24.698  55.366  1.00  0.00     0.010 A 
HETATM   11  C   UNL     1       6.245  24.944  54.074  1.00  0.00     0.016 A 
HETATM   12  C   UNL     1       6.243  26.239  53.546  1.00  0.00     0.019 A 
HETATM   13  C   UNL     1       6.755  27.282  54.334  1.00  0.00     0.046 A 
BRANCH  12  14
HETATM   14  C   UNL     1       5.683  26.475  52.218  1.00  0.00     0.179 A 
HETATM   15  O   UNL     1       4.980  27.640  52.036  1.00  0.00    -0.302 OA
HETATM   16  C   UNL     1       4.542  27.570  50.749  1.00  0.00     0.163 A 
HETATM   17  C   UNL     1       4.989  26.389  50.214  1.00  0.00     0.144 A 
HETATM   18  N   UNL     1       5.712  25.696  51.150  1.00  0.00    -0.234 NA
ENDBRANCH  12  14
ENDBRANCH   1   7
BRANCH   3  19
HETATM   19  C   UNL     1       7.016  31.130  58.351  1.00  0.00     0.227 C 
BRANCH  19  20
HETATM   20  C   UNL     1       7.619  31.858  59.571  1.00  0.00     0.239 C 
HETATM   21  N   UNL     1       6.844  31.773  60.708  1.00  0.00    -0.326 N 
HETATM   22  H   UNL     1       6.070  31.106  60.672  1.00  0.00     0.169 HD
HETATM   23  O   UNL     1       8.611  32.570  59.426  1.00  0.00    -0.271 OA
BRANCH  21  24
HETATM   24  C   UNL     1       6.904  32.563  61.871  1.00  0.00     0.034 A 
HETATM   25  C   UNL     1       6.151  33.719  62.074  1.00  0.00     0.029 A 
HETATM   26  C   UNL     1       6.218  34.401  63.293  1.00  0.00     0.002 A 
HETATM   27  C   UNL     1       7.046  33.939  64.313  1.00  0.00     0.000 A 
HETATM   28  C   UNL     1       7.813  32.794  64.115  1.00  0.00     0.002 A 
HETATM   29  C   UNL     1       7.741  32.109  62.901  1.00  0.00     0.029 A 
ENDBRANCH  21  24
ENDBRANCH  19  20
ENDBRANCH   3  19
TORSDOF 5
ENDMDL
MODEL 9
REMARK VINA RESULT:      -8.5      5.411      9.590
REMARK  5 active torsions:
REMARK  status: ('A' for Active; 'I' for Inactive)
REMARK    1  A    between atoms: C_3  and  N_4 
REMARK       I    between atoms: N_4  and  C_5 
REMARK       I    between atoms: C_5  and  N_6 
REMARK    2  A    between atoms: N_6  and  C_7 
REMARK    3  A    between atoms: C_7  and  C_8 
REMARK       I    between atoms: C_8  and  N_9 
REMARK    4  A    between atoms: N_9  and  C_10 
REMARK    5  A    between atoms: C_19  and  C_20 
ROOT
HETATM    1  N   UNL     1       4.842  26.015  53.826  1.00  0.00    -0.309 N 
HETATM    2  C   UNL     1       5.246  26.992  52.948  1.00  0.00     0.321 C 
HETATM    3  N   UNL     1       4.219  27.416  52.146  1.00  0.00    -0.334 N 
HETATM    4  O   UNL     1       6.371  27.471  52.875  1.00  0.00    -0.247 OA
HETATM    5  H   UNL     1       3.921  26.165  54.207  1.00  0.00     0.170 HD
HETATM    6  H   UNL     1       3.370  26.872  52.158  1.00  0.00     0.164 HD
ENDROOT
BRANCH   1   7
HETATM    7  C   UNL     1       5.734  25.235  54.599  1.00  0.00     0.043 A 
HETATM    8  C   UNL     1       5.948  25.542  55.955  1.00  0.00    -0.035 A 
HETATM    9  C   UNL     1       5.351  26.756  56.614  1.00  0.00     0.050 C 
HETATM   10  C   UNL     1       6.811  24.727  56.704  1.00  0.00     0.010 A 
HETATM   11  C   UNL     1       7.413  23.605  56.132  1.00  0.00     0.016 A 
HETATM   12  C   UNL     1       7.180  23.271  54.793  1.00  0.00     0.019 A 
HETATM   13  C   UNL     1       6.351  24.109  54.031  1.00  0.00     0.046 A 
BRANCH  12  14
HETATM   14  C   UNL     1       7.770  22.054  54.242  1.00  0.00     0.179 A 
HETATM   15  O   UNL     1       8.284  21.149  55.137  1.00  0.00    -0.302 OA
HETATM   16  C   UNL     1       8.800  20.161  54.356  1.00  0.00     0.163 A 
HETATM   17  C   UNL     1       8.583  20.500  53.046  1.00  0.00     0.144 A 
HETATM   18  N   UNL     1       7.928  21.703  52.977  1.00  0.00    -0.234 NA
ENDBRANCH  12  14
ENDBRANCH   1   7
BRANCH   3  19
HETATM   19  C   UNL     1       4.153  28.748  51.560  1.00  0.00     0.227 C 
BRANCH  19  20
HETATM   20  C   UNL     1       3.665  28.960  50.112  1.00  0.00     0.239 C 
HETATM   21  N   UNL     1       2.332  28.664  49.927  1.00  0.00    -0.326 N 
HETATM   22  H   UNL     1       1.784  28.519  50.777  1.00  0.00     0.169 HD
HETATM   23  O   UNL     1       4.481  29.201  49.223  1.00  0.00    -0.271 OA
BRANCH  21  24
HETATM   24  C   UNL     1       1.646  28.424  48.721  1.00  0.00     0.034 A 
HETATM   25  C   UNL     1       0.929  29.394  48.020  1.00  0.00     0.029 A 
HETATM   26  C   UNL     1       0.341  29.086  46.789  1.00  0.00     0.002 A 
HETATM   27  C   UNL     1       0.457  27.805  46.255  1.00  0.00     0.000 A 
HETATM   28  C   UNL     1       1.159  26.826  46.953  1.00  0.00     0.002 A 
HETATM   29  C   UNL     1       1.752  27.136  48.178  1.00  0.00     0.029 A 
ENDBRANCH  21  24
ENDBRANCH  19  20
ENDBRANCH   3  19
TORSDOF 5
ENDMDL
MODEL 10
REMARK VINA RESULT:      -8.4      1.831      2.219
REMARK  5 active torsions:
REMARK  status: ('A' for Active; 'I' for Inactive)
REMARK    1  A    between atoms: C_3  and  N_4 
REMARK       I    between atoms: N_4  and  C_5 
REMARK       I    between atoms: C_5  and  N_6 
REMARK    2  A    between atoms: N_6  and  C_7 
REMARK    3  A    between atoms: C_7  and  C_8 
REMARK       I    between atoms: C_8  and  N_9 
REMARK    4  A    between atoms: N_9  and  C_10 
REMARK    5  A    between atoms: C_19  and  C_20 
ROOT
HETATM    1  N   UNL     1       6.586  30.399  56.964  1.00  0.00    -0.309 N 
HETATM    2  C   UNL     1       5.813  29.273  56.812  1.00  0.00     0.321 C 
HETATM    3  N   UNL     1       5.073  29.312  55.660  1.00  0.00    -0.334 N 
HETATM    4  O   UNL     1       5.780  28.317  57.577  1.00  0.00    -0.247 OA
HETATM    5  H   UNL     1       6.991  30.734  56.104  1.00  0.00     0.170 HD
HETATM    6  H   UNL     1       5.036  30.190  55.165  1.00  0.00     0.164 HD
ENDROOT
BRANCH   1   7
HETATM    7  C   UNL     1       7.261  30.733  58.161  1.00  0.00     0.043 A 
HETATM    8  C   UNL     1       8.585  30.305  58.369  1.00  0.00    -0.035 A 
HETATM    9  C   UNL     1       9.299  29.391  57.412  1.00  0.00     0.050 C 
HETATM   10  C   UNL     1       9.240  30.684  59.552  1.00  0.00     0.010 A 
HETATM   11  C   UNL     1       8.610  31.508  60.487  1.00  0.00     0.016 A 
HETATM   12  C   UNL     1       7.306  31.968  60.274  1.00  0.00     0.019 A 
HETATM   13  C   UNL     1       6.635  31.555  59.112  1.00  0.00     0.046 A 
BRANCH  12  14
HETATM   14  C   UNL     1       6.699  32.882  61.237  1.00  0.00     0.179 A 
HETATM   15  O   UNL     1       5.542  33.514  60.852  1.00  0.00    -0.302 OA
HETATM   16  C   UNL     1       5.237  34.323  61.903  1.00  0.00     0.163 A 
HETATM   17  C   UNL     1       6.201  34.153  62.863  1.00  0.00     0.144 A 
HETATM   18  N   UNL     1       7.128  33.237  62.435  1.00  0.00    -0.234 NA
ENDBRANCH  12  14
ENDBRANCH   1   7
BRANCH   3  19
HETATM   19  C   UNL     1       4.633  28.121  54.945  1.00  0.00     0.227 C 
BRANCH  19  20
HETATM   20  C   UNL     1       5.650  27.164  54.288  1.00  0.00     0.239 C 
HETATM   21  N   UNL     1       5.355  25.830  54.469  1.00  0.00    -0.326 N 
HETATM   22  H   UNL     1       4.428  25.626  54.847  1.00  0.00     0.169 HD
HETATM   23  O   UNL     1       6.693  27.616  53.815  1.00  0.00    -0.271 OA
BRANCH  21  24
HETATM   24  C   UNL     1       6.200  24.716  54.309  1.00  0.00     0.034 A 
HETATM   25  C   UNL     1       6.544  24.164  53.075  1.00  0.00     0.029 A 
HETATM   26  C   UNL     1       7.452  23.102  53.005  1.00  0.00     0.002 A 
HETATM   27  C   UNL     1       8.014  22.579  54.167  1.00  0.00     0.000 A 
HETATM   28  C   UNL     1       7.667  23.114  55.404  1.00  0.00     0.002 A 
HETATM   29  C   UNL     1       6.766  24.178  55.474  1.00  0.00     0.029 A 
ENDBRANCH  21  24
ENDBRANCH  19  20
ENDBRANCH   3  19
TORSDOF 5
ENDMDL
