MODEL 1
REMARK VINA RESULT:     -10.0      0.000      0.000
REMARK  5 active torsions:
REMARK  status: ('A' for Active; 'I' for Inactive)
REMARK    1  A    between atoms: C_2  and  C_3 
REMARK    2  A    between atoms: C_2  and  C_9 
REMARK    3  A    between atoms: C_9  and  C_10 
REMARK       I    between atoms: C_10  and  N_11 
REMARK    4  A    between atoms: N_11  and  C_12 
REMARK    5  A    between atoms: C_19  and  C_20 
REMARK       I    between atoms: C_20  and  N_21 
ROOT
HETATM    1  C   UNL     1       7.932  28.430  57.110  1.00  0.00     0.035 A 
HETATM    2  C   UNL     1       7.585  29.311  58.143  1.00  0.00     0.046 A 
HETATM    3  C   UNL     1       8.452  30.376  58.474  1.00  0.00     0.030 A 
HETATM    4  C   UNL     1       9.630  30.528  57.755  1.00  0.00     0.063 A 
HETATM    5  N   UNL     1      10.246  31.624  58.294  1.00  0.00    -0.277 N 
HETATM    6  H   UNL     1      11.131  32.029  58.016  1.00  0.00     0.189 HD
HETATM    7  N   UNL     1       9.575  32.197  59.306  1.00  0.00    -0.168 NA
HETATM    8  C   UNL     1       8.464  31.436  59.431  1.00  0.00     0.156 A 
HETATM    9  C   UNL     1      10.007  29.675  56.717  1.00  0.00     0.034 A 
HETATM   10  C   UNL     1       9.135  28.622  56.413  1.00  0.00     0.032 A 
ENDROOT
BRANCH   1  11
HETATM   11  N   UNL     1       7.151  27.318  56.730  1.00  0.00    -0.327 N 
HETATM   12  C   UNL     1       7.528  25.986  56.724  1.00  0.00     0.223 C 
HETATM   13  O   UNL     1       8.579  25.522  57.150  1.00  0.00    -0.273 OA
HETATM   14  H   UNL     1       6.207  27.523  56.435  1.00  0.00     0.169 HD
BRANCH  12  15
HETATM   15  C   UNL     1       6.486  25.078  56.087  1.00  0.00     0.116 C 
BRANCH  15  16
HETATM   16  C   UNL     1       6.715  24.799  54.576  1.00  0.00    -0.012 C 
HETATM   17  C   UNL     1       7.691  25.852  53.997  1.00  0.00     0.020 C 
HETATM   18  C   UNL     1       5.400  24.924  53.769  1.00  0.00     0.020 C 
BRANCH  16  19
HETATM   19  C   UNL     1       7.245  23.351  54.438  1.00  0.00    -0.050 A 
HETATM   20  C   UNL     1       7.405  22.496  55.542  1.00  0.00     0.008 A 
HETATM   21  C   UNL     1       7.887  21.192  55.388  1.00  0.00     0.001 A 
HETATM   22  C   UNL     1       8.214  20.709  54.125  1.00  0.00     0.000 A 
HETATM   23  C   UNL     1       8.056  21.529  53.014  1.00  0.00     0.001 A 
HETATM   24  C   UNL     1       7.575  22.832  53.169  1.00  0.00     0.008 A 
ENDBRANCH  16  19
ENDBRANCH  15  16
ENDBRANCH  12  15
ENDBRANCH   1  11
BRANCH   8  25
HETATM   25  C   UNL     1       7.451  31.732  60.454  1.00  0.00     0.270 C 
HETATM   26  N   UNL     1       7.528  30.934  61.563  1.00  0.00    -0.365 N 
HETATM   27  H   UNL     1       8.247  30.220  61.597  1.00  0.00     0.159 HD
HETATM   28  H   UNL     1       6.870  31.059  62.315  1.00  0.00     0.159 HD
HETATM   29  O   UNL     1       6.594  32.603  60.360  1.00  0.00    -0.266 OA
ENDBRANCH   8  25
TORSDOF 5
ENDMDL
MODEL 2
REMARK VINA RESULT:      -9.5      1.734      2.392
REMARK  5 active torsions:
REMARK  status: ('A' for Active; 'I' for Inactive)
REMARK    1  A    between atoms: C_2  and  C_3 
REMARK    2  A    between atoms: C_2  and  C_9 
REMARK    3  A    between atoms: C_9  and  C_10 
REMARK       I    between atoms: C_10  and  N_11 
REMARK    4  A    between atoms: N_11  and  C_12 
REMARK    5  A    between atoms: C_19  and  C_20 
REMARK       I    between atoms: C_20  and  N_21 
ROOT
HETATM    1  C   UNL     1       6.871  28.393  56.699  1.00  0.00     0.035 A 
HETATM    2  C   UNL     1       7.631  29.221  57.537  1.00  0.00     0.046 A 
HETATM    3  C   UNL     1       7.052  30.395  58.068  1.00  0.00     0.030 A 
HETATM    4  C   UNL     1       5.734  30.696  57.750  1.00  0.00     0.063 A 
HETATM    5  N   UNL     1       5.462  31.868  58.400  1.00  0.00    -0.277 N 
HETATM    6  H   UNL     1       4.591  32.385  58.395  1.00  0.00     0.189 HD
HETATM    7  N   UNL     1       6.489  32.362  59.110  1.00  0.00    -0.168 NA
HETATM    8  C   UNL     1       7.481  31.464  58.914  1.00  0.00     0.156 A 
HETATM    9  C   UNL     1       4.947  29.894  56.924  1.00  0.00     0.034 A 
HETATM   10  C   UNL     1       5.544  28.739  56.404  1.00  0.00     0.032 A 
ENDROOT
BRANCH   1  11
HETATM   11  N   UNL     1       7.370  27.221  56.092  1.00  0.00    -0.327 N 
HETATM   12  C   UNL     1       7.196  25.914  56.513  1.00  0.00     0.223 C 
HETATM   13  O   UNL     1       6.485  25.532  57.435  1.00  0.00    -0.273 OA
HETATM   14  H   UNL     1       7.913  27.358  55.250  1.00  0.00     0.169 HD
BRANCH  12  15
HETATM   15  C   UNL     1       8.024  24.918  55.713  1.00  0.00     0.116 C 
BRANCH  15  16
HETATM   16  C   UNL     1       7.352  24.432  54.399  1.00  0.00    -0.012 C 
HETATM   17  C   UNL     1       7.897  25.255  53.205  1.00  0.00     0.020 C 
HETATM   18  C   UNL     1       5.821  24.654  54.427  1.00  0.00     0.020 C 
BRANCH  16  19
HETATM   19  C   UNL     1       7.631  22.917  54.258  1.00  0.00    -0.050 A 
HETATM   20  C   UNL     1       7.870  22.303  53.016  1.00  0.00     0.008 A 
HETATM   21  C   UNL     1       8.118  20.930  52.919  1.00  0.00     0.001 A 
HETATM   22  C   UNL     1       8.142  20.138  54.062  1.00  0.00     0.000 A 
HETATM   23  C   UNL     1       7.921  20.720  55.305  1.00  0.00     0.001 A 
HETATM   24  C   UNL     1       7.670  22.092  55.402  1.00  0.00     0.008 A 
ENDBRANCH  16  19
ENDBRANCH  15  16
ENDBRANCH  12  15
ENDBRANCH   1  11
BRANCH   8  25
HETATM   25  C   UNL     1       8.804  31.646  59.527  1.00  0.00     0.270 C 
HETATM   26  N   UNL     1       9.069  30.779  60.552  1.00  0.00    -0.365 N 
HETATM   27  H   UNL     1       8.360  30.100  60.807  1.00  0.00     0.159 HD
HETATM   28  H   UNL     1       9.950  30.833  61.037  1.00  0.00     0.159 HD
HETATM   29  O   UNL     1       9.624  32.491  59.186  1.00  0.00    -0.266 OA
ENDBRANCH   8  25
TORSDOF 5
ENDMDL
MODEL 3
REMARK VINA RESULT:      -9.3      5.499      7.756
REMARK  5 active torsions:
REMARK  status: ('A' for Active; 'I' for Inactive)
REMARK    1  A    between atoms: C_2  and  C_3 
REMARK    2  A    between atoms: C_2  and  C_9 
REMARK    3  A    between atoms: C_9  and  C_10 
REMARK       I    between atoms: C_10  and  N_11 
REMARK    4  A    between atoms: N_11  and  C_12 
REMARK    5  A    between atoms: C_19  and  C_20 
REMARK       I    between atoms: C_20  and  N_21 
ROOT
HETATM    1  C   UNL     1       4.734  26.586  50.058  1.00  0.00     0.035 A 
HETATM    2  C   UNL     1       5.146  27.920  50.182  1.00  0.00     0.046 A 
HETATM    3  C   UNL     1       4.863  28.836  49.144  1.00  0.00     0.030 A 
HETATM    4  C   UNL     1       4.174  28.389  48.024  1.00  0.00     0.063 A 
HETATM    5  N   UNL     1       4.053  29.482  47.212  1.00  0.00    -0.277 N 
HETATM    6  H   UNL     1       3.604  29.525  46.305  1.00  0.00     0.189 HD
HETATM    7  N   UNL     1       4.607  30.603  47.700  1.00  0.00    -0.168 NA
HETATM    8  C   UNL     1       5.115  30.220  48.894  1.00  0.00     0.156 A 
HETATM    9  C   UNL     1       3.746  27.070  47.869  1.00  0.00     0.034 A 
HETATM   10  C   UNL     1       4.044  26.179  48.908  1.00  0.00     0.032 A 
ENDROOT
BRANCH   1  11
HETATM   11  N   UNL     1       5.000  25.590  51.023  1.00  0.00    -0.327 N 
HETATM   12  C   UNL     1       5.121  25.753  52.392  1.00  0.00     0.223 C 
HETATM   13  O   UNL     1       4.912  26.781  53.026  1.00  0.00    -0.273 OA
HETATM   14  H   UNL     1       5.110  24.650  50.667  1.00  0.00     0.169 HD
BRANCH  12  15
HETATM   15  C   UNL     1       5.585  24.490  53.101  1.00  0.00     0.116 C 
BRANCH  15  16
HETATM   16  C   UNL     1       7.086  24.493  53.503  1.00  0.00    -0.012 C 
HETATM   17  C   UNL     1       7.310  25.499  54.660  1.00  0.00     0.020 C 
HETATM   18  C   UNL     1       7.987  24.956  52.334  1.00  0.00     0.020 C 
BRANCH  16  19
HETATM   19  C   UNL     1       7.475  23.044  53.886  1.00  0.00    -0.050 A 
HETATM   20  C   UNL     1       7.467  22.585  55.214  1.00  0.00     0.008 A 
HETATM   21  C   UNL     1       7.825  21.270  55.531  1.00  0.00     0.001 A 
HETATM   22  C   UNL     1       8.192  20.381  54.527  1.00  0.00     0.000 A 
HETATM   23  C   UNL     1       8.198  20.805  53.203  1.00  0.00     0.001 A 
HETATM   24  C   UNL     1       7.843  22.119  52.887  1.00  0.00     0.008 A 
ENDBRANCH  16  19
ENDBRANCH  15  16
ENDBRANCH  12  15
ENDBRANCH   1  11
BRANCH   8  25
HETATM   25  C   UNL     1       5.825  31.173  49.759  1.00  0.00     0.270 C 
HETATM   26  N   UNL     1       5.268  31.324  50.999  1.00  0.00    -0.365 N 
HETATM   27  H   UNL     1       4.435  30.793  51.224  1.00  0.00     0.159 HD
HETATM   28  H   UNL     1       5.683  31.962  51.659  1.00  0.00     0.159 HD
HETATM   29  O   UNL     1       6.827  31.801  49.435  1.00  0.00    -0.266 OA
ENDBRANCH   8  25
TORSDOF 5
ENDMDL
MODEL 4
REMARK VINA RESULT:      -9.3      2.202      2.378
REMARK  5 active torsions:
REMARK  status: ('A' for Active; 'I' for Inactive)
REMARK    1  A    between atoms: C_2  and  C_3 
REMARK    2  A    between atoms: C_2  and  C_9 
REMARK    3  A    between atoms: C_9  and  C_10 
REMARK       I    between atoms: C_10  and  N_11 
REMARK    4  A    between atoms: N_11  and  C_12 
REMARK    5  A    between atoms: C_19  and  C_20 
REMARK       I    between atoms: C_20  and  N_21 
ROOT
HETATM    1  C   UNL     1       7.063  28.012  57.055  1.00  0.00     0.035 A 
HETATM    2  C   UNL     1       5.960  28.831  57.332  1.00  0.00     0.046 A 
HETATM    3  C   UNL     1       6.162  30.093  57.933  1.00  0.00     0.030 A 
HETATM    4  C   UNL     1       7.458  30.496  58.227  1.00  0.00     0.063 A 
HETATM    5  N   UNL     1       7.335  31.736  58.789  1.00  0.00    -0.277 N 
HETATM    6  H   UNL     1       8.079  32.333  59.128  1.00  0.00     0.189 HD
HETATM    7  N   UNL     1       6.071  32.177  58.893  1.00  0.00    -0.168 NA
HETATM    8  C   UNL     1       5.332  31.171  58.369  1.00  0.00     0.156 A 
HETATM    9  C   UNL     1       8.580  29.710  57.961  1.00  0.00     0.034 A 
HETATM   10  C   UNL     1       8.354  28.459  57.373  1.00  0.00     0.032 A 
ENDROOT
BRANCH   1  11
HETATM   11  N   UNL     1       6.961  26.722  56.490  1.00  0.00    -0.327 N 
HETATM   12  C   UNL     1       6.122  26.313  55.470  1.00  0.00     0.223 C 
HETATM   13  O   UNL     1       5.387  27.027  54.797  1.00  0.00    -0.273 OA
HETATM   14  H   UNL     1       7.579  26.022  56.878  1.00  0.00     0.169 HD
BRANCH  12  15
HETATM   15  C   UNL     1       6.157  24.809  55.239  1.00  0.00     0.116 C 
BRANCH  15  16
HETATM   16  C   UNL     1       6.806  24.380  53.893  1.00  0.00    -0.012 C 
HETATM   17  C   UNL     1       7.903  25.399  53.499  1.00  0.00     0.020 C 
HETATM   18  C   UNL     1       5.773  24.375  52.741  1.00  0.00     0.020 C 
BRANCH  16  19
HETATM   19  C   UNL     1       7.357  22.945  54.072  1.00  0.00    -0.050 A 
HETATM   20  C   UNL     1       7.456  22.323  55.329  1.00  0.00     0.008 A 
HETATM   21  C   UNL     1       7.960  21.025  55.460  1.00  0.00     0.001 A 
HETATM   22  C   UNL     1       8.371  20.314  54.338  1.00  0.00     0.000 A 
HETATM   23  C   UNL     1       8.274  20.900  53.081  1.00  0.00     0.001 A 
HETATM   24  C   UNL     1       7.773  22.198  52.950  1.00  0.00     0.008 A 
ENDBRANCH  16  19
ENDBRANCH  15  16
ENDBRANCH  12  15
ENDBRANCH   1  11
BRANCH   8  25
HETATM   25  C   UNL     1       3.867  31.259  58.302  1.00  0.00     0.270 C 
HETATM   26  N   UNL     1       3.219  30.530  59.262  1.00  0.00    -0.365 N 
HETATM   27  H   UNL     1       3.774  29.998  59.923  1.00  0.00     0.159 HD
HETATM   28  H   UNL     1       2.213  30.525  59.291  1.00  0.00     0.159 HD
HETATM   29  O   UNL     1       3.241  31.911  57.474  1.00  0.00    -0.266 OA
ENDBRANCH   8  25
TORSDOF 5
ENDMDL
MODEL 5
REMARK VINA RESULT:      -9.1      3.508      4.299
REMARK  5 active torsions:
REMARK  status: ('A' for Active; 'I' for Inactive)
REMARK    1  A    between atoms: C_2  and  C_3 
REMARK    2  A    between atoms: C_2  and  C_9 
REMARK    3  A    between atoms: C_9  and  C_10 
REMARK       I    between atoms: C_10  and  N_11 
REMARK    4  A    between atoms: N_11  and  C_12 
REMARK    5  A    between atoms: C_19  and  C_20 
REMARK       I    between atoms: C_20  and  N_21 
ROOT
HETATM    1  C   UNL     1       5.087  28.385  54.512  1.00  0.00     0.035 A 
HETATM    2  C   UNL     1       4.834  29.003  55.744  1.00  0.00     0.046 A 
HETATM    3  C   UNL     1       3.918  30.077  55.812  1.00  0.00     0.030 A 
HETATM    4  C   UNL     1       3.283  30.490  54.649  1.00  0.00     0.063 A 
HETATM    5  N   UNL     1       2.472  31.525  55.025  1.00  0.00    -0.277 N 
HETATM    6  H   UNL     1       1.858  32.070  54.432  1.00  0.00     0.189 HD
HETATM    7  N   UNL     1       2.528  31.828  56.332  1.00  0.00    -0.168 NA
HETATM    8  C   UNL     1       3.419  30.943  56.833  1.00  0.00     0.156 A 
HETATM    9  C   UNL     1       3.506  29.896  53.406  1.00  0.00     0.034 A 
HETATM   10  C   UNL     1       4.423  28.839  53.362  1.00  0.00     0.032 A 
ENDROOT
BRANCH   1  11
HETATM   11  N   UNL     1       6.009  27.331  54.336  1.00  0.00    -0.327 N 
HETATM   12  C   UNL     1       6.091  26.154  55.058  1.00  0.00     0.223 C 
HETATM   13  O   UNL     1       5.305  25.766  55.915  1.00  0.00    -0.273 OA
HETATM   14  H   UNL     1       6.682  27.455  53.592  1.00  0.00     0.169 HD
BRANCH  12  15
HETATM   15  C   UNL     1       7.319  25.327  54.708  1.00  0.00     0.116 C 
BRANCH  15  16
HETATM   16  C   UNL     1       7.155  24.433  53.447  1.00  0.00    -0.012 C 
HETATM   17  C   UNL     1       8.048  24.980  52.306  1.00  0.00     0.020 C 
HETATM   18  C   UNL     1       5.701  24.455  52.920  1.00  0.00     0.020 C 
BRANCH  16  19
HETATM   19  C   UNL     1       7.516  22.983  53.847  1.00  0.00    -0.050 A 
HETATM   20  C   UNL     1       7.887  22.008  52.904  1.00  0.00     0.008 A 
HETATM   21  C   UNL     1       8.207  20.704  53.295  1.00  0.00     0.001 A 
HETATM   22  C   UNL     1       8.172  20.343  54.638  1.00  0.00     0.000 A 
HETATM   23  C   UNL     1       7.819  21.290  55.593  1.00  0.00     0.001 A 
HETATM   24  C   UNL     1       7.497  22.593  55.203  1.00  0.00     0.008 A 
ENDBRANCH  16  19
ENDBRANCH  15  16
ENDBRANCH  12  15
ENDBRANCH   1  11
BRANCH   8  25
HETATM   25  C   UNL     1       3.774  30.946  58.259  1.00  0.00     0.270 C 
HETATM   26  N   UNL     1       5.115  31.077  58.500  1.00  0.00    -0.365 N 
HETATM   27  H   UNL     1       5.744  31.155  57.709  1.00  0.00     0.159 HD
HETATM   28  H   UNL     1       5.454  31.083  59.448  1.00  0.00     0.159 HD
HETATM   29  O   UNL     1       2.974  30.838  59.181  1.00  0.00    -0.266 OA
ENDBRANCH   8  25
TORSDOF 5
ENDMDL
MODEL 6
REMARK VINA RESULT:      -9.1      3.475      8.565
REMARK  5 active torsions:
REMARK  status: ('A' for Active; 'I' for Inactive)
REMARK    1  A    between atoms: C_2  and  C_3 
REMARK    2  A    between atoms: C_2  and  C_9 
REMARK    3  A    between atoms: C_9  and  C_10 
REMARK       I    between atoms: C_10  and  N_11 
REMARK    4  A    between atoms: N_11  and  C_12 
REMARK    5  A    between atoms: C_19  and  C_20 
REMARK       I    between atoms: C_20  and  N_21 
ROOT
HETATM    1  C   UNL     1       7.810  24.886  54.255  1.00  0.00     0.035 A 
HETATM    2  C   UNL     1       8.130  23.762  55.030  1.00  0.00     0.046 A 
HETATM    3  C   UNL     1       8.153  22.484  54.428  1.00  0.00     0.030 A 
HETATM    4  C   UNL     1       7.864  22.375  53.075  1.00  0.00     0.063 A 
HETATM    5  N   UNL     1       7.966  21.042  52.787  1.00  0.00    -0.277 N 
HETATM    6  H   UNL     1       7.821  20.595  51.890  1.00  0.00     0.189 HD
HETATM    7  N   UNL     1       8.289  20.270  53.837  1.00  0.00    -0.168 NA
HETATM    8  C   UNL     1       8.407  21.147  54.861  1.00  0.00     0.156 A 
HETATM    9  C   UNL     1       7.547  23.471  52.272  1.00  0.00     0.034 A 
HETATM   10  C   UNL     1       7.523  24.727  52.892  1.00  0.00     0.032 A 
ENDROOT
BRANCH   1  11
HETATM   11  N   UNL     1       7.726  26.197  54.772  1.00  0.00    -0.327 N 
HETATM   12  C   UNL     1       6.585  26.954  54.967  1.00  0.00     0.223 C 
HETATM   13  O   UNL     1       5.426  26.580  54.823  1.00  0.00    -0.273 OA
HETATM   14  H   UNL     1       8.604  26.625  55.032  1.00  0.00     0.169 HD
BRANCH  12  15
HETATM   15  C   UNL     1       6.887  28.389  55.376  1.00  0.00     0.116 C 
BRANCH  15  16
HETATM   16  C   UNL     1       7.002  28.609  56.910  1.00  0.00    -0.012 C 
HETATM   17  C   UNL     1       6.957  27.240  57.634  1.00  0.00     0.020 C 
HETATM   18  C   UNL     1       5.815  29.437  57.456  1.00  0.00     0.020 C 
BRANCH  16  19
HETATM   19  C   UNL     1       8.314  29.386  57.177  1.00  0.00    -0.050 A 
HETATM   20  C   UNL     1       9.479  29.189  56.414  1.00  0.00     0.008 A 
HETATM   21  C   UNL     1      10.650  29.904  56.680  1.00  0.00     0.001 A 
HETATM   22  C   UNL     1      10.685  30.839  57.709  1.00  0.00     0.000 A 
HETATM   23  C   UNL     1       9.545  31.062  58.472  1.00  0.00     0.001 A 
HETATM   24  C   UNL     1       8.375  30.346  58.209  1.00  0.00     0.008 A 
ENDBRANCH  16  19
ENDBRANCH  15  16
ENDBRANCH  12  15
ENDBRANCH   1  11
BRANCH   8  25
HETATM   25  C   UNL     1       8.751  20.692  56.215  1.00  0.00     0.270 C 
HETATM   26  N   UNL     1       9.843  19.868  56.267  1.00  0.00    -0.365 N 
HETATM   27  H   UNL     1      10.316  19.636  55.401  1.00  0.00     0.159 HD
HETATM   28  H   UNL     1      10.151  19.501  57.152  1.00  0.00     0.159 HD
HETATM   29  O   UNL     1       8.139  20.994  57.233  1.00  0.00    -0.266 OA
ENDBRANCH   8  25
TORSDOF 5
ENDMDL
MODEL 7
REMARK VINA RESULT:      -8.7      1.940      2.501
REMARK  5 active torsions:
REMARK  status: ('A' for Active; 'I' for Inactive)
REMARK    1  A    between atoms: C_2  and  C_3 
REMARK    2  A    between atoms: C_2  and  C_9 
REMARK    3  A    between atoms: C_9  and  C_10 
REMARK       I    between atoms: C_10  and  N_11 
REMARK    4  A    between atoms: N_11  and  C_12 
REMARK    5  A    between atoms: C_19  and  C_20 
REMARK       I    between atoms: C_20  and  N_21 
ROOT
HETATM    1  C   UNL     1       7.027  28.918  56.453  1.00  0.00     0.035 A 
HETATM    2  C   UNL     1       7.651  29.524  57.552  1.00  0.00     0.046 A 
HETATM    3  C   UNL     1       7.119  30.720  58.085  1.00  0.00     0.030 A 
HETATM    4  C   UNL     1       5.980  31.263  57.506  1.00  0.00     0.063 A 
HETATM    5  N   UNL     1       5.711  32.394  58.226  1.00  0.00    -0.277 N 
HETATM    6  H   UNL     1       4.949  33.046  58.083  1.00  0.00     0.189 HD
HETATM    7  N   UNL     1       6.579  32.640  59.220  1.00  0.00    -0.168 NA
HETATM    8  C   UNL     1       7.457  31.614  59.146  1.00  0.00     0.156 A 
HETATM    9  C   UNL     1       5.330  30.686  56.414  1.00  0.00     0.034 A 
HETATM   10  C   UNL     1       5.880  29.506  55.899  1.00  0.00     0.032 A 
ENDROOT
BRANCH   1  11
HETATM   11  N   UNL     1       7.502  27.745  55.828  1.00  0.00    -0.327 N 
HETATM   12  C   UNL     1       6.761  26.789  55.157  1.00  0.00     0.223 C 
HETATM   13  O   UNL     1       5.566  26.844  54.891  1.00  0.00    -0.273 OA
HETATM   14  H   UNL     1       8.500  27.594  55.877  1.00  0.00     0.169 HD
BRANCH  12  15
HETATM   15  C   UNL     1       7.583  25.569  54.764  1.00  0.00     0.116 C 
BRANCH  15  16
HETATM   16  C   UNL     1       7.588  24.430  55.822  1.00  0.00    -0.012 C 
HETATM   17  C   UNL     1       6.303  24.518  56.683  1.00  0.00     0.020 C 
HETATM   18  C   UNL     1       8.783  24.565  56.796  1.00  0.00     0.020 C 
BRANCH  16  19
HETATM   19  C   UNL     1       7.713  23.086  55.066  1.00  0.00    -0.050 A 
HETATM   20  C   UNL     1       7.712  21.844  55.726  1.00  0.00     0.008 A 
HETATM   21  C   UNL     1       7.828  20.644  55.017  1.00  0.00     0.001 A 
HETATM   22  C   UNL     1       7.938  20.655  53.631  1.00  0.00     0.000 A 
HETATM   23  C   UNL     1       7.930  21.867  52.951  1.00  0.00     0.001 A 
HETATM   24  C   UNL     1       7.817  23.067  53.660  1.00  0.00     0.008 A 
ENDBRANCH  16  19
ENDBRANCH  15  16
ENDBRANCH  12  15
ENDBRANCH   1  11
BRANCH   8  25
HETATM   25  C   UNL     1       8.590  31.515  60.076  1.00  0.00     0.270 C 
HETATM   26  N   UNL     1       8.517  30.452  60.935  1.00  0.00    -0.365 N 
HETATM   27  H   UNL     1       7.715  29.835  60.874  1.00  0.00     0.159 HD
HETATM   28  H   UNL     1       9.246  30.307  61.614  1.00  0.00     0.159 HD
HETATM   29  O   UNL     1       9.534  32.297  60.117  1.00  0.00    -0.266 OA
ENDBRANCH   8  25
TORSDOF 5
ENDMDL
MODEL 8
REMARK VINA RESULT:      -8.4      5.387      7.970
REMARK  5 active torsions:
REMARK  status: ('A' for Active; 'I' for Inactive)
REMARK    1  A    between atoms: C_2  and  C_3 
REMARK    2  A    between atoms: C_2  and  C_9 
REMARK    3  A    between atoms: C_9  and  C_10 
REMARK       I    between atoms: C_10  and  N_11 
REMARK    4  A    between atoms: N_11  and  C_12 
REMARK    5  A    between atoms: C_19  and  C_20 
REMARK       I    between atoms: C_20  and  N_21 
ROOT
HETATM    1  C   UNL     1       5.515  27.474  52.149  1.00  0.00     0.035 A 
HETATM    2  C   UNL     1       5.428  27.244  50.769  1.00  0.00     0.046 A 
HETATM    3  C   UNL     1       4.453  27.926  50.008  1.00  0.00     0.030 A 
HETATM    4  C   UNL     1       3.604  28.818  50.651  1.00  0.00     0.063 A 
HETATM    5  N   UNL     1       2.787  29.312  49.672  1.00  0.00    -0.277 N 
HETATM    6  H   UNL     1       2.042  29.989  49.779  1.00  0.00     0.189 HD
HETATM    7  N   UNL     1       3.023  28.816  48.447  1.00  0.00    -0.168 NA
HETATM    8  C   UNL     1       4.050  27.955  48.637  1.00  0.00     0.156 A 
HETATM    9  C   UNL     1       3.664  29.075  52.020  1.00  0.00     0.034 A 
HETATM   10  C   UNL     1       4.635  28.382  52.755  1.00  0.00     0.032 A 
ENDROOT
BRANCH   1  11
HETATM   11  N   UNL     1       6.431  26.816  52.998  1.00  0.00    -0.327 N 
HETATM   12  C   UNL     1       7.200  25.703  52.708  1.00  0.00     0.223 C 
HETATM   13  O   UNL     1       7.302  25.149  51.619  1.00  0.00    -0.273 OA
HETATM   14  H   UNL     1       6.536  27.212  53.923  1.00  0.00     0.169 HD
BRANCH  12  15
HETATM   15  C   UNL     1       7.942  25.162  53.921  1.00  0.00     0.116 C 
BRANCH  15  16
HETATM   16  C   UNL     1       7.094  24.228  54.829  1.00  0.00    -0.012 C 
HETATM   17  C   UNL     1       5.592  24.404  54.493  1.00  0.00     0.020 C 
HETATM   18  C   UNL     1       7.258  24.589  56.325  1.00  0.00     0.020 C 
BRANCH  16  19
HETATM   19  C   UNL     1       7.591  22.779  54.611  1.00  0.00    -0.050 A 
HETATM   20  C   UNL     1       7.705  22.202  53.334  1.00  0.00     0.008 A 
HETATM   21  C   UNL     1       8.156  20.889  53.167  1.00  0.00     0.001 A 
HETATM   22  C   UNL     1       8.512  20.122  54.272  1.00  0.00     0.000 A 
HETATM   23  C   UNL     1       8.420  20.671  55.546  1.00  0.00     0.001 A 
HETATM   24  C   UNL     1       7.967  21.982  55.713  1.00  0.00     0.008 A 
ENDBRANCH  16  19
ENDBRANCH  15  16
ENDBRANCH  12  15
ENDBRANCH   1  11
BRANCH   8  25
HETATM   25  C   UNL     1       4.614  27.185  47.520  1.00  0.00     0.270 C 
HETATM   26  N   UNL     1       5.859  27.599  47.129  1.00  0.00    -0.365 N 
HETATM   27  H   UNL     1       6.285  28.379  47.616  1.00  0.00     0.159 HD
HETATM   28  H   UNL     1       6.323  27.134  46.366  1.00  0.00     0.159 HD
HETATM   29  O   UNL     1       4.051  26.253  46.957  1.00  0.00    -0.266 OA
ENDBRANCH   8  25
TORSDOF 5
ENDMDL
MODEL 9
REMARK VINA RESULT:      -8.2      3.219      9.280
REMARK  5 active torsions:
REMARK  status: ('A' for Active; 'I' for Inactive)
REMARK    1  A    between atoms: C_2  and  C_3 
REMARK    2  A    between atoms: C_2  and  C_9 
REMARK    3  A    between atoms: C_9  and  C_10 
REMARK       I    between atoms: C_10  and  N_11 
REMARK    4  A    between atoms: N_11  and  C_12 
REMARK    5  A    between atoms: C_19  and  C_20 
REMARK       I    between atoms: C_20  and  N_21 
ROOT
HETATM    1  C   UNL     1       6.985  28.393  57.449  1.00  0.00     0.035 A 
HETATM    2  C   UNL     1       6.359  28.279  56.201  1.00  0.00     0.046 A 
HETATM    3  C   UNL     1       6.577  27.127  55.413  1.00  0.00     0.030 A 
HETATM    4  C   UNL     1       7.407  26.128  55.902  1.00  0.00     0.063 A 
HETATM    5  N   UNL     1       7.422  25.161  54.935  1.00  0.00    -0.277 N 
HETATM    6  H   UNL     1       7.927  24.283  54.953  1.00  0.00     0.189 HD
HETATM    7  N   UNL     1       6.680  25.445  53.854  1.00  0.00    -0.168 NA
HETATM    8  C   UNL     1       6.151  26.659  54.132  1.00  0.00     0.156 A 
HETATM    9  C   UNL     1       8.044  26.204  57.141  1.00  0.00     0.034 A 
HETATM   10  C   UNL     1       7.818  27.359  57.901  1.00  0.00     0.032 A 
ENDROOT
BRANCH   1  11
HETATM   11  N   UNL     1       6.858  29.518  58.292  1.00  0.00    -0.327 N 
HETATM   12  C   UNL     1       7.800  30.504  58.530  1.00  0.00     0.223 C 
HETATM   13  O   UNL     1       8.880  30.634  57.966  1.00  0.00    -0.273 OA
HETATM   14  H   UNL     1       5.973  29.612  58.771  1.00  0.00     0.169 HD
BRANCH  12  15
HETATM   15  C   UNL     1       7.384  31.468  59.631  1.00  0.00     0.116 C 
BRANCH  15  16
HETATM   16  C   UNL     1       8.441  31.654  60.756  1.00  0.00    -0.012 C 
HETATM   17  C   UNL     1       9.697  32.349  60.175  1.00  0.00     0.020 C 
HETATM   18  C   UNL     1       8.911  30.294  61.324  1.00  0.00     0.020 C 
BRANCH  16  19
HETATM   19  C   UNL     1       7.780  32.466  61.895  1.00  0.00    -0.050 A 
HETATM   20  C   UNL     1       8.243  32.424  63.222  1.00  0.00     0.008 A 
HETATM   21  C   UNL     1       7.624  33.167  64.232  1.00  0.00     0.001 A 
HETATM   22  C   UNL     1       6.533  33.978  63.939  1.00  0.00     0.000 A 
HETATM   23  C   UNL     1       6.060  34.048  62.634  1.00  0.00     0.001 A 
HETATM   24  C   UNL     1       6.677  33.303  61.625  1.00  0.00     0.008 A 
ENDBRANCH  16  19
ENDBRANCH  15  16
ENDBRANCH  12  15
ENDBRANCH   1  11
BRANCH   8  25
HETATM   25  C   UNL     1       5.264  27.339  53.178  1.00  0.00     0.270 C 
HETATM   26  N   UNL     1       3.983  26.858  53.165  1.00  0.00    -0.365 N 
HETATM   27  H   UNL     1       3.746  26.094  53.788  1.00  0.00     0.159 HD
HETATM   28  H   UNL     1       3.305  27.259  52.538  1.00  0.00     0.159 HD
HETATM   29  O   UNL     1       5.603  28.255  52.437  1.00  0.00    -0.266 OA
ENDBRANCH   8  25
TORSDOF 5
ENDMDL
MODEL 10
REMARK VINA RESULT:      -7.8      4.227      5.189
REMARK  5 active torsions:
REMARK  status: ('A' for Active; 'I' for Inactive)
REMARK    1  A    between atoms: C_2  and  C_3 
REMARK    2  A    between atoms: C_2  and  C_9 
REMARK    3  A    between atoms: C_9  and  C_10 
REMARK       I    between atoms: C_10  and  N_11 
REMARK    4  A    between atoms: N_11  and  C_12 
REMARK    5  A    between atoms: C_19  and  C_20 
REMARK       I    between atoms: C_20  and  N_21 
ROOT
HETATM    1  C   UNL     1       5.455  28.483  53.035  1.00  0.00     0.035 A 
HETATM    2  C   UNL     1       4.872  29.146  54.123  1.00  0.00     0.046 A 
HETATM    3  C   UNL     1       3.961  30.201  53.892  1.00  0.00     0.030 A 
HETATM    4  C   UNL     1       3.660  30.551  52.582  1.00  0.00     0.063 A 
HETATM    5  N   UNL     1       2.768  31.583  52.678  1.00  0.00    -0.277 N 
HETATM    6  H   UNL     1       2.332  32.089  51.917  1.00  0.00     0.189 HD
HETATM    7  N   UNL     1       2.465  31.942  53.935  1.00  0.00    -0.168 NA
HETATM    8  C   UNL     1       3.197  31.098  54.699  1.00  0.00     0.156 A 
HETATM    9  C   UNL     1       4.217  29.911  51.474  1.00  0.00     0.034 A 
HETATM   10  C   UNL     1       5.122  28.873  51.729  1.00  0.00     0.032 A 
ENDROOT
BRANCH   1  11
HETATM   11  N   UNL     1       6.400  27.443  53.163  1.00  0.00    -0.327 N 
HETATM   12  C   UNL     1       6.316  26.159  52.654  1.00  0.00     0.223 C 
HETATM   13  O   UNL     1       5.448  25.725  51.906  1.00  0.00    -0.273 OA
HETATM   14  H   UNL     1       7.236  27.670  53.685  1.00  0.00     0.169 HD
BRANCH  12  15
HETATM   15  C   UNL     1       7.439  25.254  53.139  1.00  0.00     0.116 C 
BRANCH  15  16
HETATM   16  C   UNL     1       7.160  24.554  54.498  1.00  0.00    -0.012 C 
HETATM   17  C   UNL     1       5.677  24.764  54.893  1.00  0.00     0.020 C 
HETATM   18  C   UNL     1       8.011  25.164  55.637  1.00  0.00     0.020 C 
BRANCH  16  19
HETATM   19  C   UNL     1       7.534  23.060  54.345  1.00  0.00    -0.050 A 
HETATM   20  C   UNL     1       7.612  22.184  55.442  1.00  0.00     0.008 A 
HETATM   21  C   UNL     1       7.954  20.838  55.274  1.00  0.00     0.001 A 
HETATM   22  C   UNL     1       8.218  20.333  54.005  1.00  0.00     0.000 A 
HETATM   23  C   UNL     1       8.137  21.174  52.901  1.00  0.00     0.001 A 
HETATM   24  C   UNL     1       7.798  22.520  53.069  1.00  0.00     0.008 A 
ENDBRANCH  16  19
ENDBRANCH  15  16
ENDBRANCH  12  15
ENDBRANCH   1  11
BRANCH   8  25
HETATM   25  C   UNL     1       3.153  31.169  56.166  1.00  0.00     0.270 C 
HETATM   26  N   UNL     1       3.480  32.396  56.676  1.00  0.00    -0.365 N 
HETATM   27  H   UNL     1       3.723  33.140  56.031  1.00  0.00     0.159 HD
HETATM   28  H   UNL     1       3.483  32.539  57.673  1.00  0.00     0.159 HD
HETATM   29  O   UNL     1       2.861  30.235  56.905  1.00  0.00    -0.266 OA
ENDBRANCH   8  25
TORSDOF 5
ENDMDL
