MODEL 1
REMARK VINA RESULT:      -9.6      0.000      0.000
REMARK  10 active torsions:
REMARK  status: ('A' for Active; 'I' for Inactive)
REMARK    1  A    between atoms: C_2  and  O_3 
REMARK    2  A    between atoms: O_3  and  C_4 
REMARK    3  A    between atoms: C_4  and  C_5 
REMARK    4  A    between atoms: C_6  and  C_7 
REMARK    5  A    between atoms: C_14  and  C_15 
REMARK    6  A    between atoms: C_15  and  C_16 
REMARK       I    between atoms: C_16  and  N_17 
REMARK    7  A    between atoms: N_17  and  C_18 
REMARK    8  A    between atoms: C_18  and  C_19 
REMARK    9  A    between atoms: C_19  and  N_20 
REMARK   10  A    between atoms: C_31  and  C_32 
ROOT
HETATM    1  C   UNL     1       6.739  31.500  59.143  1.00  0.00     0.071 C 
HETATM    2  C   UNL     1       7.069  30.559  57.958  1.00  0.00     0.150 C 
HETATM    3  N   UNL     1       6.012  29.723  57.462  1.00  0.00    -0.321 N 
HETATM    4  C   UNL     1       5.882  28.547  56.942  1.00  0.00     0.011 C 
HETATM    5  C   UNL     1       4.859  30.646  57.135  1.00  0.00     0.170 C 
HETATM    6  S   UNL     1       3.711  29.904  56.081  1.00  0.00    -0.086 SA
HETATM    7  C   UNL     1       4.541  28.293  56.285  1.00  0.00     0.135 C 
HETATM    8  N   UNL     1       4.827  31.858  57.536  1.00  0.00    -0.223 NA
HETATM    9  C   UNL     1       5.661  32.290  58.588  1.00  0.00     0.084 C 
ENDROOT
BRANCH   4  10
HETATM   10  C   UNL     1       7.044  27.602  56.840  1.00  0.00     0.156 C 
BRANCH  10  11
HETATM   11  C   UNL     1       6.714  26.169  56.456  1.00  0.00     0.223 C 
HETATM   12  N   UNL     1       6.805  25.935  55.107  1.00  0.00    -0.359 N 
HETATM   13  H   UNL     1       7.006  26.728  54.503  1.00  0.00     0.162 HD
HETATM   14  O   UNL     1       6.391  25.312  57.270  1.00  0.00    -0.273 OA
BRANCH  12  15
HETATM   15  C   UNL     1       6.771  24.651  54.399  1.00  0.00     0.150 C 
BRANCH  15  16
HETATM   16  C   UNL     1       8.062  24.040  53.819  1.00  0.00     0.254 C 
BRANCH  16  17
HETATM   17  N   UNL     1       8.555  22.841  54.589  1.00  0.00    -0.070 N 
HETATM   18  H   UNL     1       9.431  23.159  55.043  1.00  0.00     0.279 HD
HETATM   19  C   UNL     1       8.931  21.670  53.690  1.00  0.00     0.235 C 
HETATM   20  C   UNL     1       7.986  20.556  54.096  1.00  0.00     0.029 C 
HETATM   21  C   UNL     1       7.785  20.800  55.577  1.00  0.00     0.029 C 
HETATM   22  C   UNL     1       7.612  22.304  55.644  1.00  0.00     0.235 C 
ENDBRANCH  16  17
ENDBRANCH  15  16
ENDBRANCH  12  15
ENDBRANCH  10  11
ENDBRANCH   4  10
BRANCH   2  23
HETATM   23  C   UNL     1       7.876  30.104  59.039  1.00  0.00     0.037 C 
HETATM   24  C   UNL     1       9.049  31.527  59.109  1.00  0.00    -0.009 C 
HETATM   25  C   UNL     1      10.378  31.496  57.948  1.00  0.00    -0.003 C 
HETATM   26  C   UNL     1      10.590  30.110  56.835  1.00  0.00    -0.001 C 
HETATM   27  C   UNL     1       9.534  28.648  56.911  1.00  0.00    -0.003 C 
HETATM   28  C   UNL     1       8.213  28.558  58.082  1.00  0.00    -0.009 C 
ENDBRANCH   2  23
BRANCH   1  29
HETATM   29  C   UNL     1       8.041  31.114  60.797  1.00  0.00     0.293 C 
HETATM   30  O   UNL     1       8.730  30.067  60.985  1.00  0.00    -0.259 OA
BRANCH  29  31
HETATM   31  O   UNL     1       8.321  32.002  61.900  1.00  0.00    -0.318 OA
BRANCH  31  32
HETATM   32  C   UNL     1       7.258  32.468  62.759  1.00  0.00     0.174 C 
HETATM   33  C   UNL     1       7.837  33.011  64.050  1.00  0.00     0.034 C 
ENDBRANCH  31  32
ENDBRANCH  29  31
ENDBRANCH   1  29
BRANCH   9  34
HETATM   34  C   UNL     1       5.037  33.586  59.035  1.00  0.00    -0.006 A 
HETATM   35  C   UNL     1       4.512  34.480  58.090  1.00  0.00     0.014 A 
HETATM   36  C   UNL     1       3.887  35.658  58.505  1.00  0.00     0.001 A 
HETATM   37  C   UNL     1       3.756  35.940  59.864  1.00  0.00     0.000 A 
HETATM   38  C   UNL     1       4.237  35.041  60.813  1.00  0.00     0.001 A 
HETATM   39  C   UNL     1       4.864  33.863  60.403  1.00  0.00     0.014 A 
ENDBRANCH   9  34
TORSDOF 10
ENDMDL
MODEL 2
REMARK VINA RESULT:      -9.3      2.833      9.372
REMARK  10 active torsions:
REMARK  status: ('A' for Active; 'I' for Inactive)
REMARK    1  A    between atoms: C_2  and  O_3 
REMARK    2  A    between atoms: O_3  and  C_4 
REMARK    3  A    between atoms: C_4  and  C_5 
REMARK    4  A    between atoms: C_6  and  C_7 
REMARK    5  A    between atoms: C_14  and  C_15 
REMARK    6  A    between atoms: C_15  and  C_16 
REMARK       I    between atoms: C_16  and  N_17 
REMARK    7  A    between atoms: N_17  and  C_18 
REMARK    8  A    between atoms: C_18  and  C_19 
REMARK    9  A    between atoms: C_19  and  N_20 
REMARK   10  A    between atoms: C_31  and  C_32 
ROOT
HETATM    1  C   UNL     1       7.899  30.246  58.167  1.00  0.00     0.071 C 
HETATM    2  C   UNL     1       6.977  30.941  59.199  1.00  0.00     0.150 C 
HETATM    3  N   UNL     1       5.761  31.528  58.713  1.00  0.00    -0.321 N 
HETATM    4  C   UNL     1       5.008  32.542  58.985  1.00  0.00     0.011 C 
HETATM    5  C   UNL     1       5.033  30.435  57.962  1.00  0.00     0.170 C 
HETATM    6  S   UNL     1       3.360  30.800  57.742  1.00  0.00    -0.086 SA
HETATM    7  C   UNL     1       3.636  32.499  58.345  1.00  0.00     0.135 C 
HETATM    8  N   UNL     1       5.606  29.341  57.633  1.00  0.00    -0.223 NA
HETATM    9  C   UNL     1       7.012  29.241  57.623  1.00  0.00     0.084 C 
ENDROOT
BRANCH   4  10
HETATM   10  C   UNL     1       5.411  33.566  60.007  1.00  0.00     0.156 C 
BRANCH  10  11
HETATM   11  C   UNL     1       4.349  34.579  60.399  1.00  0.00     0.223 C 
HETATM   12  N   UNL     1       3.734  34.287  61.590  1.00  0.00    -0.359 N 
HETATM   13  H   UNL     1       3.985  33.413  62.049  1.00  0.00     0.162 HD
HETATM   14  O   UNL     1       4.065  35.555  59.714  1.00  0.00    -0.273 OA
BRANCH  12  15
HETATM   15  C   UNL     1       2.830  35.127  62.382  1.00  0.00     0.150 C 
BRANCH  15  16
HETATM   16  C   UNL     1       3.380  36.305  63.212  1.00  0.00     0.254 C 
BRANCH  16  17
HETATM   17  N   UNL     1       3.984  35.880  64.527  1.00  0.00    -0.070 N 
HETATM   18  H   UNL     1       3.881  36.706  65.145  1.00  0.00     0.279 HD
HETATM   19  C   UNL     1       5.476  35.591  64.432  1.00  0.00     0.235 C 
HETATM   20  C   UNL     1       5.607  34.125  64.797  1.00  0.00     0.029 C 
HETATM   21  C   UNL     1       4.499  33.925  65.810  1.00  0.00     0.029 C 
HETATM   22  C   UNL     1       3.342  34.679  65.188  1.00  0.00     0.235 C 
ENDBRANCH  16  17
ENDBRANCH  15  16
ENDBRANCH  12  15
ENDBRANCH  10  11
ENDBRANCH   4  10
BRANCH   2  23
HETATM   23  C   UNL     1       8.178  31.705  59.191  1.00  0.00     0.037 C 
HETATM   24  C   UNL     1       9.294  30.447  59.952  1.00  0.00    -0.009 C 
HETATM   25  C   UNL     1       9.244  30.327  61.712  1.00  0.00    -0.003 C 
HETATM   26  C   UNL     1       8.214  31.429  62.677  1.00  0.00    -0.001 C 
HETATM   27  C   UNL     1       7.271  32.768  61.920  1.00  0.00    -0.003 C 
HETATM   28  C   UNL     1       7.306  33.009  60.169  1.00  0.00    -0.009 C 
ENDBRANCH   2  23
BRANCH   1  29
HETATM   29  C   UNL     1       9.852  31.122  58.193  1.00  0.00     0.293 C 
HETATM   30  O   UNL     1      10.149  32.291  58.583  1.00  0.00    -0.259 OA
BRANCH  29  31
HETATM   31  O   UNL     1      11.086  30.490  57.792  1.00  0.00    -0.318 OA
BRANCH  31  32
HETATM   32  C   UNL     1      11.077  29.361  56.890  1.00  0.00     0.174 C 
HETATM   33  C   UNL     1      10.266  29.695  55.653  1.00  0.00     0.034 C 
ENDBRANCH  31  32
ENDBRANCH  29  31
ENDBRANCH   1  29
BRANCH   9  34
HETATM   34  C   UNL     1       7.281  28.012  56.795  1.00  0.00    -0.006 A 
HETATM   35  C   UNL     1       7.746  26.837  57.406  1.00  0.00     0.014 A 
HETATM   36  C   UNL     1       7.947  25.681  56.649  1.00  0.00     0.001 A 
HETATM   37  C   UNL     1       7.659  25.678  55.285  1.00  0.00     0.000 A 
HETATM   38  C   UNL     1       7.159  26.826  54.675  1.00  0.00     0.001 A 
HETATM   39  C   UNL     1       6.957  27.985  55.427  1.00  0.00     0.014 A 
ENDBRANCH   9  34
TORSDOF 10
ENDMDL
MODEL 3
REMARK VINA RESULT:      -9.1      4.299     10.171
REMARK  10 active torsions:
REMARK  status: ('A' for Active; 'I' for Inactive)
REMARK    1  A    between atoms: C_2  and  O_3 
REMARK    2  A    between atoms: O_3  and  C_4 
REMARK    3  A    between atoms: C_4  and  C_5 
REMARK    4  A    between atoms: C_6  and  C_7 
REMARK    5  A    between atoms: C_14  and  C_15 
REMARK    6  A    between atoms: C_15  and  C_16 
REMARK       I    between atoms: C_16  and  N_17 
REMARK    7  A    between atoms: N_17  and  C_18 
REMARK    8  A    between atoms: C_18  and  C_19 
REMARK    9  A    between atoms: C_19  and  N_20 
REMARK   10  A    between atoms: C_31  and  C_32 
ROOT
HETATM    1  C   UNL     1       6.111  31.266  58.401  1.00  0.00     0.071 C 
HETATM    2  C   UNL     1       5.579  32.380  59.337  1.00  0.00     0.150 C 
HETATM    3  N   UNL     1       5.665  32.154  60.752  1.00  0.00    -0.321 N 
HETATM    4  C   UNL     1       4.989  32.447  61.814  1.00  0.00     0.011 C 
HETATM    5  C   UNL     1       7.113  31.828  61.042  1.00  0.00     0.170 C 
HETATM    6  S   UNL     1       7.499  32.017  62.714  1.00  0.00    -0.086 SA
HETATM    7  C   UNL     1       5.732  32.226  63.115  1.00  0.00     0.135 C 
HETATM    8  N   UNL     1       7.943  31.544  60.113  1.00  0.00    -0.223 NA
HETATM    9  C   UNL     1       7.488  31.165  58.834  1.00  0.00     0.084 C 
ENDROOT
BRANCH   4  10
HETATM   10  C   UNL     1       3.655  33.131  61.731  1.00  0.00     0.156 C 
BRANCH  10  11
HETATM   11  C   UNL     1       3.279  34.017  62.907  1.00  0.00     0.223 C 
HETATM   12  N   UNL     1       3.954  35.211  62.924  1.00  0.00    -0.359 N 
HETATM   13  H   UNL     1       4.670  35.359  62.216  1.00  0.00     0.162 HD
HETATM   14  O   UNL     1       2.460  33.691  63.759  1.00  0.00    -0.273 OA
BRANCH  12  15
HETATM   15  C   UNL     1       3.707  36.388  63.764  1.00  0.00     0.150 C 
BRANCH  15  16
HETATM   16  C   UNL     1       4.815  36.946  64.678  1.00  0.00     0.254 C 
BRANCH  16  17
HETATM   17  N   UNL     1       4.946  36.202  65.983  1.00  0.00    -0.070 N 
HETATM   18  H   UNL     1       5.427  36.865  66.620  1.00  0.00     0.279 HD
HETATM   19  C   UNL     1       5.837  34.971  65.882  1.00  0.00     0.235 C 
HETATM   20  C   UNL     1       4.924  33.807  66.216  1.00  0.00     0.029 C 
HETATM   21  C   UNL     1       3.965  34.404  67.224  1.00  0.00     0.029 C 
HETATM   22  C   UNL     1       3.646  35.755  66.618  1.00  0.00     0.235 C 
ENDBRANCH  16  17
ENDBRANCH  15  16
ENDBRANCH  12  15
ENDBRANCH  10  11
ENDBRANCH   4  10
BRANCH   2  23
HETATM   23  C   UNL     1       4.441  31.913  58.619  1.00  0.00     0.037 C 
HETATM   24  C   UNL     1       4.937  32.491  56.938  1.00  0.00    -0.009 C 
HETATM   25  C   UNL     1       4.618  34.188  56.573  1.00  0.00    -0.003 C 
HETATM   26  C   UNL     1       3.790  35.240  57.761  1.00  0.00    -0.001 C 
HETATM   27  C   UNL     1       3.154  34.604  59.326  1.00  0.00    -0.003 C 
HETATM   28  C   UNL     1       3.370  32.904  59.754  1.00  0.00    -0.009 C 
ENDBRANCH   2  23
BRANCH   1  29
HETATM   29  C   UNL     1       4.575  30.607  57.065  1.00  0.00     0.293 C 
HETATM   30  O   UNL     1       3.336  30.523  57.323  1.00  0.00    -0.259 OA
BRANCH  29  31
HETATM   31  O   UNL     1       4.744  30.194  55.693  1.00  0.00    -0.318 OA
BRANCH  31  32
HETATM   32  C   UNL     1       4.840  28.793  55.351  1.00  0.00     0.174 C 
HETATM   33  C   UNL     1       6.141  28.527  54.620  1.00  0.00     0.034 C 
ENDBRANCH  31  32
ENDBRANCH  29  31
ENDBRANCH   1  29
BRANCH   9  34
HETATM   34  C   UNL     1       8.690  30.515  58.201  1.00  0.00    -0.006 A 
HETATM   35  C   UNL     1       8.551  29.318  57.482  1.00  0.00     0.014 A 
HETATM   36  C   UNL     1       9.654  28.741  56.852  1.00  0.00     0.001 A 
HETATM   37  C   UNL     1      10.899  29.366  56.908  1.00  0.00     0.000 A 
HETATM   38  C   UNL     1      11.043  30.575  57.584  1.00  0.00     0.001 A 
HETATM   39  C   UNL     1       9.942  31.156  58.218  1.00  0.00     0.014 A 
ENDBRANCH   9  34
TORSDOF 10
ENDMDL
MODEL 4
REMARK VINA RESULT:      -9.0      4.298      7.232
REMARK  10 active torsions:
REMARK  status: ('A' for Active; 'I' for Inactive)
REMARK    1  A    between atoms: C_2  and  O_3 
REMARK    2  A    between atoms: O_3  and  C_4 
REMARK    3  A    between atoms: C_4  and  C_5 
REMARK    4  A    between atoms: C_6  and  C_7 
REMARK    5  A    between atoms: C_14  and  C_15 
REMARK    6  A    between atoms: C_15  and  C_16 
REMARK       I    between atoms: C_16  and  N_17 
REMARK    7  A    between atoms: N_17  and  C_18 
REMARK    8  A    between atoms: C_18  and  C_19 
REMARK    9  A    between atoms: C_19  and  N_20 
REMARK   10  A    between atoms: C_31  and  C_32 
ROOT
HETATM    1  C   UNL     1       5.351  35.686  63.622  1.00  0.00     0.071 C 
HETATM    2  C   UNL     1       5.457  34.727  62.410  1.00  0.00     0.150 C 
HETATM    3  N   UNL     1       4.552  34.940  61.316  1.00  0.00    -0.321 N 
HETATM    4  C   UNL     1       3.925  34.230  60.436  1.00  0.00     0.011 C 
HETATM    5  C   UNL     1       4.721  36.384  60.900  1.00  0.00     0.170 C 
HETATM    6  S   UNL     1       4.102  36.681  59.316  1.00  0.00    -0.086 SA
HETATM    7  C   UNL     1       3.345  35.023  59.284  1.00  0.00     0.135 C 
HETATM    8  N   UNL     1       5.343  37.230  61.628  1.00  0.00    -0.223 NA
HETATM    9  C   UNL     1       5.581  36.968  62.992  1.00  0.00     0.084 C 
ENDROOT
BRANCH   4  10
HETATM   10  C   UNL     1       3.953  32.729  60.475  1.00  0.00     0.156 C 
BRANCH  10  11
HETATM   11  C   UNL     1       4.102  32.024  59.137  1.00  0.00     0.223 C 
HETATM   12  N   UNL     1       5.393  32.009  58.673  1.00  0.00    -0.359 N 
HETATM   13  H   UNL     1       6.094  32.515  59.211  1.00  0.00     0.162 HD
HETATM   14  O   UNL     1       3.160  31.527  58.530  1.00  0.00    -0.273 OA
BRANCH  12  15
HETATM   15  C   UNL     1       5.950  31.251  57.548  1.00  0.00     0.150 C 
BRANCH  15  16
HETATM   16  C   UNL     1       6.155  29.727  57.653  1.00  0.00     0.254 C 
BRANCH  16  17
HETATM   17  N   UNL     1       7.588  29.333  57.908  1.00  0.00    -0.070 N 
HETATM   18  H   UNL     1       7.548  28.324  58.145  1.00  0.00     0.279 HD
HETATM   19  C   UNL     1       8.195  30.038  59.114  1.00  0.00     0.235 C 
HETATM   20  C   UNL     1       9.345  30.848  58.546  1.00  0.00     0.029 C 
HETATM   21  C   UNL     1       9.834  29.990  57.399  1.00  0.00     0.029 C 
HETATM   22  C   UNL     1       8.542  29.536  56.750  1.00  0.00     0.235 C 
ENDBRANCH  16  17
ENDBRANCH  15  16
ENDBRANCH  12  15
ENDBRANCH  10  11
ENDBRANCH   4  10
BRANCH   2  23
HETATM   23  C   UNL     1       5.056  33.910  63.505  1.00  0.00     0.037 C 
HETATM   24  C   UNL     1       6.557  34.124  64.556  1.00  0.00    -0.009 C 
HETATM   25  C   UNL     1       7.941  33.107  64.152  1.00  0.00    -0.003 C 
HETATM   26  C   UNL     1       7.834  31.894  62.839  1.00  0.00    -0.001 C 
HETATM   27  C   UNL     1       6.298  31.580  61.947  1.00  0.00    -0.003 C 
HETATM   28  C   UNL     1       4.839  32.505  62.322  1.00  0.00    -0.009 C 
ENDBRANCH   2  23
BRANCH   1  29
HETATM   29  C   UNL     1       4.987  34.586  65.422  1.00  0.00     0.293 C 
HETATM   30  O   UNL     1       4.183  33.616  65.563  1.00  0.00    -0.259 OA
BRANCH  29  31
HETATM   31  O   UNL     1       5.623  34.790  66.701  1.00  0.00    -0.318 OA
BRANCH  31  32
HETATM   32  C   UNL     1       5.047  34.241  67.907  1.00  0.00     0.174 C 
HETATM   33  C   UNL     1       5.990  34.456  69.074  1.00  0.00     0.034 C 
ENDBRANCH  31  32
ENDBRANCH  29  31
ENDBRANCH   1  29
BRANCH   9  34
HETATM   34  C   UNL     1       5.917  38.319  63.567  1.00  0.00    -0.006 A 
HETATM   35  C   UNL     1       5.624  38.609  64.908  1.00  0.00     0.014 A 
HETATM   36  C   UNL     1       5.980  39.842  65.458  1.00  0.00     0.001 A 
HETATM   37  C   UNL     1       6.656  40.784  64.683  1.00  0.00     0.000 A 
HETATM   38  C   UNL     1       6.988  40.493  63.362  1.00  0.00     0.001 A 
HETATM   39  C   UNL     1       6.633  39.262  62.808  1.00  0.00     0.014 A 
ENDBRANCH   9  34
TORSDOF 10
ENDMDL
MODEL 5
REMARK VINA RESULT:      -8.9      1.006      1.735
REMARK  10 active torsions:
REMARK  status: ('A' for Active; 'I' for Inactive)
REMARK    1  A    between atoms: C_2  and  O_3 
REMARK    2  A    between atoms: O_3  and  C_4 
REMARK    3  A    between atoms: C_4  and  C_5 
REMARK    4  A    between atoms: C_6  and  C_7 
REMARK    5  A    between atoms: C_14  and  C_15 
REMARK    6  A    between atoms: C_15  and  C_16 
REMARK       I    between atoms: C_16  and  N_17 
REMARK    7  A    between atoms: N_17  and  C_18 
REMARK    8  A    between atoms: C_18  and  C_19 
REMARK    9  A    between atoms: C_19  and  N_20 
REMARK   10  A    between atoms: C_31  and  C_32 
ROOT
HETATM    1  C   UNL     1       6.730  31.532  59.004  1.00  0.00     0.071 C 
HETATM    2  C   UNL     1       7.090  30.537  57.872  1.00  0.00     0.150 C 
HETATM    3  N   UNL     1       6.048  29.673  57.393  1.00  0.00    -0.321 N 
HETATM    4  C   UNL     1       5.934  28.473  56.928  1.00  0.00     0.011 C 
HETATM    5  C   UNL     1       4.899  30.573  56.998  1.00  0.00     0.170 C 
HETATM    6  S   UNL     1       3.778  29.777  55.955  1.00  0.00    -0.086 SA
HETATM    7  C   UNL     1       4.609  28.181  56.254  1.00  0.00     0.135 C 
HETATM    8  N   UNL     1       4.854  31.804  57.340  1.00  0.00    -0.223 NA
HETATM    9  C   UNL     1       5.663  32.289  58.388  1.00  0.00     0.084 C 
ENDROOT
BRANCH   4  10
HETATM   10  C   UNL     1       7.102  27.530  56.896  1.00  0.00     0.156 C 
BRANCH  10  11
HETATM   11  C   UNL     1       6.772  26.056  56.732  1.00  0.00     0.223 C 
HETATM   12  N   UNL     1       7.464  25.456  55.711  1.00  0.00    -0.359 N 
HETATM   13  H   UNL     1       8.059  26.046  55.133  1.00  0.00     0.162 HD
HETATM   14  O   UNL     1       5.961  25.465  57.436  1.00  0.00    -0.273 OA
BRANCH  12  15
HETATM   15  C   UNL     1       7.570  24.028  55.394  1.00  0.00     0.150 C 
BRANCH  15  16
HETATM   16  C   UNL     1       8.211  23.563  54.072  1.00  0.00     0.254 C 
BRANCH  16  17
HETATM   17  N   UNL     1       7.381  23.890  52.856  1.00  0.00    -0.070 N 
HETATM   18  H   UNL     1       7.521  23.087  52.215  1.00  0.00     0.279 HD
HETATM   19  C   UNL     1       7.870  25.128  52.115  1.00  0.00     0.235 C 
HETATM   20  C   UNL     1       6.713  26.105  52.195  1.00  0.00     0.029 C 
HETATM   21  C   UNL     1       5.499  25.201  52.167  1.00  0.00     0.029 C 
HETATM   22  C   UNL     1       5.899  24.079  53.103  1.00  0.00     0.235 C 
ENDBRANCH  16  17
ENDBRANCH  15  16
ENDBRANCH  12  15
ENDBRANCH  10  11
ENDBRANCH   4  10
BRANCH   2  23
HETATM   23  C   UNL     1       7.875  30.138  58.992  1.00  0.00     0.037 C 
HETATM   24  C   UNL     1       9.048  31.561  59.011  1.00  0.00    -0.009 C 
HETATM   25  C   UNL     1      10.401  31.470  57.881  1.00  0.00    -0.003 C 
HETATM   26  C   UNL     1      10.632  30.028  56.844  1.00  0.00    -0.001 C 
HETATM   27  C   UNL     1       9.573  28.573  56.975  1.00  0.00    -0.003 C 
HETATM   28  C   UNL     1       8.229  28.545  58.122  1.00  0.00    -0.009 C 
ENDBRANCH   2  23
BRANCH   1  29
HETATM   29  C   UNL     1       7.997  31.231  60.703  1.00  0.00     0.293 C 
HETATM   30  O   UNL     1       8.508  30.133  61.077  1.00  0.00    -0.259 OA
BRANCH  29  31
HETATM   31  O   UNL     1       8.452  32.240  61.629  1.00  0.00    -0.318 OA
BRANCH  31  32
HETATM   32  C   UNL     1       7.508  32.975  62.440  1.00  0.00     0.174 C 
HETATM   33  C   UNL     1       7.843  32.800  63.908  1.00  0.00     0.034 C 
ENDBRANCH  31  32
ENDBRANCH  29  31
ENDBRANCH   1  29
BRANCH   9  34
HETATM   34  C   UNL     1       5.023  33.602  58.760  1.00  0.00    -0.006 A 
HETATM   35  C   UNL     1       4.610  34.494  57.759  1.00  0.00     0.014 A 
HETATM   36  C   UNL     1       3.971  35.689  58.099  1.00  0.00     0.001 A 
HETATM   37  C   UNL     1       3.714  35.989  59.436  1.00  0.00     0.000 A 
HETATM   38  C   UNL     1       4.083  35.093  60.436  1.00  0.00     0.001 A 
HETATM   39  C   UNL     1       4.724  33.898  60.101  1.00  0.00     0.014 A 
ENDBRANCH   9  34
TORSDOF 10
ENDMDL
MODEL 6
REMARK VINA RESULT:      -8.9      5.089      9.297
REMARK  10 active torsions:
REMARK  status: ('A' for Active; 'I' for Inactive)
REMARK    1  A    between atoms: C_2  and  O_3 
REMARK    2  A    between atoms: O_3  and  C_4 
REMARK    3  A    between atoms: C_4  and  C_5 
REMARK    4  A    between atoms: C_6  and  C_7 
REMARK    5  A    between atoms: C_14  and  C_15 
REMARK    6  A    between atoms: C_15  and  C_16 
REMARK       I    between atoms: C_16  and  N_17 
REMARK    7  A    between atoms: N_17  and  C_18 
REMARK    8  A    between atoms: C_18  and  C_19 
REMARK    9  A    between atoms: C_19  and  N_20 
REMARK   10  A    between atoms: C_31  and  C_32 
ROOT
HETATM    1  C   UNL     1       6.806  26.372  54.387  1.00  0.00     0.071 C 
HETATM    2  C   UNL     1       5.652  27.246  53.835  1.00  0.00     0.150 C 
HETATM    3  N   UNL     1       5.568  27.411  52.411  1.00  0.00    -0.321 N 
HETATM    4  C   UNL     1       5.206  28.322  51.570  1.00  0.00     0.011 C 
HETATM    5  C   UNL     1       5.542  26.017  51.824  1.00  0.00     0.170 C 
HETATM    6  S   UNL     1       4.949  26.006  50.202  1.00  0.00    -0.086 SA
HETATM    7  C   UNL     1       5.012  27.828  50.151  1.00  0.00     0.135 C 
HETATM    8  N   UNL     1       5.839  24.985  52.515  1.00  0.00    -0.223 NA
HETATM    9  C   UNL     1       6.548  25.110  53.727  1.00  0.00     0.084 C 
ENDROOT
BRANCH   4  10
HETATM   10  C   UNL     1       4.825  29.702  52.023  1.00  0.00     0.156 C 
BRANCH  10  11
HETATM   11  C   UNL     1       4.107  30.571  51.005  1.00  0.00     0.223 C 
HETATM   12  N   UNL     1       2.752  30.363  50.973  1.00  0.00    -0.359 N 
HETATM   13  H   UNL     1       2.374  29.623  51.562  1.00  0.00     0.162 HD
HETATM   14  O   UNL     1       4.685  31.371  50.277  1.00  0.00    -0.273 OA
BRANCH  12  15
HETATM   15  C   UNL     1       1.722  31.151  50.288  1.00  0.00     0.150 C 
BRANCH  15  16
HETATM   16  C   UNL     1       0.933  30.551  49.107  1.00  0.00     0.254 C 
BRANCH  16  17
HETATM   17  N   UNL     1       1.680  29.462  48.379  1.00  0.00    -0.070 N 
HETATM   18  H   UNL     1       2.682  29.690  48.515  1.00  0.00     0.279 HD
HETATM   19  C   UNL     1       1.431  29.471  46.876  1.00  0.00     0.235 C 
HETATM   20  C   UNL     1       0.780  28.132  46.587  1.00  0.00     0.029 C 
HETATM   21  C   UNL     1       1.425  27.212  47.600  1.00  0.00     0.029 C 
HETATM   22  C   UNL     1       1.419  28.051  48.862  1.00  0.00     0.235 C 
ENDBRANCH  16  17
ENDBRANCH  15  16
ENDBRANCH  12  15
ENDBRANCH  10  11
ENDBRANCH   4  10
BRANCH   2  23
HETATM   23  C   UNL     1       6.466  28.131  54.598  1.00  0.00     0.037 C 
HETATM   24  C   UNL     1       6.127  27.424  56.269  1.00  0.00    -0.009 C 
HETATM   25  C   UNL     1       4.629  27.944  57.044  1.00  0.00    -0.003 C 
HETATM   26  C   UNL     1       3.561  29.148  56.259  1.00  0.00    -0.001 C 
HETATM   27  C   UNL     1       4.006  29.958  54.709  1.00  0.00    -0.003 C 
HETATM   28  C   UNL     1       5.517  29.550  53.887  1.00  0.00    -0.009 C 
ENDBRANCH   2  23
BRANCH   1  29
HETATM   29  C   UNL     1       8.006  27.490  55.763  1.00  0.00     0.293 C 
HETATM   30  O   UNL     1       8.333  27.137  56.936  1.00  0.00    -0.259 OA
BRANCH  29  31
HETATM   31  O   UNL     1       8.615  28.776  55.528  1.00  0.00    -0.318 OA
BRANCH  31  32
HETATM   32  C   UNL     1       9.137  29.556  56.626  1.00  0.00     0.174 C 
HETATM   33  C   UNL     1      10.639  29.710  56.483  1.00  0.00     0.034 C 
ENDBRANCH  31  32
ENDBRANCH  29  31
ENDBRANCH   1  29
BRANCH   9  34
HETATM   34  C   UNL     1       7.065  23.720  53.989  1.00  0.00    -0.006 A 
HETATM   35  C   UNL     1       7.541  22.932  52.930  1.00  0.00     0.014 A 
HETATM   36  C   UNL     1       8.067  21.662  53.177  1.00  0.00     0.001 A 
HETATM   37  C   UNL     1       8.150  21.180  54.483  1.00  0.00     0.000 A 
HETATM   38  C   UNL     1       7.718  21.969  55.547  1.00  0.00     0.001 A 
HETATM   39  C   UNL     1       7.189  23.239  55.305  1.00  0.00     0.014 A 
ENDBRANCH   9  34
TORSDOF 10
ENDMDL
MODEL 7
REMARK VINA RESULT:      -8.8      4.490     11.098
REMARK  10 active torsions:
REMARK  status: ('A' for Active; 'I' for Inactive)
REMARK    1  A    between atoms: C_2  and  O_3 
REMARK    2  A    between atoms: O_3  and  C_4 
REMARK    3  A    between atoms: C_4  and  C_5 
REMARK    4  A    between atoms: C_6  and  C_7 
REMARK    5  A    between atoms: C_14  and  C_15 
REMARK    6  A    between atoms: C_15  and  C_16 
REMARK       I    between atoms: C_16  and  N_17 
REMARK    7  A    between atoms: N_17  and  C_18 
REMARK    8  A    between atoms: C_18  and  C_19 
REMARK    9  A    between atoms: C_19  and  N_20 
REMARK   10  A    between atoms: C_31  and  C_32 
ROOT
HETATM    1  C   UNL     1       6.117  31.639  58.939  1.00  0.00     0.071 C 
HETATM    2  C   UNL     1       5.787  32.795  59.917  1.00  0.00     0.150 C 
HETATM    3  N   UNL     1       6.018  32.566  61.315  1.00  0.00    -0.321 N 
HETATM    4  C   UNL     1       5.495  32.915  62.444  1.00  0.00     0.011 C 
HETATM    5  C   UNL     1       7.458  32.123  61.441  1.00  0.00     0.170 C 
HETATM    6  S   UNL     1       8.049  32.284  63.055  1.00  0.00    -0.086 SA
HETATM    7  C   UNL     1       6.363  32.637  63.654  1.00  0.00     0.135 C 
HETATM    8  N   UNL     1       8.150  31.771  60.426  1.00  0.00    -0.223 NA
HETATM    9  C   UNL     1       7.521  31.427  59.212  1.00  0.00     0.084 C 
ENDROOT
BRANCH   4  10
HETATM   10  C   UNL     1       4.220  33.705  62.507  1.00  0.00     0.156 C 
BRANCH  10  11
HETATM   11  C   UNL     1       4.108  34.714  63.638  1.00  0.00     0.223 C 
HETATM   12  N   UNL     1       4.997  35.753  63.527  1.00  0.00    -0.359 N 
HETATM   13  H   UNL     1       5.673  35.717  62.767  1.00  0.00     0.162 HD
HETATM   14  O   UNL     1       3.310  34.604  64.562  1.00  0.00    -0.273 OA
BRANCH  12  15
HETATM   15  C   UNL     1       5.042  37.002  64.294  1.00  0.00     0.150 C 
BRANCH  15  16
HETATM   16  C   UNL     1       5.445  38.325  63.615  1.00  0.00     0.254 C 
BRANCH  16  17
HETATM   17  N   UNL     1       6.520  39.077  64.358  1.00  0.00    -0.070 N 
HETATM   18  H   UNL     1       7.140  38.342  64.745  1.00  0.00     0.279 HD
HETATM   19  C   UNL     1       5.983  39.863  65.548  1.00  0.00     0.235 C 
HETATM   20  C   UNL     1       6.294  41.311  65.224  1.00  0.00     0.029 C 
HETATM   21  C   UNL     1       7.591  41.217  64.449  1.00  0.00     0.029 C 
HETATM   22  C   UNL     1       7.343  40.040  63.529  1.00  0.00     0.235 C 
ENDBRANCH  16  17
ENDBRANCH  15  16
ENDBRANCH  12  15
ENDBRANCH  10  11
ENDBRANCH   4  10
BRANCH   2  23
HETATM   23  C   UNL     1       4.541  32.420  59.340  1.00  0.00     0.037 C 
HETATM   24  C   UNL     1       4.888  32.941  57.604  1.00  0.00    -0.009 C 
HETATM   25  C   UNL     1       4.672  34.656  57.248  1.00  0.00    -0.003 C 
HETATM   26  C   UNL     1       4.075  35.784  58.504  1.00  0.00    -0.001 C 
HETATM   27  C   UNL     1       3.570  35.216  60.141  1.00  0.00    -0.003 C 
HETATM   28  C   UNL     1       3.691  33.506  60.572  1.00  0.00    -0.009 C 
ENDBRANCH   2  23
BRANCH   1  29
HETATM   29  C   UNL     1       4.388  31.104  57.796  1.00  0.00     0.293 C 
HETATM   30  O   UNL     1       3.209  30.951  58.238  1.00  0.00    -0.259 OA
BRANCH  29  31
HETATM   31  O   UNL     1       4.334  30.869  56.373  1.00  0.00    -0.318 OA
BRANCH  31  32
HETATM   32  C   UNL     1       3.969  29.571  55.854  1.00  0.00     0.174 C 
HETATM   33  C   UNL     1       4.972  28.531  56.312  1.00  0.00     0.034 C 
ENDBRANCH  31  32
ENDBRANCH  29  31
ENDBRANCH   1  29
BRANCH   9  34
HETATM   34  C   UNL     1       8.587  30.681  58.452  1.00  0.00    -0.006 A 
HETATM   35  C   UNL     1       8.289  29.455  57.838  1.00  0.00     0.014 A 
HETATM   36  C   UNL     1       9.260  28.786  57.091  1.00  0.00     0.001 A 
HETATM   37  C   UNL     1      10.526  29.346  56.926  1.00  0.00     0.000 A 
HETATM   38  C   UNL     1      10.822  30.582  57.497  1.00  0.00     0.001 A 
HETATM   39  C   UNL     1       9.854  31.254  58.247  1.00  0.00     0.014 A 
ENDBRANCH   9  34
TORSDOF 10
ENDMDL
MODEL 8
REMARK VINA RESULT:      -8.7      5.303      9.838
REMARK  10 active torsions:
REMARK  status: ('A' for Active; 'I' for Inactive)
REMARK    1  A    between atoms: C_2  and  O_3 
REMARK    2  A    between atoms: O_3  and  C_4 
REMARK    3  A    between atoms: C_4  and  C_5 
REMARK    4  A    between atoms: C_6  and  C_7 
REMARK    5  A    between atoms: C_14  and  C_15 
REMARK    6  A    between atoms: C_15  and  C_16 
REMARK       I    between atoms: C_16  and  N_17 
REMARK    7  A    between atoms: N_17  and  C_18 
REMARK    8  A    between atoms: C_18  and  C_19 
REMARK    9  A    between atoms: C_19  and  N_20 
REMARK   10  A    between atoms: C_31  and  C_32 
ROOT
HETATM    1  C   UNL     1       6.862  26.448  54.461  1.00  0.00     0.071 C 
HETATM    2  C   UNL     1       5.681  27.306  53.942  1.00  0.00     0.150 C 
HETATM    3  N   UNL     1       5.583  27.510  52.525  1.00  0.00    -0.321 N 
HETATM    4  C   UNL     1       5.190  28.435  51.713  1.00  0.00     0.011 C 
HETATM    5  C   UNL     1       5.590  26.134  51.896  1.00  0.00     0.170 C 
HETATM    6  S   UNL     1       4.987  26.155  50.279  1.00  0.00    -0.086 SA
HETATM    7  C   UNL     1       5.000  27.979  50.281  1.00  0.00     0.135 C 
HETATM    8  N   UNL     1       5.921  25.090  52.555  1.00  0.00    -0.223 NA
HETATM    9  C   UNL     1       6.635  25.200  53.766  1.00  0.00     0.084 C 
ENDROOT
BRANCH   4  10
HETATM   10  C   UNL     1       4.774  29.790  52.210  1.00  0.00     0.156 C 
BRANCH  10  11
HETATM   11  C   UNL     1       4.535  30.851  51.150  1.00  0.00     0.223 C 
HETATM   12  N   UNL     1       5.660  31.575  50.844  1.00  0.00    -0.359 N 
HETATM   13  H   UNL     1       6.502  31.391  51.386  1.00  0.00     0.162 HD
HETATM   14  O   UNL     1       3.444  31.047  50.628  1.00  0.00    -0.273 OA
BRANCH  12  15
HETATM   15  C   UNL     1       5.867  32.519  49.741  1.00  0.00     0.150 C 
BRANCH  15  16
HETATM   16  C   UNL     1       6.009  34.029  50.016  1.00  0.00     0.254 C 
BRANCH  16  17
HETATM   17  N   UNL     1       6.362  34.831  48.789  1.00  0.00    -0.070 N 
HETATM   18  H   UNL     1       5.603  35.531  48.701  1.00  0.00     0.279 HD
HETATM   19  C   UNL     1       6.340  34.003  47.510  1.00  0.00     0.235 C 
HETATM   20  C   UNL     1       7.764  34.058  46.992  1.00  0.00     0.029 C 
HETATM   21  C   UNL     1       8.230  35.434  47.416  1.00  0.00     0.029 C 
HETATM   22  C   UNL     1       7.697  35.543  48.831  1.00  0.00     0.235 C 
ENDBRANCH  16  17
ENDBRANCH  15  16
ENDBRANCH  12  15
ENDBRANCH  10  11
ENDBRANCH   4  10
BRANCH   2  23
HETATM   23  C   UNL     1       6.475  28.189  54.727  1.00  0.00     0.037 C 
HETATM   24  C   UNL     1       6.139  27.446  56.382  1.00  0.00    -0.009 C 
HETATM   25  C   UNL     1       4.628  27.927  57.158  1.00  0.00    -0.003 C 
HETATM   26  C   UNL     1       3.545  29.127  56.388  1.00  0.00    -0.001 C 
HETATM   27  C   UNL     1       3.985  29.973  54.856  1.00  0.00    -0.003 C 
HETATM   28  C   UNL     1       5.507  29.605  54.036  1.00  0.00    -0.009 C 
ENDBRANCH   2  23
BRANCH   1  29
HETATM   29  C   UNL     1       8.041  27.557  55.862  1.00  0.00     0.293 C 
HETATM   30  O   UNL     1       8.363  27.191  57.032  1.00  0.00    -0.259 OA
BRANCH  29  31
HETATM   31  O   UNL     1       8.638  28.853  55.651  1.00  0.00    -0.318 OA
BRANCH  31  32
HETATM   32  C   UNL     1       9.229  29.581  56.751  1.00  0.00     0.174 C 
HETATM   33  C   UNL     1      10.733  29.644  56.579  1.00  0.00     0.034 C 
ENDBRANCH  31  32
ENDBRANCH  29  31
ENDBRANCH   1  29
BRANCH   9  34
HETATM   34  C   UNL     1       7.191  23.817  53.983  1.00  0.00    -0.006 A 
HETATM   35  C   UNL     1       7.235  23.268  55.274  1.00  0.00     0.014 A 
HETATM   36  C   UNL     1       7.703  21.967  55.472  1.00  0.00     0.001 A 
HETATM   37  C   UNL     1       8.104  21.194  54.383  1.00  0.00     0.000 A 
HETATM   38  C   UNL     1       8.028  21.714  53.093  1.00  0.00     0.001 A 
HETATM   39  C   UNL     1       7.562  23.015  52.890  1.00  0.00     0.014 A 
ENDBRANCH   9  34
TORSDOF 10
ENDMDL
MODEL 9
REMARK VINA RESULT:      -8.6      5.164      9.485
REMARK  10 active torsions:
REMARK  status: ('A' for Active; 'I' for Inactive)
REMARK    1  A    between atoms: C_2  and  O_3 
REMARK    2  A    between atoms: O_3  and  C_4 
REMARK    3  A    between atoms: C_4  and  C_5 
REMARK    4  A    between atoms: C_6  and  C_7 
REMARK    5  A    between atoms: C_14  and  C_15 
REMARK    6  A    between atoms: C_15  and  C_16 
REMARK       I    between atoms: C_16  and  N_17 
REMARK    7  A    between atoms: N_17  and  C_18 
REMARK    8  A    between atoms: C_18  and  C_19 
REMARK    9  A    between atoms: C_19  and  N_20 
REMARK   10  A    between atoms: C_31  and  C_32 
ROOT
HETATM    1  C   UNL     1       6.866  26.353  54.419  1.00  0.00     0.071 C 
HETATM    2  C   UNL     1       5.684  27.199  53.885  1.00  0.00     0.150 C 
HETATM    3  N   UNL     1       5.582  27.374  52.464  1.00  0.00    -0.321 N 
HETATM    4  C   UNL     1       5.186  28.282  51.634  1.00  0.00     0.011 C 
HETATM    5  C   UNL     1       5.589  25.986  51.864  1.00  0.00     0.170 C 
HETATM    6  S   UNL     1       4.982  25.973  50.248  1.00  0.00    -0.086 SA
HETATM    7  C   UNL     1       4.994  27.796  50.213  1.00  0.00     0.135 C 
HETATM    8  N   UNL     1       5.922  24.956  52.544  1.00  0.00    -0.223 NA
HETATM    9  C   UNL     1       6.638  25.091  53.750  1.00  0.00     0.084 C 
ENDROOT
BRANCH   4  10
HETATM   10  C   UNL     1       4.771  29.647  52.104  1.00  0.00     0.156 C 
BRANCH  10  11
HETATM   11  C   UNL     1       4.230  30.588  51.042  1.00  0.00     0.223 C 
HETATM   12  N   UNL     1       2.886  30.435  50.815  1.00  0.00    -0.359 N 
HETATM   13  H   UNL     1       2.406  29.684  51.308  1.00  0.00     0.162 HD
HETATM   14  O   UNL     1       4.928  31.397  50.441  1.00  0.00    -0.273 OA
BRANCH  12  15
HETATM   15  C   UNL     1       1.987  31.293  50.035  1.00  0.00     0.150 C 
BRANCH  15  16
HETATM   16  C   UNL     1       1.249  30.738  48.801  1.00  0.00     0.254 C 
BRANCH  16  17
HETATM   17  N   UNL     1       2.063  30.811  47.533  1.00  0.00    -0.070 N 
HETATM   18  H   UNL     1       1.364  30.921  46.775  1.00  0.00     0.279 HD
HETATM   19  C   UNL     1       2.825  29.526  47.239  1.00  0.00     0.235 C 
HETATM   20  C   UNL     1       4.286  29.931  47.268  1.00  0.00     0.029 C 
HETATM   21  C   UNL     1       4.258  31.350  46.742  1.00  0.00     0.029 C 
HETATM   22  C   UNL     1       3.063  31.945  47.459  1.00  0.00     0.235 C 
ENDBRANCH  16  17
ENDBRANCH  15  16
ENDBRANCH  12  15
ENDBRANCH  10  11
ENDBRANCH   4  10
BRANCH   2  23
HETATM   23  C   UNL     1       6.479  28.100  54.649  1.00  0.00     0.037 C 
HETATM   24  C   UNL     1       6.154  27.385  56.320  1.00  0.00    -0.009 C 
HETATM   25  C   UNL     1       4.646  27.874  57.095  1.00  0.00    -0.003 C 
HETATM   26  C   UNL     1       3.554  29.057  56.310  1.00  0.00    -0.001 C 
HETATM   27  C   UNL     1       3.983  29.877  54.761  1.00  0.00    -0.003 C 
HETATM   28  C   UNL     1       5.501  29.500  53.939  1.00  0.00    -0.009 C 
ENDBRANCH   2  23
BRANCH   1  29
HETATM   29  C   UNL     1       8.047  27.492  55.794  1.00  0.00     0.293 C 
HETATM   30  O   UNL     1       8.380  27.146  56.968  1.00  0.00    -0.259 OA
BRANCH  29  31
HETATM   31  O   UNL     1       8.634  28.789  55.559  1.00  0.00    -0.318 OA
BRANCH  31  32
HETATM   32  C   UNL     1       9.166  29.567  56.653  1.00  0.00     0.174 C 
HETATM   33  C   UNL     1      10.670  29.698  56.511  1.00  0.00     0.034 C 
ENDBRANCH  31  32
ENDBRANCH  29  31
ENDBRANCH   1  29
BRANCH   9  34
HETATM   34  C   UNL     1       7.196  23.714  53.995  1.00  0.00    -0.006 A 
HETATM   35  C   UNL     1       7.238  23.189  55.296  1.00  0.00     0.014 A 
HETATM   36  C   UNL     1       7.707  21.893  55.519  1.00  0.00     0.001 A 
HETATM   37  C   UNL     1       8.112  21.100  54.447  1.00  0.00     0.000 A 
HETATM   38  C   UNL     1       8.038  21.595  53.146  1.00  0.00     0.001 A 
HETATM   39  C   UNL     1       7.570  22.891  52.918  1.00  0.00     0.014 A 
ENDBRANCH   9  34
TORSDOF 10
ENDMDL
MODEL 10
REMARK VINA RESULT:      -8.5      4.395      7.193
REMARK  10 active torsions:
REMARK  status: ('A' for Active; 'I' for Inactive)
REMARK    1  A    between atoms: C_2  and  O_3 
REMARK    2  A    between atoms: O_3  and  C_4 
REMARK    3  A    between atoms: C_4  and  C_5 
REMARK    4  A    between atoms: C_6  and  C_7 
REMARK    5  A    between atoms: C_14  and  C_15 
REMARK    6  A    between atoms: C_15  and  C_16 
REMARK       I    between atoms: C_16  and  N_17 
REMARK    7  A    between atoms: N_17  and  C_18 
REMARK    8  A    between atoms: C_18  and  C_19 
REMARK    9  A    between atoms: C_19  and  N_20 
REMARK   10  A    between atoms: C_31  and  C_32 
ROOT
HETATM    1  C   UNL     1       5.230  35.751  63.669  1.00  0.00     0.071 C 
HETATM    2  C   UNL     1       5.413  34.788  62.469  1.00  0.00     0.150 C 
HETATM    3  N   UNL     1       4.520  34.939  61.356  1.00  0.00    -0.321 N 
HETATM    4  C   UNL     1       3.951  34.186  60.473  1.00  0.00     0.011 C 
HETATM    5  C   UNL     1       4.614  36.386  60.928  1.00  0.00     0.170 C 
HETATM    6  S   UNL     1       4.011  36.633  59.330  1.00  0.00    -0.086 SA
HETATM    7  C   UNL     1       3.349  34.934  59.301  1.00  0.00     0.135 C 
HETATM    8  N   UNL     1       5.173  37.273  61.659  1.00  0.00    -0.223 NA
HETATM    9  C   UNL     1       5.399  37.038  63.031  1.00  0.00     0.084 C 
ENDROOT
BRANCH   4  10
HETATM   10  C   UNL     1       4.064  32.690  60.528  1.00  0.00     0.156 C 
BRANCH  10  11
HETATM   11  C   UNL     1       4.103  31.968  59.192  1.00  0.00     0.223 C 
HETATM   12  N   UNL     1       5.338  31.998  58.596  1.00  0.00    -0.359 N 
HETATM   13  H   UNL     1       6.069  32.542  59.051  1.00  0.00     0.162 HD
HETATM   14  O   UNL     1       3.126  31.422  58.693  1.00  0.00    -0.273 OA
BRANCH  12  15
HETATM   15  C   UNL     1       5.808  31.244  57.429  1.00  0.00     0.150 C 
BRANCH  15  16
HETATM   16  C   UNL     1       5.147  31.441  56.050  1.00  0.00     0.254 C 
BRANCH  16  17
HETATM   17  N   UNL     1       4.179  30.343  55.688  1.00  0.00    -0.070 N 
HETATM   18  H   UNL     1       3.269  30.653  56.076  1.00  0.00     0.279 HD
HETATM   19  C   UNL     1       4.508  29.015  56.357  1.00  0.00     0.235 C 
HETATM   20  C   UNL     1       4.792  28.066  55.208  1.00  0.00     0.029 C 
HETATM   21  C   UNL     1       3.865  28.562  54.118  1.00  0.00     0.029 C 
HETATM   22  C   UNL     1       4.023  30.066  54.208  1.00  0.00     0.235 C 
ENDBRANCH  16  17
ENDBRANCH  15  16
ENDBRANCH  12  15
ENDBRANCH  10  11
ENDBRANCH   4  10
BRANCH   2  23
HETATM   23  C   UNL     1       5.038  33.960  63.565  1.00  0.00     0.037 C 
HETATM   24  C   UNL     1       6.531  34.224  64.617  1.00  0.00    -0.009 C 
HETATM   25  C   UNL     1       7.948  33.251  64.215  1.00  0.00    -0.003 C 
HETATM   26  C   UNL     1       7.880  32.033  62.904  1.00  0.00    -0.001 C 
HETATM   27  C   UNL     1       6.355  31.669  62.011  1.00  0.00    -0.003 C 
HETATM   28  C   UNL     1       4.867  32.547  62.385  1.00  0.00    -0.009 C 
ENDBRANCH   2  23
BRANCH   1  29
HETATM   29  C   UNL     1       4.894  34.650  65.474  1.00  0.00     0.293 C 
HETATM   30  O   UNL     1       4.128  33.649  65.615  1.00  0.00    -0.259 OA
BRANCH  29  31
HETATM   31  O   UNL     1       5.510  34.888  66.757  1.00  0.00    -0.318 OA
BRANCH  31  32
HETATM   32  C   UNL     1       4.986  34.269  67.952  1.00  0.00     0.174 C 
HETATM   33  C   UNL     1       6.040  34.273  69.041  1.00  0.00     0.034 C 
ENDBRANCH  31  32
ENDBRANCH  29  31
ENDBRANCH   1  29
BRANCH   9  34
HETATM   34  C   UNL     1       5.646  38.411  63.597  1.00  0.00    -0.006 A 
HETATM   35  C   UNL     1       5.676  38.608  64.986  1.00  0.00     0.014 A 
HETATM   36  C   UNL     1       5.955  39.870  65.514  1.00  0.00     0.001 A 
HETATM   37  C   UNL     1       6.236  40.938  64.664  1.00  0.00     0.000 A 
HETATM   38  C   UNL     1       6.250  40.747  63.284  1.00  0.00     0.001 A 
HETATM   39  C   UNL     1       5.969  39.487  62.751  1.00  0.00     0.014 A 
ENDBRANCH   9  34
TORSDOF 10
ENDMDL
