MODEL 1
REMARK VINA RESULT:      -8.7      0.000      0.000
REMARK  3 active torsions:
REMARK  status: ('A' for Active; 'I' for Inactive)
REMARK    1  A    between atoms: C_4  and  N_5 
REMARK       I    between atoms: N_5  and  C_6 
REMARK    2  A    between atoms: C_6  and  C_7 
REMARK    3  A    between atoms: C_7  and  C_8 
ROOT
HETATM    1  C   UNL     1       8.085  25.246  55.798  1.00  0.00     0.286 C 
HETATM    2  N   UNL     1       8.099  24.459  54.481  1.00  0.00    -0.056 N 
HETATM    3  H   UNL     1       7.394  24.861  53.842  1.00  0.00     0.278 HD
HETATM    4  H   UNL     1       9.014  24.590  54.028  1.00  0.00     0.278 HD
HETATM    5  C   UNL     1       7.805  22.985  54.607  1.00  0.00     0.209 C 
HETATM    6  C   UNL     1       8.675  22.367  55.716  1.00  0.00     0.115 C 
HETATM    7  N   UNL     1       8.541  23.084  56.971  1.00  0.00    -0.353 N 
HETATM    8  C   UNL     1       8.425  24.442  57.068  1.00  0.00     0.249 C 
HETATM    9  O   UNL     1       8.511  24.987  58.165  1.00  0.00    -0.271 OA
HETATM   10  C   UNL     1       8.058  22.291  53.272  1.00  0.00     0.035 C 
HETATM   11  C   UNL     1       7.740  20.800  53.389  1.00  0.00     0.002 C 
HETATM   12  C   UNL     1       8.476  20.135  54.555  1.00  0.00     0.002 C 
HETATM   13  C   UNL     1       8.302  20.890  55.873  1.00  0.00     0.027 C 
HETATM   14  H   UNL     1       8.820  22.626  57.837  1.00  0.00     0.163 HD
ENDROOT
BRANCH   1  15
HETATM   15  C   UNL     1       6.775  26.013  56.003  1.00  0.00     0.146 C 
BRANCH  15  16
HETATM   16  C   UNL     1       7.083  27.474  56.196  1.00  0.00     0.224 C 
HETATM   17  N   UNL     1       8.343  27.715  56.698  1.00  0.00    -0.327 N 
HETATM   18  H   UNL     1       9.027  26.961  56.662  1.00  0.00     0.169 HD
HETATM   19  O   UNL     1       6.163  28.276  56.054  1.00  0.00    -0.273 OA
BRANCH  17  20
HETATM   20  C   UNL     1       8.808  28.904  57.301  1.00  0.00     0.034 A 
HETATM   21  C   UNL     1       8.195  29.518  58.395  1.00  0.00     0.029 A 
HETATM   22  C   UNL     1       8.755  30.665  58.968  1.00  0.00     0.002 A 
HETATM   23  C   UNL     1       9.927  31.210  58.450  1.00  0.00     0.000 A 
HETATM   24  C   UNL     1      10.541  30.610  57.354  1.00  0.00     0.002 A 
HETATM   25  C   UNL     1       9.984  29.461  56.784  1.00  0.00     0.029 A 
ENDBRANCH  17  20
ENDBRANCH  15  16
ENDBRANCH   1  15
TORSDOF 3
ENDMDL
MODEL 2
REMARK VINA RESULT:      -8.6      5.124      8.157
REMARK  3 active torsions:
REMARK  status: ('A' for Active; 'I' for Inactive)
REMARK    1  A    between atoms: C_4  and  N_5 
REMARK       I    between atoms: N_5  and  C_6 
REMARK    2  A    between atoms: C_6  and  C_7 
REMARK    3  A    between atoms: C_7  and  C_8 
ROOT
HETATM    1  C   UNL     1       5.516  26.392  51.860  1.00  0.00     0.286 C 
HETATM    2  N   UNL     1       4.617  25.709  50.822  1.00  0.00    -0.056 N 
HETATM    3  H   UNL     1       4.950  24.743  50.672  1.00  0.00     0.278 HD
HETATM    4  H   UNL     1       3.666  25.635  51.206  1.00  0.00     0.278 HD
HETATM    5  C   UNL     1       4.564  26.381  49.472  1.00  0.00     0.209 C 
HETATM    6  C   UNL     1       4.293  27.886  49.644  1.00  0.00     0.115 C 
HETATM    7  N   UNL     1       5.240  28.506  50.553  1.00  0.00    -0.353 N 
HETATM    8  C   UNL     1       5.716  27.910  51.686  1.00  0.00     0.249 C 
HETATM    9  O   UNL     1       6.359  28.567  52.500  1.00  0.00    -0.271 OA
HETATM   10  C   UNL     1       3.483  25.732  48.613  1.00  0.00     0.035 C 
HETATM   11  C   UNL     1       3.441  26.397  47.236  1.00  0.00     0.002 C 
HETATM   12  C   UNL     1       3.297  27.918  47.325  1.00  0.00     0.002 C 
HETATM   13  C   UNL     1       4.320  28.556  48.267  1.00  0.00     0.027 C 
HETATM   14  H   UNL     1       5.360  29.517  50.532  1.00  0.00     0.163 HD
ENDROOT
BRANCH   1  15
HETATM   15  C   UNL     1       6.877  25.700  51.995  1.00  0.00     0.146 C 
BRANCH  15  16
HETATM   16  C   UNL     1       6.802  24.673  53.094  1.00  0.00     0.224 C 
HETATM   17  N   UNL     1       7.973  23.971  53.278  1.00  0.00    -0.327 N 
HETATM   18  H   UNL     1       8.827  24.344  52.869  1.00  0.00     0.169 HD
HETATM   19  O   UNL     1       5.702  24.447  53.592  1.00  0.00    -0.273 OA
BRANCH  17  20
HETATM   20  C   UNL     1       8.134  22.746  53.963  1.00  0.00     0.034 A 
HETATM   21  C   UNL     1       8.177  22.627  55.353  1.00  0.00     0.029 A 
HETATM   22  C   UNL     1       8.282  21.367  55.953  1.00  0.00     0.002 A 
HETATM   23  C   UNL     1       8.350  20.218  55.168  1.00  0.00     0.000 A 
HETATM   24  C   UNL     1       8.315  20.327  53.781  1.00  0.00     0.002 A 
HETATM   25  C   UNL     1       8.207  21.586  53.182  1.00  0.00     0.029 A 
ENDBRANCH  17  20
ENDBRANCH  15  16
ENDBRANCH   1  15
TORSDOF 3
ENDMDL
MODEL 3
REMARK VINA RESULT:      -8.5      3.165      4.926
REMARK  3 active torsions:
REMARK  status: ('A' for Active; 'I' for Inactive)
REMARK    1  A    between atoms: C_4  and  N_5 
REMARK       I    between atoms: N_5  and  C_6 
REMARK    2  A    between atoms: C_6  and  C_7 
REMARK    3  A    between atoms: C_7  and  C_8 
ROOT
HETATM    1  C   UNL     1       7.728  25.455  55.892  1.00  0.00     0.286 C 
HETATM    2  N   UNL     1       7.881  24.465  54.730  1.00  0.00    -0.056 N 
HETATM    3  H   UNL     1       7.186  24.693  54.001  1.00  0.00     0.278 HD
HETATM    4  H   UNL     1       8.808  24.596  54.304  1.00  0.00     0.278 HD
HETATM    5  C   UNL     1       7.694  23.012  55.092  1.00  0.00     0.209 C 
HETATM    6  C   UNL     1       8.542  22.664  56.328  1.00  0.00     0.115 C 
HETATM    7  N   UNL     1       8.279  23.565  57.435  1.00  0.00    -0.353 N 
HETATM    8  C   UNL     1       8.053  24.905  57.295  1.00  0.00     0.249 C 
HETATM    9  O   UNL     1       8.032  25.631  58.285  1.00  0.00    -0.271 OA
HETATM   10  C   UNL     1       8.078  22.130  53.908  1.00  0.00     0.035 C 
HETATM   11  C   UNL     1       7.869  20.657  54.263  1.00  0.00     0.002 C 
HETATM   12  C   UNL     1       8.584  20.261  55.557  1.00  0.00     0.002 C 
HETATM   13  C   UNL     1       8.275  21.207  56.719  1.00  0.00     0.027 C 
HETATM   14  H   UNL     1       8.540  23.283  58.379  1.00  0.00     0.163 HD
ENDROOT
BRANCH   1  15
HETATM   15  C   UNL     1       6.353  26.130  55.904  1.00  0.00     0.146 C 
BRANCH  15  16
HETATM   16  C   UNL     1       6.185  26.931  54.640  1.00  0.00     0.224 C 
HETATM   17  N   UNL     1       5.036  26.631  53.941  1.00  0.00    -0.327 N 
HETATM   18  H   UNL     1       4.301  26.116  54.423  1.00  0.00     0.169 HD
HETATM   19  O   UNL     1       7.128  27.628  54.274  1.00  0.00    -0.273 OA
BRANCH  17  20
HETATM   20  C   UNL     1       4.755  26.935  52.591  1.00  0.00     0.034 A 
HETATM   21  C   UNL     1       4.153  28.121  52.165  1.00  0.00     0.029 A 
HETATM   22  C   UNL     1       3.961  28.368  50.802  1.00  0.00     0.002 A 
HETATM   23  C   UNL     1       4.365  27.430  49.854  1.00  0.00     0.000 A 
HETATM   24  C   UNL     1       4.958  26.242  50.269  1.00  0.00     0.002 A 
HETATM   25  C   UNL     1       5.153  25.996  51.631  1.00  0.00     0.029 A 
ENDBRANCH  17  20
ENDBRANCH  15  16
ENDBRANCH   1  15
TORSDOF 3
ENDMDL
MODEL 4
REMARK VINA RESULT:      -8.4      2.711      6.670
REMARK  3 active torsions:
REMARK  status: ('A' for Active; 'I' for Inactive)
REMARK    1  A    between atoms: C_4  and  N_5 
REMARK       I    between atoms: N_5  and  C_6 
REMARK    2  A    between atoms: C_6  and  C_7 
REMARK    3  A    between atoms: C_7  and  C_8 
ROOT
HETATM    1  C   UNL     1       6.164  27.085  55.882  1.00  0.00     0.286 C 
HETATM    2  N   UNL     1       5.444  26.108  54.944  1.00  0.00    -0.056 N 
HETATM    3  H   UNL     1       5.737  25.144  55.173  1.00  0.00     0.278 HD
HETATM    4  H   UNL     1       4.433  26.158  55.129  1.00  0.00     0.278 HD
HETATM    5  C   UNL     1       5.699  26.319  53.473  1.00  0.00     0.209 C 
HETATM    6  C   UNL     1       5.496  27.801  53.110  1.00  0.00     0.115 C 
HETATM    7  N   UNL     1       6.284  28.678  53.957  1.00  0.00    -0.353 N 
HETATM    8  C   UNL     1       6.490  28.471  55.292  1.00  0.00     0.249 C 
HETATM    9  O   UNL     1       7.002  29.352  55.976  1.00  0.00    -0.271 OA
HETATM   10  C   UNL     1       4.769  25.430  52.653  1.00  0.00     0.035 C 
HETATM   11  C   UNL     1       5.039  25.625  51.161  1.00  0.00     0.002 C 
HETATM   12  C   UNL     1       4.978  27.096  50.743  1.00  0.00     0.002 C 
HETATM   13  C   UNL     1       5.835  28.001  51.630  1.00  0.00     0.027 C 
HETATM   14  H   UNL     1       6.470  29.630  53.649  1.00  0.00     0.163 HD
ENDROOT
BRANCH   1  15
HETATM   15  C   UNL     1       7.425  26.474  56.502  1.00  0.00     0.146 C 
BRANCH  15  16
HETATM   16  C   UNL     1       7.335  24.973  56.426  1.00  0.00     0.224 C 
HETATM   17  N   UNL     1       8.228  24.408  55.542  1.00  0.00    -0.327 N 
HETATM   18  H   UNL     1       9.009  24.975  55.218  1.00  0.00     0.169 HD
HETATM   19  O   UNL     1       6.402  24.425  57.007  1.00  0.00    -0.273 OA
BRANCH  17  20
HETATM   20  C   UNL     1       8.176  23.108  54.992  1.00  0.00     0.034 A 
HETATM   21  C   UNL     1       8.262  21.935  55.745  1.00  0.00     0.029 A 
HETATM   22  C   UNL     1       8.145  20.686  55.127  1.00  0.00     0.002 A 
HETATM   23  C   UNL     1       7.945  20.599  53.751  1.00  0.00     0.000 A 
HETATM   24  C   UNL     1       7.866  21.761  52.990  1.00  0.00     0.002 A 
HETATM   25  C   UNL     1       7.980  23.010  53.609  1.00  0.00     0.029 A 
ENDBRANCH  17  20
ENDBRANCH  15  16
ENDBRANCH   1  15
TORSDOF 3
ENDMDL
MODEL 5
REMARK VINA RESULT:      -8.3      1.640      2.924
REMARK  3 active torsions:
REMARK  status: ('A' for Active; 'I' for Inactive)
REMARK    1  A    between atoms: C_4  and  N_5 
REMARK       I    between atoms: N_5  and  C_6 
REMARK    2  A    between atoms: C_6  and  C_7 
REMARK    3  A    between atoms: C_7  and  C_8 
ROOT
HETATM    1  C   UNL     1       6.827  26.345  55.874  1.00  0.00     0.286 C 
HETATM    2  N   UNL     1       7.708  25.146  56.248  1.00  0.00    -0.056 N 
HETATM    3  H   UNL     1       8.570  25.490  56.701  1.00  0.00     0.278 HD
HETATM    4  H   UNL     1       7.213  24.579  56.950  1.00  0.00     0.278 HD
HETATM    5  C   UNL     1       8.125  24.268  55.095  1.00  0.00     0.209 C 
HETATM    6  C   UNL     1       6.899  23.902  54.240  1.00  0.00     0.115 C 
HETATM    7  N   UNL     1       6.161  25.081  53.821  1.00  0.00    -0.353 N 
HETATM    8  C   UNL     1       5.964  26.180  54.608  1.00  0.00     0.249 C 
HETATM    9  O   UNL     1       5.172  27.050  54.257  1.00  0.00    -0.271 OA
HETATM   10  C   UNL     1       8.809  23.010  55.623  1.00  0.00     0.035 C 
HETATM   11  C   UNL     1       9.253  22.127  54.456  1.00  0.00     0.002 C 
HETATM   12  C   UNL     1       8.109  21.820  53.486  1.00  0.00     0.002 C 
HETATM   13  C   UNL     1       7.361  23.076  53.036  1.00  0.00     0.027 C 
HETATM   14  H   UNL     1       5.520  25.012  53.033  1.00  0.00     0.163 HD
ENDROOT
BRANCH   1  15
HETATM   15  C   UNL     1       7.626  27.650  55.793  1.00  0.00     0.146 C 
BRANCH  15  16
HETATM   16  C   UNL     1       7.686  28.278  57.161  1.00  0.00     0.224 C 
HETATM   17  N   UNL     1       7.664  29.655  57.141  1.00  0.00    -0.327 N 
HETATM   18  H   UNL     1       7.365  30.119  56.285  1.00  0.00     0.169 HD
HETATM   19  O   UNL     1       7.911  27.542  58.118  1.00  0.00    -0.273 OA
BRANCH  17  20
HETATM   20  C   UNL     1       8.042  30.529  58.184  1.00  0.00     0.034 A 
HETATM   21  C   UNL     1       9.365  30.785  58.549  1.00  0.00     0.029 A 
HETATM   22  C   UNL     1       9.655  31.710  59.558  1.00  0.00     0.002 A 
HETATM   23  C   UNL     1       8.626  32.382  60.212  1.00  0.00     0.000 A 
HETATM   24  C   UNL     1       7.303  32.127  59.862  1.00  0.00     0.002 A 
HETATM   25  C   UNL     1       7.013  31.206  58.851  1.00  0.00     0.029 A 
ENDBRANCH  17  20
ENDBRANCH  15  16
ENDBRANCH   1  15
TORSDOF 3
ENDMDL
MODEL 6
REMARK VINA RESULT:      -8.3      1.478      7.947
REMARK  3 active torsions:
REMARK  status: ('A' for Active; 'I' for Inactive)
REMARK    1  A    between atoms: C_4  and  N_5 
REMARK       I    between atoms: N_5  and  C_6 
REMARK    2  A    between atoms: C_6  and  C_7 
REMARK    3  A    between atoms: C_7  and  C_8 
ROOT
HETATM    1  C   UNL     1       7.571  27.070  56.607  1.00  0.00     0.286 C 
HETATM    2  N   UNL     1       8.363  28.102  57.419  1.00  0.00    -0.056 N 
HETATM    3  H   UNL     1       8.922  27.610  58.134  1.00  0.00     0.278 HD
HETATM    4  H   UNL     1       9.033  28.570  56.794  1.00  0.00     0.278 HD
HETATM    5  C   UNL     1       7.531  29.138  58.133  1.00  0.00     0.209 C 
HETATM    6  C   UNL     1       6.510  29.755  57.160  1.00  0.00     0.115 C 
HETATM    7  N   UNL     1       5.711  28.739  56.499  1.00  0.00    -0.353 N 
HETATM    8  C   UNL     1       6.200  27.535  56.078  1.00  0.00     0.249 C 
HETATM    9  O   UNL     1       5.515  26.813  55.358  1.00  0.00    -0.271 OA
HETATM   10  C   UNL     1       8.438  30.216  58.719  1.00  0.00     0.035 C 
HETATM   11  C   UNL     1       7.599  31.257  59.462  1.00  0.00     0.002 C 
HETATM   12  C   UNL     1       6.476  31.831  58.594  1.00  0.00     0.002 C 
HETATM   13  C   UNL     1       5.630  30.746  57.927  1.00  0.00     0.027 C 
HETATM   14  H   UNL     1       4.828  29.005  56.066  1.00  0.00     0.163 HD
ENDROOT
BRANCH   1  15
HETATM   15  C   UNL     1       7.416  25.739  57.351  1.00  0.00     0.146 C 
BRANCH  15  16
HETATM   16  C   UNL     1       8.102  24.652  56.566  1.00  0.00     0.224 C 
HETATM   17  N   UNL     1       7.353  24.167  55.517  1.00  0.00    -0.327 N 
HETATM   18  H   UNL     1       6.553  24.714  55.203  1.00  0.00     0.169 HD
HETATM   19  O   UNL     1       9.152  24.198  57.015  1.00  0.00    -0.273 OA
BRANCH  17  20
HETATM   20  C   UNL     1       7.546  22.954  54.821  1.00  0.00     0.034 A 
HETATM   21  C   UNL     1       7.744  22.867  53.441  1.00  0.00     0.029 A 
HETATM   22  C   UNL     1       7.985  21.629  52.837  1.00  0.00     0.002 A 
HETATM   23  C   UNL     1       8.024  20.467  53.605  1.00  0.00     0.000 A 
HETATM   24  C   UNL     1       7.819  20.542  54.979  1.00  0.00     0.002 A 
HETATM   25  C   UNL     1       7.582  21.780  55.584  1.00  0.00     0.029 A 
ENDBRANCH  17  20
ENDBRANCH  15  16
ENDBRANCH   1  15
TORSDOF 3
ENDMDL
MODEL 7
REMARK VINA RESULT:      -8.3      5.869     11.002
REMARK  3 active torsions:
REMARK  status: ('A' for Active; 'I' for Inactive)
REMARK    1  A    between atoms: C_4  and  N_5 
REMARK       I    between atoms: N_5  and  C_6 
REMARK    2  A    between atoms: C_6  and  C_7 
REMARK    3  A    between atoms: C_7  and  C_8 
ROOT
HETATM    1  C   UNL     1       5.708  32.455  61.780  1.00  0.00     0.286 C 
HETATM    2  N   UNL     1       5.761  33.969  61.534  1.00  0.00    -0.056 N 
HETATM    3  H   UNL     1       6.614  34.192  60.995  1.00  0.00     0.278 HD
HETATM    4  H   UNL     1       4.963  34.236  60.944  1.00  0.00     0.278 HD
HETATM    5  C   UNL     1       5.778  34.823  62.777  1.00  0.00     0.209 C 
HETATM    6  C   UNL     1       4.656  34.383  63.734  1.00  0.00     0.115 C 
HETATM    7  N   UNL     1       4.717  32.961  64.020  1.00  0.00    -0.353 N 
HETATM    8  C   UNL     1       5.046  32.008  63.098  1.00  0.00     0.249 C 
HETATM    9  O   UNL     1       4.888  30.819  63.362  1.00  0.00    -0.271 OA
HETATM   10  C   UNL     1       5.618  36.292  62.397  1.00  0.00     0.035 C 
HETATM   11  C   UNL     1       5.655  37.165  63.653  1.00  0.00     0.002 C 
HETATM   12  C   UNL     1       4.648  36.710  64.711  1.00  0.00     0.002 C 
HETATM   13  C   UNL     1       4.744  35.215  65.017  1.00  0.00     0.027 C 
HETATM   14  H   UNL     1       4.236  32.598  64.841  1.00  0.00     0.163 HD
ENDROOT
BRANCH   1  15
HETATM   15  C   UNL     1       7.083  31.794  61.637  1.00  0.00     0.146 C 
BRANCH  15  16
HETATM   16  C   UNL     1       7.367  31.554  60.178  1.00  0.00     0.224 C 
HETATM   17  N   UNL     1       8.052  30.385  59.931  1.00  0.00    -0.327 N 
HETATM   18  H   UNL     1       8.089  29.683  60.668  1.00  0.00     0.169 HD
HETATM   19  O   UNL     1       7.122  32.464  59.390  1.00  0.00    -0.273 OA
BRANCH  17  20
HETATM   20  C   UNL     1       8.755  30.041  58.755  1.00  0.00     0.034 A 
HETATM   21  C   UNL     1       8.314  29.093  57.829  1.00  0.00     0.029 A 
HETATM   22  C   UNL     1       9.044  28.852  56.660  1.00  0.00     0.002 A 
HETATM   23  C   UNL     1      10.222  29.553  56.410  1.00  0.00     0.000 A 
HETATM   24  C   UNL     1      10.673  30.494  57.330  1.00  0.00     0.002 A 
HETATM   25  C   UNL     1       9.943  30.737  58.497  1.00  0.00     0.029 A 
ENDBRANCH  17  20
ENDBRANCH  15  16
ENDBRANCH   1  15
TORSDOF 3
ENDMDL
MODEL 8
REMARK VINA RESULT:      -8.3      4.596      6.365
REMARK  3 active torsions:
REMARK  status: ('A' for Active; 'I' for Inactive)
REMARK    1  A    between atoms: C_4  and  N_5 
REMARK       I    between atoms: N_5  and  C_6 
REMARK    2  A    between atoms: C_6  and  C_7 
REMARK    3  A    between atoms: C_7  and  C_8 
ROOT
HETATM    1  C   UNL     1       6.899  24.764  53.999  1.00  0.00     0.286 C 
HETATM    2  N   UNL     1       7.778  23.682  53.358  1.00  0.00    -0.056 N 
HETATM    3  H   UNL     1       7.498  23.562  52.371  1.00  0.00     0.278 HD
HETATM    4  H   UNL     1       8.753  24.010  53.350  1.00  0.00     0.278 HD
HETATM    5  C   UNL     1       7.709  22.325  54.013  1.00  0.00     0.209 C 
HETATM    6  C   UNL     1       7.894  22.464  55.535  1.00  0.00     0.115 C 
HETATM    7  N   UNL     1       6.965  23.421  56.107  1.00  0.00    -0.353 N 
HETATM    8  C   UNL     1       6.594  24.586  55.499  1.00  0.00     0.249 C 
HETATM    9  O   UNL     1       5.960  25.430  56.126  1.00  0.00    -0.271 OA
HETATM   10  C   UNL     1       8.776  21.409  53.421  1.00  0.00     0.035 C 
HETATM   11  C   UNL     1       8.696  20.026  54.068  1.00  0.00     0.002 C 
HETATM   12  C   UNL     1       8.749  20.090  55.596  1.00  0.00     0.002 C 
HETATM   13  C   UNL     1       7.745  21.084  56.182  1.00  0.00     0.027 C 
HETATM   14  H   UNL     1       6.780  23.396  57.109  1.00  0.00     0.163 HD
ENDROOT
BRANCH   1  15
HETATM   15  C   UNL     1       5.595  24.987  53.225  1.00  0.00     0.146 C 
BRANCH  15  16
HETATM   16  C   UNL     1       5.892  25.761  51.968  1.00  0.00     0.224 C 
HETATM   17  N   UNL     1       4.786  26.365  51.414  1.00  0.00    -0.327 N 
HETATM   18  H   UNL     1       3.950  26.461  51.989  1.00  0.00     0.169 HD
HETATM   19  O   UNL     1       7.014  25.649  51.479  1.00  0.00    -0.273 OA
BRANCH  17  20
HETATM   20  C   UNL     1       4.653  26.858  50.097  1.00  0.00     0.034 A 
HETATM   21  C   UNL     1       5.046  28.137  49.697  1.00  0.00     0.029 A 
HETATM   22  C   UNL     1       4.932  28.527  48.358  1.00  0.00     0.002 A 
HETATM   23  C   UNL     1       4.421  27.644  47.410  1.00  0.00     0.000 A 
HETATM   24  C   UNL     1       4.020  26.370  47.800  1.00  0.00     0.002 A 
HETATM   25  C   UNL     1       4.136  25.979  49.137  1.00  0.00     0.029 A 
ENDBRANCH  17  20
ENDBRANCH  15  16
ENDBRANCH   1  15
TORSDOF 3
ENDMDL
MODEL 9
REMARK VINA RESULT:      -8.2      2.799      6.880
REMARK  3 active torsions:
REMARK  status: ('A' for Active; 'I' for Inactive)
REMARK    1  A    between atoms: C_4  and  N_5 
REMARK       I    between atoms: N_5  and  C_6 
REMARK    2  A    between atoms: C_6  and  C_7 
REMARK    3  A    between atoms: C_7  and  C_8 
ROOT
HETATM    1  C   UNL     1       5.710  26.563  52.657  1.00  0.00     0.286 C 
HETATM    2  N   UNL     1       6.621  27.608  53.315  1.00  0.00    -0.056 N 
HETATM    3  H   UNL     1       7.428  27.787  52.696  1.00  0.00     0.278 HD
HETATM    4  H   UNL     1       6.106  28.495  53.389  1.00  0.00     0.278 HD
HETATM    5  C   UNL     1       7.167  27.227  54.668  1.00  0.00     0.209 C 
HETATM    6  C   UNL     1       6.027  26.729  55.575  1.00  0.00     0.115 C 
HETATM    7  N   UNL     1       5.263  25.665  54.949  1.00  0.00    -0.353 N 
HETATM    8  C   UNL     1       4.953  25.627  53.619  1.00  0.00     0.249 C 
HETATM    9  O   UNL     1       4.144  24.802  53.202  1.00  0.00    -0.271 OA
HETATM   10  C   UNL     1       7.874  28.424  55.297  1.00  0.00     0.035 C 
HETATM   11  C   UNL     1       8.447  28.036  56.661  1.00  0.00     0.002 C 
HETATM   12  C   UNL     1       7.395  27.414  57.582  1.00  0.00     0.002 C 
HETATM   13  C   UNL     1       6.619  26.278  56.914  1.00  0.00     0.027 C 
HETATM   14  H   UNL     1       4.686  25.060  55.529  1.00  0.00     0.163 HD
ENDROOT
BRANCH   1  15
HETATM   15  C   UNL     1       6.444  25.736  51.597  1.00  0.00     0.146 C 
BRANCH  15  16
HETATM   16  C   UNL     1       7.432  24.826  52.277  1.00  0.00     0.224 C 
HETATM   17  N   UNL     1       6.909  23.601  52.628  1.00  0.00    -0.327 N 
HETATM   18  H   UNL     1       6.029  23.314  52.202  1.00  0.00     0.169 HD
HETATM   19  O   UNL     1       8.521  25.299  52.595  1.00  0.00    -0.273 OA
BRANCH  17  20
HETATM   20  C   UNL     1       7.443  22.679  53.554  1.00  0.00     0.034 A 
HETATM   21  C   UNL     1       7.453  22.876  54.937  1.00  0.00     0.029 A 
HETATM   22  C   UNL     1       7.951  21.884  55.789  1.00  0.00     0.002 A 
HETATM   23  C   UNL     1       8.447  20.692  55.267  1.00  0.00     0.000 A 
HETATM   24  C   UNL     1       8.448  20.490  53.891  1.00  0.00     0.002 A 
HETATM   25  C   UNL     1       7.948  21.478  53.038  1.00  0.00     0.029 A 
ENDBRANCH  17  20
ENDBRANCH  15  16
ENDBRANCH   1  15
TORSDOF 3
ENDMDL
MODEL 10
REMARK VINA RESULT:      -8.1      3.024      4.100
REMARK  3 active torsions:
REMARK  status: ('A' for Active; 'I' for Inactive)
REMARK    1  A    between atoms: C_4  and  N_5 
REMARK       I    between atoms: N_5  and  C_6 
REMARK    2  A    between atoms: C_6  and  C_7 
REMARK    3  A    between atoms: C_7  and  C_8 
ROOT
HETATM    1  C   UNL     1       7.637  25.225  55.713  1.00  0.00     0.286 C 
HETATM    2  N   UNL     1       7.660  24.366  54.442  1.00  0.00    -0.056 N 
HETATM    3  H   UNL     1       6.837  24.600  53.863  1.00  0.00     0.278 HD
HETATM    4  H   UNL     1       8.490  24.617  53.889  1.00  0.00     0.278 HD
HETATM    5  C   UNL     1       7.639  22.875  54.671  1.00  0.00     0.209 C 
HETATM    6  C   UNL     1       8.706  22.487  55.710  1.00  0.00     0.115 C 
HETATM    7  N   UNL     1       8.572  23.253  56.935  1.00  0.00    -0.353 N 
HETATM    8  C   UNL     1       8.232  24.576  56.978  1.00  0.00     0.249 C 
HETATM    9  O   UNL     1       8.328  25.200  58.031  1.00  0.00    -0.271 OA
HETATM   10  C   UNL     1       7.878  22.146  53.353  1.00  0.00     0.035 C 
HETATM   11  C   UNL     1       7.837  20.633  53.577  1.00  0.00     0.002 C 
HETATM   12  C   UNL     1       8.786  20.181  54.689  1.00  0.00     0.002 C 
HETATM   13  C   UNL     1       8.612  20.982  55.979  1.00  0.00     0.027 C 
HETATM   14  H   UNL     1       9.008  22.907  57.788  1.00  0.00     0.163 HD
ENDROOT
BRANCH   1  15
HETATM   15  C   UNL     1       6.239  25.774  56.019  1.00  0.00     0.146 C 
BRANCH  15  16
HETATM   16  C   UNL     1       6.055  27.084  55.299  1.00  0.00     0.224 C 
HETATM   17  N   UNL     1       4.750  27.524  55.272  1.00  0.00    -0.327 N 
HETATM   18  H   UNL     1       4.086  27.099  55.918  1.00  0.00     0.169 HD
HETATM   19  O   UNL     1       7.016  27.538  54.683  1.00  0.00    -0.273 OA
BRANCH  17  20
HETATM   20  C   UNL     1       4.196  28.500  54.415  1.00  0.00     0.034 A 
HETATM   21  C   UNL     1       4.149  29.864  54.710  1.00  0.00     0.029 A 
HETATM   22  C   UNL     1       3.634  30.772  53.779  1.00  0.00     0.002 A 
HETATM   23  C   UNL     1       3.158  30.324  52.548  1.00  0.00     0.000 A 
HETATM   24  C   UNL     1       3.193  28.966  52.248  1.00  0.00     0.002 A 
HETATM   25  C   UNL     1       3.711  28.058  53.177  1.00  0.00     0.029 A 
ENDBRANCH  17  20
ENDBRANCH  15  16
ENDBRANCH   1  15
TORSDOF 3
ENDMDL
