MODEL 1
REMARK VINA RESULT:      -7.8      0.000      0.000
REMARK  3 active torsions:
REMARK  status: ('A' for Active; 'I' for Inactive)
REMARK    1  A    between atoms: C_2  and  C_3 
REMARK    2  A    between atoms: C_4  and  N_5 
REMARK    3  A    between atoms: C_18  and  C_19 
ROOT
HETATM    1  N   UNL     1       6.664  26.296  55.304  1.00  0.00    -0.320 N 
HETATM    2  C   UNL     1       5.495  26.354  56.102  1.00  0.00     0.141 C 
HETATM    3  N   UNL     1       4.696  25.338  56.259  1.00  0.00    -0.380 N 
HETATM    4  H   UNL     1       3.864  25.439  56.823  1.00  0.00     0.158 HD
HETATM    5  H   UNL     1       4.909  24.468  55.792  1.00  0.00     0.158 HD
HETATM    6  S   UNL     1       5.216  27.905  56.778  1.00  0.00    -0.086 SA
HETATM    7  C   UNL     1       6.460  28.682  55.656  1.00  0.00     0.093 C 
HETATM    8  C   UNL     1       7.452  27.548  55.290  1.00  0.00     0.121 C 
HETATM    9  C   UNL     1       7.209  29.856  56.263  1.00  0.00     0.158 C 
HETATM   10  S   UNL     1       8.850  29.273  56.621  1.00  0.00     0.147 S 
HETATM   11  O   UNL     1       9.135  29.478  58.024  1.00  0.00    -0.228 OA
HETATM   12  O   UNL     1       9.730  29.739  55.569  1.00  0.00    -0.228 OA
HETATM   13  C   UNL     1       8.547  27.552  56.347  1.00  0.00     0.167 C 
ENDROOT
BRANCH   1  14
HETATM   14  C   UNL     1       7.220  25.177  54.654  1.00  0.00     0.049 A 
HETATM   15  C   UNL     1       7.194  25.103  53.231  1.00  0.00    -0.031 A 
HETATM   16  C   UNL     1       7.800  24.008  52.593  1.00  0.00     0.009 A 
HETATM   17  C   UNL     1       8.350  22.965  53.326  1.00  0.00     0.001 A 
HETATM   18  C   UNL     1       8.321  23.003  54.716  1.00  0.00     0.009 A 
HETATM   19  C   UNL     1       7.784  24.106  55.404  1.00  0.00    -0.031 A 
BRANCH  15  20
HETATM   20  C   UNL     1       6.540  26.178  52.380  1.00  0.00     0.036 C 
HETATM   21  C   UNL     1       5.266  25.756  51.651  1.00  0.00     0.010 C 
ENDBRANCH  15  20
BRANCH  19  22
HETATM   22  C   UNL     1       7.784  24.085  56.925  1.00  0.00     0.036 C 
HETATM   23  C   UNL     1       9.124  24.378  57.594  1.00  0.00     0.010 C 
ENDBRANCH  19  22
ENDBRANCH   1  14
TORSDOF 3
ENDMDL
MODEL 2
REMARK VINA RESULT:      -7.7      0.120      2.931
REMARK  3 active torsions:
REMARK  status: ('A' for Active; 'I' for Inactive)
REMARK    1  A    between atoms: C_2  and  C_3 
REMARK    2  A    between atoms: C_4  and  N_5 
REMARK    3  A    between atoms: C_18  and  C_19 
ROOT
HETATM    1  N   UNL     1       6.634  26.214  55.319  1.00  0.00    -0.320 N 
HETATM    2  C   UNL     1       5.464  26.278  56.115  1.00  0.00     0.141 C 
HETATM    3  N   UNL     1       4.674  25.257  56.293  1.00  0.00    -0.380 N 
HETATM    4  H   UNL     1       3.841  25.361  56.854  1.00  0.00     0.158 HD
HETATM    5  H   UNL     1       4.896  24.380  55.844  1.00  0.00     0.158 HD
HETATM    6  S   UNL     1       5.170  27.839  56.760  1.00  0.00    -0.086 SA
HETATM    7  C   UNL     1       6.407  28.605  55.622  1.00  0.00     0.093 C 
HETATM    8  C   UNL     1       7.410  27.473  55.279  1.00  0.00     0.121 C 
HETATM    9  C   UNL     1       7.144  29.798  56.205  1.00  0.00     0.158 C 
HETATM   10  S   UNL     1       8.792  29.238  56.575  1.00  0.00     0.147 S 
HETATM   11  O   UNL     1       9.074  29.473  57.973  1.00  0.00    -0.228 OA
HETATM   12  O   UNL     1       9.666  29.691  55.514  1.00  0.00    -0.228 OA
HETATM   13  C   UNL     1       8.505  27.509  56.335  1.00  0.00     0.167 C 
ENDROOT
BRANCH   1  14
HETATM   14  C   UNL     1       7.201  25.088  54.691  1.00  0.00     0.049 A 
HETATM   15  C   UNL     1       7.767  24.048  55.483  1.00  0.00    -0.031 A 
HETATM   16  C   UNL     1       8.280  22.905  54.847  1.00  0.00     0.009 A 
HETATM   17  C   UNL     1       8.315  22.812  53.462  1.00  0.00     0.001 A 
HETATM   18  C   UNL     1       7.822  23.852  52.683  1.00  0.00     0.009 A 
HETATM   19  C   UNL     1       7.239  24.990  53.271  1.00  0.00    -0.031 A 
BRANCH  15  20
HETATM   20  C   UNL     1       7.824  24.130  57.000  1.00  0.00     0.036 C 
HETATM   21  C   UNL     1       9.205  24.400  57.593  1.00  0.00     0.010 C 
ENDBRANCH  15  20
BRANCH  19  22
HETATM   22  C   UNL     1       6.717  26.092  52.362  1.00  0.00     0.036 C 
HETATM   23  C   UNL     1       5.342  25.851  51.745  1.00  0.00     0.010 C 
ENDBRANCH  19  22
ENDBRANCH   1  14
TORSDOF 3
ENDMDL
MODEL 3
REMARK VINA RESULT:      -7.2      9.579     11.558
REMARK  3 active torsions:
REMARK  status: ('A' for Active; 'I' for Inactive)
REMARK    1  A    between atoms: C_2  and  C_3 
REMARK    2  A    between atoms: C_4  and  N_5 
REMARK    3  A    between atoms: C_18  and  C_19 
ROOT
HETATM    1  N   UNL     1       4.812  33.497  61.969  1.00  0.00    -0.320 N 
HETATM    2  C   UNL     1       3.844  32.537  61.581  1.00  0.00     0.141 C 
HETATM    3  N   UNL     1       3.631  31.440  62.250  1.00  0.00    -0.380 N 
HETATM    4  H   UNL     1       2.943  30.779  61.919  1.00  0.00     0.158 HD
HETATM    5  H   UNL     1       4.178  31.256  63.079  1.00  0.00     0.158 HD
HETATM    6  S   UNL     1       3.039  32.940  60.123  1.00  0.00    -0.086 SA
HETATM    7  C   UNL     1       4.286  34.244  59.727  1.00  0.00     0.093 C 
HETATM    8  C   UNL     1       4.867  34.689  61.094  1.00  0.00     0.121 C 
HETATM    9  C   UNL     1       3.728  35.444  58.981  1.00  0.00     0.158 C 
HETATM   10  S   UNL     1       3.659  36.778  60.156  1.00  0.00     0.147 S 
HETATM   11  O   UNL     1       2.306  37.281  60.229  1.00  0.00    -0.228 OA
HETATM   12  O   UNL     1       4.801  37.637  59.924  1.00  0.00    -0.228 OA
HETATM   13  C   UNL     1       3.991  35.822  61.607  1.00  0.00     0.167 C 
ENDROOT
BRANCH   1  14
HETATM   14  C   UNL     1       5.607  33.513  63.131  1.00  0.00     0.049 A 
HETATM   15  C   UNL     1       6.963  33.083  63.064  1.00  0.00    -0.031 A 
HETATM   16  C   UNL     1       7.761  33.155  64.219  1.00  0.00     0.009 A 
HETATM   17  C   UNL     1       7.227  33.561  65.434  1.00  0.00     0.001 A 
HETATM   18  C   UNL     1       5.887  33.921  65.518  1.00  0.00     0.009 A 
HETATM   19  C   UNL     1       5.061  33.928  64.379  1.00  0.00    -0.031 A 
BRANCH  15  20
HETATM   20  C   UNL     1       7.580  32.558  61.778  1.00  0.00     0.036 C 
HETATM   21  C   UNL     1       8.967  31.935  61.920  1.00  0.00     0.010 C 
ENDBRANCH  15  20
BRANCH  19  22
HETATM   22  C   UNL     1       3.604  34.334  64.540  1.00  0.00     0.036 C 
HETATM   23  C   UNL     1       3.260  35.088  65.821  1.00  0.00     0.010 C 
ENDBRANCH  19  22
ENDBRANCH   1  14
TORSDOF 3
ENDMDL
MODEL 4
REMARK VINA RESULT:      -7.1      9.538     11.519
REMARK  3 active torsions:
REMARK  status: ('A' for Active; 'I' for Inactive)
REMARK    1  A    between atoms: C_2  and  C_3 
REMARK    2  A    between atoms: C_4  and  N_5 
REMARK    3  A    between atoms: C_18  and  C_19 
ROOT
HETATM    1  N   UNL     1       4.801  33.420  61.942  1.00  0.00    -0.320 N 
HETATM    2  C   UNL     1       3.834  32.450  61.578  1.00  0.00     0.141 C 
HETATM    3  N   UNL     1       3.632  31.362  62.265  1.00  0.00    -0.380 N 
HETATM    4  H   UNL     1       2.944  30.693  61.951  1.00  0.00     0.158 HD
HETATM    5  H   UNL     1       4.187  31.193  63.092  1.00  0.00     0.158 HD
HETATM    6  S   UNL     1       3.014  32.827  60.121  1.00  0.00    -0.086 SA
HETATM    7  C   UNL     1       4.251  34.130  59.694  1.00  0.00     0.093 C 
HETATM    8  C   UNL     1       4.843  34.598  61.049  1.00  0.00     0.121 C 
HETATM    9  C   UNL     1       3.680  35.316  58.935  1.00  0.00     0.158 C 
HETATM   10  S   UNL     1       3.616  36.667  60.090  1.00  0.00     0.147 S 
HETATM   11  O   UNL     1       2.261  37.166  60.168  1.00  0.00    -0.228 OA
HETATM   12  O   UNL     1       4.752  37.528  59.834  1.00  0.00    -0.228 OA
HETATM   13  C   UNL     1       3.966  35.735  61.553  1.00  0.00     0.167 C 
ENDROOT
BRANCH   1  14
HETATM   14  C   UNL     1       5.606  33.457  63.097  1.00  0.00     0.049 A 
HETATM   15  C   UNL     1       5.048  33.889  64.334  1.00  0.00    -0.031 A 
HETATM   16  C   UNL     1       5.847  33.871  65.489  1.00  0.00     0.009 A 
HETATM   17  C   UNL     1       7.187  33.513  65.426  1.00  0.00     0.001 A 
HETATM   18  C   UNL     1       7.753  33.152  64.209  1.00  0.00     0.009 A 
HETATM   19  C   UNL     1       6.981  33.092  63.035  1.00  0.00    -0.031 A 
BRANCH  15  20
HETATM   20  C   UNL     1       3.607  34.362  64.446  1.00  0.00     0.036 C 
HETATM   21  C   UNL     1       3.252  35.084  65.744  1.00  0.00     0.010 C 
ENDBRANCH  15  20
BRANCH  19  22
HETATM   22  C   UNL     1       7.662  32.688  61.737  1.00  0.00     0.036 C 
HETATM   23  C   UNL     1       8.987  31.945  61.883  1.00  0.00     0.010 C 
ENDBRANCH  19  22
ENDBRANCH   1  14
TORSDOF 3
ENDMDL
MODEL 5
REMARK VINA RESULT:      -7.0      7.757     10.221
REMARK  3 active torsions:
REMARK  status: ('A' for Active; 'I' for Inactive)
REMARK    1  A    between atoms: C_2  and  C_3 
REMARK    2  A    between atoms: C_4  and  N_5 
REMARK    3  A    between atoms: C_18  and  C_19 
ROOT
HETATM    1  N   UNL     1       5.130  33.207  61.481  1.00  0.00    -0.320 N 
HETATM    2  C   UNL     1       3.921  32.562  61.841  1.00  0.00     0.141 C 
HETATM    3  N   UNL     1       3.878  31.337  62.282  1.00  0.00    -0.380 N 
HETATM    4  H   UNL     1       2.988  30.917  62.505  1.00  0.00     0.158 HD
HETATM    5  H   UNL     1       4.739  30.816  62.370  1.00  0.00     0.158 HD
HETATM    6  S   UNL     1       2.533  33.533  61.578  1.00  0.00    -0.086 SA
HETATM    7  C   UNL     1       3.495  34.732  60.553  1.00  0.00     0.093 C 
HETATM    8  C   UNL     1       4.962  34.609  61.041  1.00  0.00     0.121 C 
HETATM    9  C   UNL     1       3.026  36.172  60.662  1.00  0.00     0.158 C 
HETATM   10  S   UNL     1       4.243  37.024  61.640  1.00  0.00     0.147 S 
HETATM   11  O   UNL     1       3.598  37.632  62.782  1.00  0.00    -0.228 OA
HETATM   12  O   UNL     1       5.101  37.765  60.740  1.00  0.00    -0.228 OA
HETATM   13  C   UNL     1       5.137  35.597  62.185  1.00  0.00     0.167 C 
ENDROOT
BRANCH   1  14
HETATM   14  C   UNL     1       6.448  32.729  61.619  1.00  0.00     0.049 A 
HETATM   15  C   UNL     1       7.147  32.246  60.475  1.00  0.00    -0.031 A 
HETATM   16  C   UNL     1       8.479  31.821  60.617  1.00  0.00     0.009 A 
HETATM   17  C   UNL     1       9.093  31.793  61.862  1.00  0.00     0.001 A 
HETATM   18  C   UNL     1       8.393  32.204  62.990  1.00  0.00     0.009 A 
HETATM   19  C   UNL     1       7.080  32.698  62.895  1.00  0.00    -0.031 A 
BRANCH  15  20
HETATM   20  C   UNL     1       6.499  32.183  59.101  1.00  0.00     0.036 C 
HETATM   21  C   UNL     1       6.886  30.979  58.246  1.00  0.00     0.010 C 
ENDBRANCH  15  20
BRANCH  19  22
HETATM   22  C   UNL     1       6.371  33.132  64.168  1.00  0.00     0.036 C 
HETATM   23  C   UNL     1       7.239  33.837  65.206  1.00  0.00     0.010 C 
ENDBRANCH  19  22
ENDBRANCH   1  14
TORSDOF 3
ENDMDL
MODEL 6
REMARK VINA RESULT:      -6.8      7.825     10.597
REMARK  3 active torsions:
REMARK  status: ('A' for Active; 'I' for Inactive)
REMARK    1  A    between atoms: C_2  and  C_3 
REMARK    2  A    between atoms: C_4  and  N_5 
REMARK    3  A    between atoms: C_18  and  C_19 
ROOT
HETATM    1  N   UNL     1       4.989  33.250  61.495  1.00  0.00    -0.320 N 
HETATM    2  C   UNL     1       3.748  32.650  61.825  1.00  0.00     0.141 C 
HETATM    3  N   UNL     1       3.651  31.430  62.269  1.00  0.00    -0.380 N 
HETATM    4  H   UNL     1       2.740  31.042  62.471  1.00  0.00     0.158 HD
HETATM    5  H   UNL     1       4.490  30.879  62.383  1.00  0.00     0.158 HD
HETATM    6  S   UNL     1       2.403  33.668  61.520  1.00  0.00    -0.086 SA
HETATM    7  C   UNL     1       3.433  34.826  60.517  1.00  0.00     0.093 C 
HETATM    8  C   UNL     1       4.881  34.655  61.045  1.00  0.00     0.121 C 
HETATM    9  C   UNL     1       3.012  36.283  60.608  1.00  0.00     0.158 C 
HETATM   10  S   UNL     1       4.232  37.096  61.615  1.00  0.00     0.147 S 
HETATM   11  O   UNL     1       3.578  37.733  62.736  1.00  0.00    -0.228 OA
HETATM   12  O   UNL     1       5.140  37.803  60.735  1.00  0.00    -0.228 OA
HETATM   13  C   UNL     1       5.061  35.642  62.189  1.00  0.00     0.167 C 
ENDROOT
BRANCH   1  14
HETATM   14  C   UNL     1       6.284  32.727  61.671  1.00  0.00     0.049 A 
HETATM   15  C   UNL     1       6.877  32.729  62.966  1.00  0.00    -0.031 A 
HETATM   16  C   UNL     1       8.148  32.155  63.138  1.00  0.00     0.009 A 
HETATM   17  C   UNL     1       8.862  31.661  62.055  1.00  0.00     0.001 A 
HETATM   18  C   UNL     1       8.315  31.715  60.779  1.00  0.00     0.009 A 
HETATM   19  C   UNL     1       7.020  32.221  60.562  1.00  0.00    -0.031 A 
BRANCH  15  20
HETATM   20  C   UNL     1       6.171  33.324  64.175  1.00  0.00     0.036 C 
HETATM   21  C   UNL     1       7.082  33.749  65.324  1.00  0.00     0.010 C 
ENDBRANCH  15  20
BRANCH  19  22
HETATM   22  C   UNL     1       6.480  32.250  59.141  1.00  0.00     0.036 C 
HETATM   23  C   UNL     1       6.854  31.061  58.261  1.00  0.00     0.010 C 
ENDBRANCH  19  22
ENDBRANCH   1  14
TORSDOF 3
ENDMDL
MODEL 7
REMARK VINA RESULT:      -6.4      6.438      8.382
REMARK  3 active torsions:
REMARK  status: ('A' for Active; 'I' for Inactive)
REMARK    1  A    between atoms: C_2  and  C_3 
REMARK    2  A    between atoms: C_4  and  N_5 
REMARK    3  A    between atoms: C_18  and  C_19 
ROOT
HETATM    1  N   UNL     1       2.594  29.126  49.066  1.00  0.00    -0.320 N 
HETATM    2  C   UNL     1       2.004  29.496  50.299  1.00  0.00     0.141 C 
HETATM    3  N   UNL     1       1.406  28.642  51.080  1.00  0.00    -0.380 N 
HETATM    4  H   UNL     1       0.983  28.961  51.940  1.00  0.00     0.158 HD
HETATM    5  H   UNL     1       1.352  27.673  50.799  1.00  0.00     0.158 HD
HETATM    6  S   UNL     1       2.106  31.176  50.621  1.00  0.00    -0.086 SA
HETATM    7  C   UNL     1       2.588  31.539  48.875  1.00  0.00     0.093 C 
HETATM    8  C   UNL     1       3.255  30.241  48.352  1.00  0.00     0.121 C 
HETATM    9  C   UNL     1       3.537  32.715  48.716  1.00  0.00     0.158 C 
HETATM   10  S   UNL     1       5.131  32.025  48.333  1.00  0.00     0.147 S 
HETATM   11  O   UNL     1       6.098  32.487  49.304  1.00  0.00    -0.228 OA
HETATM   12  O   UNL     1       5.339  32.146  46.905  1.00  0.00    -0.228 OA
HETATM   13  C   UNL     1       4.738  30.335  48.679  1.00  0.00     0.167 C 
ENDROOT
BRANCH   1  14
HETATM   14  C   UNL     1       2.740  27.835  48.521  1.00  0.00     0.049 A 
HETATM   15  C   UNL     1       1.881  27.413  47.466  1.00  0.00    -0.031 A 
HETATM   16  C   UNL     1       2.072  26.143  46.895  1.00  0.00     0.009 A 
HETATM   17  C   UNL     1       3.029  25.270  47.396  1.00  0.00     0.001 A 
HETATM   18  C   UNL     1       3.827  25.654  48.467  1.00  0.00     0.009 A 
HETATM   19  C   UNL     1       3.720  26.938  49.033  1.00  0.00    -0.031 A 
BRANCH  15  20
HETATM   20  C   UNL     1       0.768  28.299  46.929  1.00  0.00     0.036 C 
HETATM   21  C   UNL     1      -0.198  27.624  45.959  1.00  0.00     0.010 C 
ENDBRANCH  15  20
BRANCH  19  22
HETATM   22  C   UNL     1       4.623  27.295  50.203  1.00  0.00     0.036 C 
HETATM   23  C   UNL     1       5.316  26.122  50.892  1.00  0.00     0.010 C 
ENDBRANCH  19  22
ENDBRANCH   1  14
TORSDOF 3
ENDMDL
MODEL 8
REMARK VINA RESULT:      -6.3      6.389      8.800
REMARK  3 active torsions:
REMARK  status: ('A' for Active; 'I' for Inactive)
REMARK    1  A    between atoms: C_2  and  C_3 
REMARK    2  A    between atoms: C_4  and  N_5 
REMARK    3  A    between atoms: C_18  and  C_19 
ROOT
HETATM    1  N   UNL     1       2.624  29.109  49.099  1.00  0.00    -0.320 N 
HETATM    2  C   UNL     1       2.042  29.455  50.343  1.00  0.00     0.141 C 
HETATM    3  N   UNL     1       1.438  28.589  51.106  1.00  0.00    -0.380 N 
HETATM    4  H   UNL     1       1.022  28.892  51.975  1.00  0.00     0.158 HD
HETATM    5  H   UNL     1       1.373  27.627  50.802  1.00  0.00     0.158 HD
HETATM    6  S   UNL     1       2.162  31.127  50.704  1.00  0.00    -0.086 SA
HETATM    7  C   UNL     1       2.642  31.526  48.966  1.00  0.00     0.093 C 
HETATM    8  C   UNL     1       3.293  30.233  48.409  1.00  0.00     0.121 C 
HETATM    9  C   UNL     1       3.602  32.695  48.830  1.00  0.00     0.158 C 
HETATM   10  S   UNL     1       5.187  31.999  48.424  1.00  0.00     0.147 S 
HETATM   11  O   UNL     1       6.162  32.427  49.402  1.00  0.00    -0.228 OA
HETATM   12  O   UNL     1       5.391  32.151  46.999  1.00  0.00    -0.228 OA
HETATM   13  C   UNL     1       4.778  30.305  48.732  1.00  0.00     0.167 C 
ENDROOT
BRANCH   1  14
HETATM   14  C   UNL     1       2.754  27.830  48.524  1.00  0.00     0.049 A 
HETATM   15  C   UNL     1       3.713  26.915  49.047  1.00  0.00    -0.031 A 
HETATM   16  C   UNL     1       3.796  25.624  48.499  1.00  0.00     0.009 A 
HETATM   17  C   UNL     1       3.017  25.257  47.410  1.00  0.00     0.001 A 
HETATM   18  C   UNL     1       2.126  26.168  46.856  1.00  0.00     0.009 A 
HETATM   19  C   UNL     1       1.958  27.451  47.406  1.00  0.00    -0.031 A 
BRANCH  15  20
HETATM   20  C   UNL     1       4.644  27.289  50.189  1.00  0.00     0.036 C 
HETATM   21  C   UNL     1       5.325  26.117  50.893  1.00  0.00     0.010 C 
ENDBRANCH  15  20
BRANCH  19  22
HETATM   22  C   UNL     1       0.965  28.399  46.752  1.00  0.00     0.036 C 
HETATM   23  C   UNL     1      -0.257  27.745  46.111  1.00  0.00     0.010 C 
ENDBRANCH  19  22
ENDBRANCH   1  14
TORSDOF 3
ENDMDL
MODEL 9
REMARK VINA RESULT:      -6.0      8.484     10.791
REMARK  3 active torsions:
REMARK  status: ('A' for Active; 'I' for Inactive)
REMARK    1  A    between atoms: C_2  and  C_3 
REMARK    2  A    between atoms: C_4  and  N_5 
REMARK    3  A    between atoms: C_18  and  C_19 
ROOT
HETATM    1  N   UNL     1       5.022  33.746  61.684  1.00  0.00    -0.320 N 
HETATM    2  C   UNL     1       4.269  32.796  62.416  1.00  0.00     0.141 C 
HETATM    3  N   UNL     1       3.002  32.950  62.679  1.00  0.00    -0.380 N 
HETATM    4  H   UNL     1       2.516  32.251  63.223  1.00  0.00     0.158 HD
HETATM    5  H   UNL     1       2.531  33.783  62.356  1.00  0.00     0.158 HD
HETATM    6  S   UNL     1       5.205  31.468  62.963  1.00  0.00    -0.086 SA
HETATM    7  C   UNL     1       6.782  32.351  62.586  1.00  0.00     0.093 C 
HETATM    8  C   UNL     1       6.433  33.361  61.462  1.00  0.00     0.121 C 
HETATM    9  C   UNL     1       7.919  31.446  62.141  1.00  0.00     0.158 C 
HETATM   10  S   UNL     1       8.110  31.704  60.391  1.00  0.00     0.147 S 
HETATM   11  O   UNL     1       7.982  30.438  59.705  1.00  0.00    -0.228 OA
HETATM   12  O   UNL     1       9.236  32.592  60.190  1.00  0.00    -0.228 OA
HETATM   13  C   UNL     1       6.632  32.643  60.136  1.00  0.00     0.167 C 
ENDROOT
BRANCH   1  14
HETATM   14  C   UNL     1       4.565  34.915  61.045  1.00  0.00     0.049 A 
HETATM   15  C   UNL     1       3.842  34.815  59.822  1.00  0.00    -0.031 A 
HETATM   16  C   UNL     1       3.345  35.984  59.223  1.00  0.00     0.009 A 
HETATM   17  C   UNL     1       3.616  37.235  59.761  1.00  0.00     0.001 A 
HETATM   18  C   UNL     1       4.376  37.342  60.920  1.00  0.00     0.009 A 
HETATM   19  C   UNL     1       4.843  36.199  61.594  1.00  0.00    -0.031 A 
BRANCH  15  20
HETATM   20  C   UNL     1       3.580  33.477  59.148  1.00  0.00     0.036 C 
HETATM   21  C   UNL     1       3.736  33.465  57.629  1.00  0.00     0.010 C 
ENDBRANCH  15  20
BRANCH  19  22
HETATM   22  C   UNL     1       5.668  36.387  62.858  1.00  0.00     0.036 C 
HETATM   23  C   UNL     1       5.945  37.831  63.264  1.00  0.00     0.010 C 
ENDBRANCH  19  22
ENDBRANCH   1  14
TORSDOF 3
ENDMDL
MODEL 10
REMARK VINA RESULT:      -6.0      8.538     10.242
REMARK  3 active torsions:
REMARK  status: ('A' for Active; 'I' for Inactive)
REMARK    1  A    between atoms: C_2  and  C_3 
REMARK    2  A    between atoms: C_4  and  N_5 
REMARK    3  A    between atoms: C_18  and  C_19 
ROOT
HETATM    1  N   UNL     1       4.924  33.662  61.789  1.00  0.00    -0.320 N 
HETATM    2  C   UNL     1       4.470  33.116  63.015  1.00  0.00     0.141 C 
HETATM    3  N   UNL     1       4.592  31.853  63.313  1.00  0.00    -0.380 N 
HETATM    4  H   UNL     1       4.234  31.511  64.193  1.00  0.00     0.158 HD
HETATM    5  H   UNL     1       5.023  31.230  62.645  1.00  0.00     0.158 HD
HETATM    6  S   UNL     1       3.699  34.267  64.024  1.00  0.00    -0.086 SA
HETATM    7  C   UNL     1       3.570  35.481  62.638  1.00  0.00     0.093 C 
HETATM    8  C   UNL     1       4.724  35.123  61.666  1.00  0.00     0.121 C 
HETATM    9  C   UNL     1       3.676  36.935  63.063  1.00  0.00     0.158 C 
HETATM   10  S   UNL     1       5.284  37.493  62.545  1.00  0.00     0.147 S 
HETATM   11  O   UNL     1       6.004  38.003  63.690  1.00  0.00    -0.228 OA
HETATM   12  O   UNL     1       5.121  38.252  61.322  1.00  0.00    -0.228 OA
HETATM   13  C   UNL     1       5.947  35.911  62.112  1.00  0.00     0.167 C 
ENDROOT
BRANCH   1  14
HETATM   14  C   UNL     1       5.644  33.021  60.762  1.00  0.00     0.049 A 
HETATM   15  C   UNL     1       5.001  32.732  59.524  1.00  0.00    -0.031 A 
HETATM   16  C   UNL     1       5.746  32.141  58.489  1.00  0.00     0.009 A 
HETATM   17  C   UNL     1       7.068  31.766  58.683  1.00  0.00     0.001 A 
HETATM   18  C   UNL     1       7.680  31.988  59.910  1.00  0.00     0.009 A 
HETATM   19  C   UNL     1       7.000  32.634  60.958  1.00  0.00    -0.031 A 
BRANCH  15  20
HETATM   20  C   UNL     1       3.535  33.053  59.282  1.00  0.00     0.036 C 
HETATM   21  C   UNL     1       3.262  34.139  58.245  1.00  0.00     0.010 C 
ENDBRANCH  15  20
BRANCH  19  22
HETATM   22  C   UNL     1       7.728  32.847  62.276  1.00  0.00     0.036 C 
HETATM   23  C   UNL     1       8.347  31.602  62.904  1.00  0.00     0.010 C 
ENDBRANCH  19  22
ENDBRANCH   1  14
TORSDOF 3
ENDMDL
