MODEL 1
REMARK VINA RESULT:      -9.2      0.000      0.000
REMARK  7 active torsions:
REMARK  status: ('A' for Active; 'I' for Inactive)
REMARK    1  A    between atoms: C_8  and  C_9 
REMARK    2  A    between atoms: C_9  and  N_10 
REMARK    3  A    between atoms: C_9  and  C_14 
REMARK       I    between atoms: C_14  and  N_15 
REMARK    4  A    between atoms: N_15  and  C_16 
REMARK    5  A    between atoms: C_16  and  C_17 
REMARK    6  A    between atoms: C_17  and  C_18 
REMARK    7  A    between atoms: C_20  and  C_21 
ROOT
HETATM    1  C   UNL     1       7.479  28.067  57.292  1.00  0.00     0.253 C 
HETATM    2  N   UNL     1       7.241  27.414  56.106  1.00  0.00    -0.359 N 
HETATM    3  O   UNL     1       7.988  27.532  58.278  1.00  0.00    -0.271 OA
HETATM    4  H   UNL     1       6.604  27.818  55.424  1.00  0.00     0.162 HD
ENDROOT
BRANCH   1   5
HETATM    5  C   UNL     1       7.158  29.578  57.340  1.00  0.00     0.311 C 
BRANCH   5   6
HETATM    6  C   UNL     1       8.315  30.395  57.799  1.00  0.00     0.031 A 
HETATM    7  C   UNL     1       9.636  30.379  57.368  1.00  0.00     0.035 A 
HETATM    8  C   UNL     1      10.363  29.589  56.342  1.00  0.00     0.070 C 
HETATM    9  N   UNL     1      10.295  31.302  58.140  1.00  0.00    -0.282 N 
HETATM   10  H   UNL     1      11.287  31.535  58.146  1.00  0.00     0.189 HD
HETATM   11  N   UNL     1       9.492  31.933  59.001  1.00  0.00    -0.179 NA
HETATM   12  C   UNL     1       8.290  31.391  58.817  1.00  0.00     0.061 A 
HETATM   13  C   UNL     1       7.143  31.860  59.641  1.00  0.00     0.073 C 
ENDBRANCH   5   6
BRANCH   5  14
HETATM   14  N   UNL     1       6.697  30.028  55.988  1.00  0.00    -0.062 N 
HETATM   15  H   UNL     1       7.327  30.765  55.650  1.00  0.00     0.275 HD
HETATM   16  H   UNL     1       6.793  29.255  55.317  1.00  0.00     0.275 HD
HETATM   17  H   UNL     1       5.735  30.380  56.000  1.00  0.00     0.275 HD
ENDBRANCH   5  14
ENDBRANCH   1   5
BRANCH   2  18
HETATM   18  C   UNL     1       7.517  25.991  55.940  1.00  0.00     0.127 C 
BRANCH  18  19
HETATM   19  C   UNL     1       7.178  25.471  54.537  1.00  0.00     0.058 C 
BRANCH  19  20
HETATM   20  C   UNL     1       7.560  24.023  54.327  1.00  0.00    -0.056 A 
HETATM   21  C   UNL     1       7.788  23.185  55.427  1.00  0.00     0.023 A 
HETATM   22  C   UNL     1       8.139  21.834  55.252  1.00  0.00     0.048 A 
HETATM   23  C   UNL     1       8.253  21.327  53.952  1.00  0.00     0.016 A 
HETATM   24  C   UNL     1       8.047  22.158  52.850  1.00  0.00     0.001 A 
HETATM   25  C   UNL     1       7.705  23.498  53.036  1.00  0.00     0.007 A 
BRANCH  22  26
HETATM   26  C   UNL     1       8.347  20.942  56.450  1.00  0.00     0.417 C 
HETATM   27  F   UNL     1       7.405  19.963  56.551  1.00  0.00    -0.166 F 
HETATM   28  F   UNL     1       9.542  20.280  56.389  1.00  0.00    -0.166 F 
HETATM   29  F   UNL     1       8.342  21.602  57.638  1.00  0.00    -0.166 F 
ENDBRANCH  22  26
ENDBRANCH  19  20
ENDBRANCH  18  19
ENDBRANCH   2  18
TORSDOF 7
ENDMDL
MODEL 2
REMARK VINA RESULT:      -9.1      1.203      2.087
REMARK  7 active torsions:
REMARK  status: ('A' for Active; 'I' for Inactive)
REMARK    1  A    between atoms: C_8  and  C_9 
REMARK    2  A    between atoms: C_9  and  N_10 
REMARK    3  A    between atoms: C_9  and  C_14 
REMARK       I    between atoms: C_14  and  N_15 
REMARK    4  A    between atoms: N_15  and  C_16 
REMARK    5  A    between atoms: C_16  and  C_17 
REMARK    6  A    between atoms: C_17  and  C_18 
REMARK    7  A    between atoms: C_20  and  C_21 
ROOT
HETATM    1  C   UNL     1       7.128  27.330  57.522  1.00  0.00     0.253 C 
HETATM    2  N   UNL     1       6.116  26.890  56.703  1.00  0.00    -0.359 N 
HETATM    3  O   UNL     1       7.983  26.590  58.011  1.00  0.00    -0.271 OA
HETATM    4  H   UNL     1       5.307  27.483  56.534  1.00  0.00     0.162 HD
ENDROOT
BRANCH   1   5
HETATM    5  C   UNL     1       7.227  28.853  57.764  1.00  0.00     0.311 C 
BRANCH   5   6
HETATM    6  C   UNL     1       8.511  29.428  57.276  1.00  0.00     0.031 A 
HETATM    7  C   UNL     1       9.454  30.189  57.955  1.00  0.00     0.035 A 
HETATM    8  C   UNL     1       9.544  30.693  59.349  1.00  0.00     0.070 C 
HETATM    9  N   UNL     1      10.429  30.487  57.037  1.00  0.00    -0.282 N 
HETATM   10  H   UNL     1      11.258  31.067  57.155  1.00  0.00     0.189 HD
HETATM   11  N   UNL     1      10.202  29.943  55.838  1.00  0.00    -0.179 NA
HETATM   12  C   UNL     1       9.040  29.305  55.959  1.00  0.00     0.061 A 
HETATM   13  C   UNL     1       8.472  28.591  54.784  1.00  0.00     0.073 C 
ENDBRANCH   5   6
BRANCH   5  14
HETATM   14  N   UNL     1       6.062  29.534  57.112  1.00  0.00    -0.062 N 
HETATM   15  H   UNL     1       5.920  29.127  56.180  1.00  0.00     0.275 HD
HETATM   16  H   UNL     1       5.204  29.324  57.637  1.00  0.00     0.275 HD
HETATM   17  H   UNL     1       6.198  30.545  57.026  1.00  0.00     0.275 HD
ENDBRANCH   5  14
ENDBRANCH   1   5
BRANCH   2  18
HETATM   18  C   UNL     1       5.932  25.477  56.394  1.00  0.00     0.127 C 
BRANCH  18  19
HETATM   19  C   UNL     1       5.970  25.178  54.889  1.00  0.00     0.058 C 
BRANCH  19  20
HETATM   20  C   UNL     1       6.813  23.974  54.539  1.00  0.00    -0.056 A 
HETATM   21  C   UNL     1       7.223  23.082  55.539  1.00  0.00     0.023 A 
HETATM   22  C   UNL     1       8.004  21.953  55.233  1.00  0.00     0.048 A 
HETATM   23  C   UNL     1       8.367  21.723  53.900  1.00  0.00     0.016 A 
HETATM   24  C   UNL     1       7.981  22.615  52.900  1.00  0.00     0.001 A 
HETATM   25  C   UNL     1       7.212  23.735  53.217  1.00  0.00     0.007 A 
BRANCH  22  26
HETATM   26  C   UNL     1       8.405  20.988  56.321  1.00  0.00     0.417 C 
HETATM   27  F   UNL     1       8.396  21.554  57.560  1.00  0.00    -0.166 F 
HETATM   28  F   UNL     1       7.540  19.932  56.407  1.00  0.00    -0.166 F 
HETATM   29  F   UNL     1       9.641  20.451  56.155  1.00  0.00    -0.166 F 
ENDBRANCH  22  26
ENDBRANCH  19  20
ENDBRANCH  18  19
ENDBRANCH   2  18
TORSDOF 7
ENDMDL
MODEL 3
REMARK VINA RESULT:      -8.8      3.829      5.483
REMARK  7 active torsions:
REMARK  status: ('A' for Active; 'I' for Inactive)
REMARK    1  A    between atoms: C_8  and  C_9 
REMARK    2  A    between atoms: C_9  and  N_10 
REMARK    3  A    between atoms: C_9  and  C_14 
REMARK       I    between atoms: C_14  and  N_15 
REMARK    4  A    between atoms: N_15  and  C_16 
REMARK    5  A    between atoms: C_16  and  C_17 
REMARK    6  A    between atoms: C_17  and  C_18 
REMARK    7  A    between atoms: C_20  and  C_21 
ROOT
HETATM    1  C   UNL     1       5.930  27.857  53.721  1.00  0.00     0.253 C 
HETATM    2  N   UNL     1       5.562  26.967  54.701  1.00  0.00    -0.359 N 
HETATM    3  O   UNL     1       7.098  28.162  53.475  1.00  0.00    -0.271 OA
HETATM    4  H   UNL     1       4.599  26.941  55.026  1.00  0.00     0.162 HD
ENDROOT
BRANCH   1   5
HETATM    5  C   UNL     1       4.802  28.433  52.834  1.00  0.00     0.311 C 
BRANCH   5   6
HETATM    6  C   UNL     1       5.087  28.287  51.380  1.00  0.00     0.031 A 
HETATM    7  C   UNL     1       5.230  27.134  50.617  1.00  0.00     0.035 A 
HETATM    8  C   UNL     1       5.155  25.687  50.937  1.00  0.00     0.070 C 
HETATM    9  N   UNL     1       5.517  27.558  49.345  1.00  0.00    -0.282 N 
HETATM   10  H   UNL     1       5.732  26.998  48.521  1.00  0.00     0.189 HD
HETATM   11  N   UNL     1       5.529  28.889  49.226  1.00  0.00    -0.179 NA
HETATM   12  C   UNL     1       5.280  29.349  50.450  1.00  0.00     0.061 A 
HETATM   13  C   UNL     1       5.239  30.818  50.683  1.00  0.00     0.073 C 
ENDBRANCH   5   6
BRANCH   5  14
HETATM   14  N   UNL     1       3.507  27.769  53.188  1.00  0.00    -0.062 N 
HETATM   15  H   UNL     1       2.769  28.481  53.226  1.00  0.00     0.275 HD
HETATM   16  H   UNL     1       3.232  27.128  52.434  1.00  0.00     0.275 HD
HETATM   17  H   UNL     1       3.553  27.277  54.085  1.00  0.00     0.275 HD
ENDBRANCH   5  14
ENDBRANCH   1   5
BRANCH   2  18
HETATM   18  C   UNL     1       6.540  26.351  55.590  1.00  0.00     0.127 C 
BRANCH  18  19
HETATM   19  C   UNL     1       6.220  24.886  55.917  1.00  0.00     0.058 C 
BRANCH  19  20
HETATM   20  C   UNL     1       6.975  23.901  55.053  1.00  0.00    -0.056 A 
HETATM   21  C   UNL     1       7.432  22.692  55.593  1.00  0.00     0.023 A 
HETATM   22  C   UNL     1       8.132  21.761  54.805  1.00  0.00     0.048 A 
HETATM   23  C   UNL     1       8.364  22.055  53.456  1.00  0.00     0.016 A 
HETATM   24  C   UNL     1       7.930  23.265  52.913  1.00  0.00     0.001 A 
HETATM   25  C   UNL     1       7.243  24.184  53.707  1.00  0.00     0.007 A 
BRANCH  22  26
HETATM   26  C   UNL     1       8.586  20.451  55.399  1.00  0.00     0.417 C 
HETATM   27  F   UNL     1       7.649  19.885  56.210  1.00  0.00    -0.166 F 
HETATM   28  F   UNL     1       8.831  19.514  54.434  1.00  0.00    -0.166 F 
HETATM   29  F   UNL     1       9.724  20.542  56.135  1.00  0.00    -0.166 F 
ENDBRANCH  22  26
ENDBRANCH  19  20
ENDBRANCH  18  19
ENDBRANCH   2  18
TORSDOF 7
ENDMDL
MODEL 4
REMARK VINA RESULT:      -8.8      5.465      7.886
REMARK  7 active torsions:
REMARK  status: ('A' for Active; 'I' for Inactive)
REMARK    1  A    between atoms: C_8  and  C_9 
REMARK    2  A    between atoms: C_9  and  N_10 
REMARK    3  A    between atoms: C_9  and  C_14 
REMARK       I    between atoms: C_14  and  N_15 
REMARK    4  A    between atoms: N_15  and  C_16 
REMARK    5  A    between atoms: C_16  and  C_17 
REMARK    6  A    between atoms: C_17  and  C_18 
REMARK    7  A    between atoms: C_20  and  C_21 
ROOT
HETATM    1  C   UNL     1       5.154  26.249  50.395  1.00  0.00     0.253 C 
HETATM    2  N   UNL     1       6.110  26.866  51.165  1.00  0.00    -0.359 N 
HETATM    3  O   UNL     1       4.501  25.272  50.767  1.00  0.00    -0.271 OA
HETATM    4  H   UNL     1       6.782  27.494  50.731  1.00  0.00     0.162 HD
ENDROOT
BRANCH   1   5
HETATM    5  C   UNL     1       4.837  26.884  49.022  1.00  0.00     0.311 C 
BRANCH   5   6
HETATM    6  C   UNL     1       3.394  27.215  48.863  1.00  0.00     0.031 A 
HETATM    7  C   UNL     1       2.622  28.155  49.533  1.00  0.00     0.035 A 
HETATM    8  C   UNL     1       2.920  29.141  50.603  1.00  0.00     0.070 C 
HETATM    9  N   UNL     1       1.352  28.028  49.030  1.00  0.00    -0.282 N 
HETATM   10  H   UNL     1       0.504  28.518  49.311  1.00  0.00     0.189 HD
HETATM   11  N   UNL     1       1.262  27.109  48.065  1.00  0.00    -0.179 NA
HETATM   12  C   UNL     1       2.486  26.598  47.955  1.00  0.00     0.061 A 
HETATM   13  C   UNL     1       2.740  25.517  46.965  1.00  0.00     0.073 C 
ENDBRANCH   5   6
BRANCH   5  14
HETATM   14  N   UNL     1       5.682  28.107  48.837  1.00  0.00    -0.062 N 
HETATM   15  H   UNL     1       5.103  28.939  48.999  1.00  0.00     0.275 HD
HETATM   16  H   UNL     1       6.411  28.134  49.562  1.00  0.00     0.275 HD
HETATM   17  H   UNL     1       6.098  28.158  47.902  1.00  0.00     0.275 HD
ENDBRANCH   5  14
ENDBRANCH   1   5
BRANCH   2  18
HETATM   18  C   UNL     1       6.483  26.364  52.482  1.00  0.00     0.127 C 
BRANCH  18  19
HETATM   19  C   UNL     1       7.758  25.511  52.464  1.00  0.00     0.058 C 
BRANCH  19  20
HETATM   20  C   UNL     1       7.747  24.396  53.485  1.00  0.00    -0.056 A 
HETATM   21  C   UNL     1       7.952  23.068  53.084  1.00  0.00     0.023 A 
HETATM   22  C   UNL     1       7.950  22.017  54.019  1.00  0.00     0.048 A 
HETATM   23  C   UNL     1       7.745  22.315  55.372  1.00  0.00     0.016 A 
HETATM   24  C   UNL     1       7.522  23.630  55.778  1.00  0.00     0.001 A 
HETATM   25  C   UNL     1       7.519  24.664  54.841  1.00  0.00     0.007 A 
BRANCH  22  26
HETATM   26  C   UNL     1       8.205  20.600  53.570  1.00  0.00     0.417 C 
HETATM   27  F   UNL     1       8.281  19.721  54.608  1.00  0.00    -0.166 F 
HETATM   28  F   UNL     1       7.194  20.128  52.779  1.00  0.00    -0.166 F 
HETATM   29  F   UNL     1       9.349  20.445  52.853  1.00  0.00    -0.166 F 
ENDBRANCH  22  26
ENDBRANCH  19  20
ENDBRANCH  18  19
ENDBRANCH   2  18
TORSDOF 7
ENDMDL
MODEL 5
REMARK VINA RESULT:      -8.8      5.552      7.767
REMARK  7 active torsions:
REMARK  status: ('A' for Active; 'I' for Inactive)
REMARK    1  A    between atoms: C_8  and  C_9 
REMARK    2  A    between atoms: C_9  and  N_10 
REMARK    3  A    between atoms: C_9  and  C_14 
REMARK       I    between atoms: C_14  and  N_15 
REMARK    4  A    between atoms: N_15  and  C_16 
REMARK    5  A    between atoms: C_16  and  C_17 
REMARK    6  A    between atoms: C_17  and  C_18 
REMARK    7  A    between atoms: C_20  and  C_21 
ROOT
HETATM    1  C   UNL     1       5.343  27.557  50.311  1.00  0.00     0.253 C 
HETATM    2  N   UNL     1       5.615  26.276  50.727  1.00  0.00    -0.359 N 
HETATM    3  O   UNL     1       5.527  28.557  51.007  1.00  0.00    -0.271 OA
HETATM    4  H   UNL     1       5.220  25.485  50.224  1.00  0.00     0.162 HD
ENDROOT
BRANCH   1   5
HETATM    5  C   UNL     1       4.857  27.736  48.854  1.00  0.00     0.311 C 
BRANCH   5   6
HETATM    6  C   UNL     1       3.394  27.506  48.706  1.00  0.00     0.031 A 
HETATM    7  C   UNL     1       2.719  26.413  48.177  1.00  0.00     0.035 A 
HETATM    8  C   UNL     1       3.169  25.125  47.590  1.00  0.00     0.070 C 
HETATM    9  N   UNL     1       1.385  26.724  48.248  1.00  0.00    -0.282 N 
HETATM   10  H   UNL     1       0.587  26.186  47.913  1.00  0.00     0.189 HD
HETATM   11  N   UNL     1       1.154  27.910  48.817  1.00  0.00    -0.179 NA
HETATM   12  C   UNL     1       2.358  28.404  49.093  1.00  0.00     0.061 A 
HETATM   13  C   UNL     1       2.470  29.745  49.729  1.00  0.00     0.073 C 
ENDBRANCH   5   6
BRANCH   5  14
HETATM   14  N   UNL     1       5.227  29.107  48.376  1.00  0.00    -0.062 N 
HETATM   15  H   UNL     1       4.396  29.553  47.971  1.00  0.00     0.275 HD
HETATM   16  H   UNL     1       5.490  29.692  49.179  1.00  0.00     0.275 HD
HETATM   17  H   UNL     1       5.977  29.089  47.679  1.00  0.00     0.275 HD
ENDBRANCH   5  14
ENDBRANCH   1   5
BRANCH   2  18
HETATM   18  C   UNL     1       6.090  25.987  52.075  1.00  0.00     0.127 C 
BRANCH  18  19
HETATM   19  C   UNL     1       7.493  25.365  52.100  1.00  0.00     0.058 C 
BRANCH  19  20
HETATM   20  C   UNL     1       7.679  24.352  53.207  1.00  0.00    -0.056 A 
HETATM   21  C   UNL     1       7.834  22.993  52.902  1.00  0.00     0.023 A 
HETATM   22  C   UNL     1       8.013  22.036  53.917  1.00  0.00     0.048 A 
HETATM   23  C   UNL     1       8.042  22.460  55.251  1.00  0.00     0.016 A 
HETATM   24  C   UNL     1       7.869  23.808  55.565  1.00  0.00     0.001 A 
HETATM   25  C   UNL     1       7.685  24.748  54.551  1.00  0.00     0.007 A 
BRANCH  22  26
HETATM   26  C   UNL     1       8.212  20.583  53.564  1.00  0.00     0.417 C 
HETATM   27  F   UNL     1       7.218  20.088  52.775  1.00  0.00    -0.166 F 
HETATM   28  F   UNL     1       9.362  20.386  52.851  1.00  0.00    -0.166 F 
HETATM   29  F   UNL     1       8.290  19.758  54.641  1.00  0.00    -0.166 F 
ENDBRANCH  22  26
ENDBRANCH  19  20
ENDBRANCH  18  19
ENDBRANCH   2  18
TORSDOF 7
ENDMDL
MODEL 6
REMARK VINA RESULT:      -8.5      3.681      4.880
REMARK  7 active torsions:
REMARK  status: ('A' for Active; 'I' for Inactive)
REMARK    1  A    between atoms: C_8  and  C_9 
REMARK    2  A    between atoms: C_9  and  N_10 
REMARK    3  A    between atoms: C_9  and  C_14 
REMARK       I    between atoms: C_14  and  N_15 
REMARK    4  A    between atoms: N_15  and  C_16 
REMARK    5  A    between atoms: C_16  and  C_17 
REMARK    6  A    between atoms: C_17  and  C_18 
REMARK    7  A    between atoms: C_20  and  C_21 
ROOT
HETATM    1  C   UNL     1       6.778  26.805  56.480  1.00  0.00     0.253 C 
HETATM    2  N   UNL     1       6.937  25.726  57.316  1.00  0.00    -0.359 N 
HETATM    3  O   UNL     1       7.712  27.384  55.922  1.00  0.00    -0.271 OA
HETATM    4  H   UNL     1       6.180  25.449  57.936  1.00  0.00     0.162 HD
ENDROOT
BRANCH   1   5
HETATM    5  C   UNL     1       5.329  27.250  56.172  1.00  0.00     0.311 C 
BRANCH   5   6
HETATM    6  C   UNL     1       5.003  27.173  54.721  1.00  0.00     0.031 A 
HETATM    7  C   UNL     1       5.155  26.113  53.835  1.00  0.00     0.035 A 
HETATM    8  C   UNL     1       5.667  24.727  53.983  1.00  0.00     0.070 C 
HETATM    9  N   UNL     1       4.734  26.579  52.616  1.00  0.00    -0.282 N 
HETATM   10  H   UNL     1       4.741  26.103  51.715  1.00  0.00     0.189 HD
HETATM   11  N   UNL     1       4.289  27.839  52.662  1.00  0.00    -0.179 NA
HETATM   12  C   UNL     1       4.453  28.219  53.927  1.00  0.00     0.061 A 
HETATM   13  C   UNL     1       4.069  29.599  54.330  1.00  0.00     0.073 C 
ENDBRANCH   5   6
BRANCH   5  14
HETATM   14  N   UNL     1       4.376  26.417  56.973  1.00  0.00    -0.062 N 
HETATM   15  H   UNL     1       4.765  26.280  57.913  1.00  0.00     0.275 HD
HETATM   16  H   UNL     1       3.500  26.935  57.111  1.00  0.00     0.275 HD
HETATM   17  H   UNL     1       4.197  25.505  56.542  1.00  0.00     0.275 HD
ENDBRANCH   5  14
ENDBRANCH   1   5
BRANCH   2  18
HETATM   18  C   UNL     1       8.255  25.211  57.668  1.00  0.00     0.127 C 
BRANCH  18  19
HETATM   19  C   UNL     1       9.019  24.636  56.467  1.00  0.00     0.058 C 
BRANCH  19  20
HETATM   20  C   UNL     1       8.661  23.199  56.163  1.00  0.00    -0.056 A 
HETATM   21  C   UNL     1       8.567  22.760  54.835  1.00  0.00     0.023 A 
HETATM   22  C   UNL     1       8.240  21.426  54.531  1.00  0.00     0.048 A 
HETATM   23  C   UNL     1       8.014  20.528  55.582  1.00  0.00     0.016 A 
HETATM   24  C   UNL     1       8.087  20.960  56.906  1.00  0.00     0.001 A 
HETATM   25  C   UNL     1       8.405  22.288  57.195  1.00  0.00     0.007 A 
BRANCH  22  26
HETATM   26  C   UNL     1       8.177  20.967  53.096  1.00  0.00     0.417 C 
HETATM   27  F   UNL     1       9.226  20.171  52.748  1.00  0.00    -0.166 F 
HETATM   28  F   UNL     1       7.063  20.212  52.853  1.00  0.00    -0.166 F 
HETATM   29  F   UNL     1       8.150  21.981  52.192  1.00  0.00    -0.166 F 
ENDBRANCH  22  26
ENDBRANCH  19  20
ENDBRANCH  18  19
ENDBRANCH   2  18
TORSDOF 7
ENDMDL
MODEL 7
REMARK VINA RESULT:      -8.5      3.023      3.668
REMARK  7 active torsions:
REMARK  status: ('A' for Active; 'I' for Inactive)
REMARK    1  A    between atoms: C_8  and  C_9 
REMARK    2  A    between atoms: C_9  and  N_10 
REMARK    3  A    between atoms: C_9  and  C_14 
REMARK       I    between atoms: C_14  and  N_15 
REMARK    4  A    between atoms: N_15  and  C_16 
REMARK    5  A    between atoms: C_16  and  C_17 
REMARK    6  A    between atoms: C_17  and  C_18 
REMARK    7  A    between atoms: C_20  and  C_21 
ROOT
HETATM    1  C   UNL     1       6.616  27.619  57.307  1.00  0.00     0.253 C 
HETATM    2  N   UNL     1       7.476  26.581  57.574  1.00  0.00    -0.359 N 
HETATM    3  O   UNL     1       5.432  27.465  57.002  1.00  0.00    -0.271 OA
HETATM    4  H   UNL     1       8.481  26.742  57.572  1.00  0.00     0.162 HD
ENDROOT
BRANCH   1   5
HETATM    5  C   UNL     1       7.165  29.053  57.484  1.00  0.00     0.311 C 
BRANCH   5   6
HETATM    6  C   UNL     1       8.372  29.311  56.650  1.00  0.00     0.031 A 
HETATM    7  C   UNL     1       8.626  28.962  55.329  1.00  0.00     0.035 A 
HETATM    8  C   UNL     1       7.839  28.243  54.297  1.00  0.00     0.070 C 
HETATM    9  N   UNL     1       9.895  29.408  55.060  1.00  0.00    -0.282 N 
HETATM   10  H   UNL     1      10.443  29.293  54.209  1.00  0.00     0.189 HD
HETATM   11  N   UNL     1      10.455  30.047  56.091  1.00  0.00    -0.179 NA
HETATM   12  C   UNL     1       9.552  29.991  57.068  1.00  0.00     0.061 A 
HETATM   13  C   UNL     1       9.864  30.603  58.387  1.00  0.00     0.073 C 
ENDBRANCH   5   6
BRANCH   5  14
HETATM   14  N   UNL     1       6.083  30.039  57.166  1.00  0.00    -0.062 N 
HETATM   15  H   UNL     1       6.299  30.929  57.628  1.00  0.00     0.275 HD
HETATM   16  H   UNL     1       6.089  30.243  56.159  1.00  0.00     0.275 HD
HETATM   17  H   UNL     1       5.159  29.715  57.465  1.00  0.00     0.275 HD
ENDBRANCH   5  14
ENDBRANCH   1   5
BRANCH   2  18
HETATM   18  C   UNL     1       7.066  25.187  57.452  1.00  0.00     0.127 C 
BRANCH  18  19
HETATM   19  C   UNL     1       8.174  24.277  56.906  1.00  0.00     0.058 C 
BRANCH  19  20
HETATM   20  C   UNL     1       7.976  23.896  55.457  1.00  0.00    -0.056 A 
HETATM   21  C   UNL     1       7.068  24.603  54.657  1.00  0.00     0.023 A 
HETATM   22  C   UNL     1       6.873  24.267  53.305  1.00  0.00     0.048 A 
HETATM   23  C   UNL     1       7.610  23.210  52.758  1.00  0.00     0.016 A 
HETATM   24  C   UNL     1       8.503  22.488  53.550  1.00  0.00     0.001 A 
HETATM   25  C   UNL     1       8.683  22.826  54.892  1.00  0.00     0.007 A 
BRANCH  22  26
HETATM   26  C   UNL     1       5.915  25.063  52.455  1.00  0.00     0.417 C 
HETATM   27  F   UNL     1       6.453  25.438  51.260  1.00  0.00    -0.166 F 
HETATM   28  F   UNL     1       4.802  24.339  52.131  1.00  0.00    -0.166 F 
HETATM   29  F   UNL     1       5.467  26.202  53.045  1.00  0.00    -0.166 F 
ENDBRANCH  22  26
ENDBRANCH  19  20
ENDBRANCH  18  19
ENDBRANCH   2  18
TORSDOF 7
ENDMDL
MODEL 8
REMARK VINA RESULT:      -8.3      2.967      3.487
REMARK  7 active torsions:
REMARK  status: ('A' for Active; 'I' for Inactive)
REMARK    1  A    between atoms: C_8  and  C_9 
REMARK    2  A    between atoms: C_9  and  N_10 
REMARK    3  A    between atoms: C_9  and  C_14 
REMARK       I    between atoms: C_14  and  N_15 
REMARK    4  A    between atoms: N_15  and  C_16 
REMARK    5  A    between atoms: C_16  and  C_17 
REMARK    6  A    between atoms: C_17  and  C_18 
REMARK    7  A    between atoms: C_20  and  C_21 
ROOT
HETATM    1  C   UNL     1       7.958  27.757  57.408  1.00  0.00     0.253 C 
HETATM    2  N   UNL     1       8.358  26.699  56.628  1.00  0.00    -0.359 N 
HETATM    3  O   UNL     1       7.694  27.662  58.608  1.00  0.00    -0.271 OA
HETATM    4  H   UNL     1       8.320  26.773  55.614  1.00  0.00     0.162 HD
ENDROOT
BRANCH   1   5
HETATM    5  C   UNL     1       7.922  29.151  56.739  1.00  0.00     0.311 C 
BRANCH   5   6
HETATM    6  C   UNL     1       8.672  30.176  57.515  1.00  0.00     0.031 A 
HETATM    7  C   UNL     1      10.043  30.368  57.634  1.00  0.00     0.035 A 
HETATM    8  C   UNL     1      11.222  29.668  57.065  1.00  0.00     0.070 C 
HETATM    9  N   UNL     1      10.202  31.428  58.490  1.00  0.00    -0.282 N 
HETATM   10  H   UNL     1      11.065  31.829  58.853  1.00  0.00     0.189 HD
HETATM   11  N   UNL     1       9.041  31.952  58.896  1.00  0.00    -0.179 NA
HETATM   12  C   UNL     1       8.102  31.202  58.323  1.00  0.00     0.061 A 
HETATM   13  C   UNL     1       6.668  31.504  58.580  1.00  0.00     0.073 C 
ENDBRANCH   5   6
BRANCH   5  14
HETATM   14  N   UNL     1       8.460  29.043  55.345  1.00  0.00    -0.062 N 
HETATM   15  H   UNL     1       7.673  29.021  54.687  1.00  0.00     0.275 HD
HETATM   16  H   UNL     1       8.987  29.895  55.114  1.00  0.00     0.275 HD
HETATM   17  H   UNL     1       9.040  28.210  55.213  1.00  0.00     0.275 HD
ENDBRANCH   5  14
ENDBRANCH   1   5
BRANCH   2  18
HETATM   18  C   UNL     1       8.442  25.341  57.153  1.00  0.00     0.127 C 
BRANCH  18  19
HETATM   19  C   UNL     1       7.284  24.444  56.696  1.00  0.00     0.058 C 
BRANCH  19  20
HETATM   20  C   UNL     1       7.291  24.169  55.209  1.00  0.00    -0.056 A 
HETATM   21  C   UNL     1       6.318  24.741  54.378  1.00  0.00     0.023 A 
HETATM   22  C   UNL     1       6.311  24.501  52.993  1.00  0.00     0.048 A 
HETATM   23  C   UNL     1       7.303  23.680  52.443  1.00  0.00     0.016 A 
HETATM   24  C   UNL     1       8.265  23.090  53.264  1.00  0.00     0.001 A 
HETATM   25  C   UNL     1       8.258  23.330  54.638  1.00  0.00     0.007 A 
BRANCH  22  26
HETATM   26  C   UNL     1       5.274  25.153  52.114  1.00  0.00     0.417 C 
HETATM   27  F   UNL     1       5.795  25.643  50.954  1.00  0.00    -0.166 F 
HETATM   28  F   UNL     1       4.309  24.267  51.722  1.00  0.00    -0.166 F 
HETATM   29  F   UNL     1       4.620  26.187  52.704  1.00  0.00    -0.166 F 
ENDBRANCH  22  26
ENDBRANCH  19  20
ENDBRANCH  18  19
ENDBRANCH   2  18
TORSDOF 7
ENDMDL
MODEL 9
REMARK VINA RESULT:      -8.2      1.791      2.293
REMARK  7 active torsions:
REMARK  status: ('A' for Active; 'I' for Inactive)
REMARK    1  A    between atoms: C_8  and  C_9 
REMARK    2  A    between atoms: C_9  and  N_10 
REMARK    3  A    between atoms: C_9  and  C_14 
REMARK       I    between atoms: C_14  and  N_15 
REMARK    4  A    between atoms: N_15  and  C_16 
REMARK    5  A    between atoms: C_16  and  C_17 
REMARK    6  A    between atoms: C_17  and  C_18 
REMARK    7  A    between atoms: C_20  and  C_21 
ROOT
HETATM    1  C   UNL     1       5.337  27.412  55.886  1.00  0.00     0.253 C 
HETATM    2  N   UNL     1       6.000  26.808  54.846  1.00  0.00    -0.359 N 
HETATM    3  O   UNL     1       4.926  26.808  56.879  1.00  0.00    -0.271 OA
HETATM    4  H   UNL     1       6.093  27.290  53.956  1.00  0.00     0.162 HD
ENDROOT
BRANCH   1   5
HETATM    5  C   UNL     1       5.181  28.949  55.825  1.00  0.00     0.311 C 
BRANCH   5   6
HETATM    6  C   UNL     1       5.805  29.634  56.990  1.00  0.00     0.031 A 
HETATM    7  C   UNL     1       7.042  29.419  57.586  1.00  0.00     0.035 A 
HETATM    8  C   UNL     1       8.156  28.478  57.306  1.00  0.00     0.070 C 
HETATM    9  N   UNL     1       7.110  30.294  58.639  1.00  0.00    -0.282 N 
HETATM   10  H   UNL     1       7.846  30.396  59.336  1.00  0.00     0.189 HD
HETATM   11  N   UNL     1       6.032  31.078  58.739  1.00  0.00    -0.179 NA
HETATM   12  C   UNL     1       5.226  30.688  57.754  1.00  0.00     0.061 A 
HETATM   13  C   UNL     1       3.906  31.353  57.584  1.00  0.00     0.073 C 
ENDBRANCH   5   6
BRANCH   5  14
HETATM   14  N   UNL     1       5.764  29.453  54.540  1.00  0.00    -0.062 N 
HETATM   15  H   UNL     1       5.056  30.015  54.053  1.00  0.00     0.275 HD
HETATM   16  H   UNL     1       6.536  30.100  54.744  1.00  0.00     0.275 HD
HETATM   17  H   UNL     1       6.077  28.694  53.929  1.00  0.00     0.275 HD
ENDBRANCH   5  14
ENDBRANCH   1   5
BRANCH   2  18
HETATM   18  C   UNL     1       6.217  25.366  54.802  1.00  0.00     0.127 C 
BRANCH  18  19
HETATM   19  C   UNL     1       7.313  24.951  53.812  1.00  0.00     0.058 C 
BRANCH  19  20
HETATM   20  C   UNL     1       7.648  23.478  53.873  1.00  0.00    -0.056 A 
HETATM   21  C   UNL     1       7.867  22.853  55.108  1.00  0.00     0.023 A 
HETATM   22  C   UNL     1       8.175  21.483  55.186  1.00  0.00     0.048 A 
HETATM   23  C   UNL     1       8.256  20.738  54.003  1.00  0.00     0.016 A 
HETATM   24  C   UNL     1       8.059  21.355  52.767  1.00  0.00     0.001 A 
HETATM   25  C   UNL     1       7.760  22.717  52.702  1.00  0.00     0.007 A 
BRANCH  22  26
HETATM   26  C   UNL     1       8.374  20.824  56.528  1.00  0.00     0.417 C 
HETATM   27  F   UNL     1       8.375  21.714  57.560  1.00  0.00    -0.166 F 
HETATM   28  F   UNL     1       7.365  19.947  56.818  1.00  0.00    -0.166 F 
HETATM   29  F   UNL     1       9.529  20.117  56.632  1.00  0.00    -0.166 F 
ENDBRANCH  22  26
ENDBRANCH  19  20
ENDBRANCH  18  19
ENDBRANCH   2  18
TORSDOF 7
ENDMDL
MODEL 10
REMARK VINA RESULT:      -8.1      1.906      2.489
REMARK  7 active torsions:
REMARK  status: ('A' for Active; 'I' for Inactive)
REMARK    1  A    between atoms: C_8  and  C_9 
REMARK    2  A    between atoms: C_9  and  N_10 
REMARK    3  A    between atoms: C_9  and  C_14 
REMARK       I    between atoms: C_14  and  N_15 
REMARK    4  A    between atoms: N_15  and  C_16 
REMARK    5  A    between atoms: C_16  and  C_17 
REMARK    6  A    between atoms: C_17  and  C_18 
REMARK    7  A    between atoms: C_20  and  C_21 
ROOT
HETATM    1  C   UNL     1       6.724  27.879  56.979  1.00  0.00     0.253 C 
HETATM    2  N   UNL     1       7.635  26.988  57.491  1.00  0.00    -0.359 N 
HETATM    3  O   UNL     1       5.691  27.544  56.395  1.00  0.00    -0.271 OA
HETATM    4  H   UNL     1       8.571  27.303  57.733  1.00  0.00     0.162 HD
ENDROOT
BRANCH   1   5
HETATM    5  C   UNL     1       6.988  29.381  57.232  1.00  0.00     0.311 C 
BRANCH   5   6
HETATM    6  C   UNL     1       8.441  29.707  57.278  1.00  0.00     0.031 A 
HETATM    7  C   UNL     1       9.409  29.573  56.290  1.00  0.00     0.035 A 
HETATM    8  C   UNL     1       9.373  29.087  54.888  1.00  0.00     0.070 C 
HETATM    9  N   UNL     1      10.587  29.984  56.861  1.00  0.00    -0.282 N 
HETATM   10  H   UNL     1      11.523  29.984  56.458  1.00  0.00     0.189 HD
HETATM   11  N   UNL     1      10.440  30.405  58.120  1.00  0.00    -0.179 NA
HETATM   12  C   UNL     1       9.148  30.236  58.395  1.00  0.00     0.061 A 
HETATM   13  C   UNL     1       8.635  30.596  59.744  1.00  0.00     0.073 C 
ENDBRANCH   5   6
BRANCH   5  14
HETATM   14  N   UNL     1       6.299  30.189  56.175  1.00  0.00    -0.062 N 
HETATM   15  H   UNL     1       5.448  29.695  55.883  1.00  0.00     0.275 HD
HETATM   16  H   UNL     1       5.976  31.078  56.579  1.00  0.00     0.275 HD
HETATM   17  H   UNL     1       6.895  30.355  55.359  1.00  0.00     0.275 HD
ENDBRANCH   5  14
ENDBRANCH   1   5
BRANCH   2  18
HETATM   18  C   UNL     1       7.483  25.547  57.324  1.00  0.00     0.127 C 
BRANCH  18  19
HETATM   19  C   UNL     1       7.939  25.047  55.947  1.00  0.00     0.058 C 
BRANCH  19  20
HETATM   20  C   UNL     1       8.084  23.544  55.874  1.00  0.00    -0.056 A 
HETATM   21  C   UNL     1       8.046  22.889  54.635  1.00  0.00     0.023 A 
HETATM   22  C   UNL     1       8.184  21.492  54.546  1.00  0.00     0.048 A 
HETATM   23  C   UNL     1       8.368  20.753  55.722  1.00  0.00     0.016 A 
HETATM   24  C   UNL     1       8.387  21.394  56.961  1.00  0.00     0.001 A 
HETATM   25  C   UNL     1       8.243  22.779  57.038  1.00  0.00     0.007 A 
BRANCH  22  26
HETATM   26  C   UNL     1       8.174  20.812  53.200  1.00  0.00     0.417 C 
HETATM   27  F   UNL     1       7.036  20.096  52.977  1.00  0.00    -0.166 F 
HETATM   28  F   UNL     1       8.232  21.715  52.175  1.00  0.00    -0.166 F 
HETATM   29  F   UNL     1       9.209  19.954  53.007  1.00  0.00    -0.166 F 
ENDBRANCH  22  26
ENDBRANCH  19  20
ENDBRANCH  18  19
ENDBRANCH   2  18
TORSDOF 7
ENDMDL
