MODEL 1
REMARK VINA RESULT:     -10.7      0.000      0.000
REMARK  9 active torsions:
REMARK  status: ('A' for Active; 'I' for Inactive)
REMARK    1  A    between atoms: C_2  and  N_3 
REMARK    2  A    between atoms: N_3  and  C_4 
REMARK    3  A    between atoms: N_3  and  C_34 
REMARK    4  A    between atoms: C_6  and  O_7 
REMARK    5  A    between atoms: C_8  and  C_9 
REMARK    6  A    between atoms: N_10  and  N_11 
REMARK       I    between atoms: N_11  and  C_12 
REMARK    7  A    between atoms: C_12  and  C_13 
REMARK    8  A    between atoms: C_16  and  N_17 
REMARK    9  A    between atoms: C_21  and  C_22 
ROOT
HETATM    1  C   UNL     1       7.965  29.744  58.145  1.00  0.00     0.033 A 
HETATM    2  C   UNL     1       6.704  29.259  57.780  1.00  0.00     0.019 A 
HETATM    3  C   UNL     1       6.530  28.622  56.544  1.00  0.00     0.030 A 
HETATM    4  C   UNL     1       7.596  28.461  55.643  1.00  0.00     0.034 A 
HETATM    5  C   UNL     1       8.843  28.975  56.016  1.00  0.00     0.030 A 
HETATM    6  C   UNL     1       9.030  29.606  57.252  1.00  0.00     0.019 A 
ENDROOT
BRANCH   1   7
HETATM    7  C   UNL     1       8.211  30.442  59.440  1.00  0.00     0.271 C 
HETATM    8  N   UNL     1       7.284  31.427  59.768  1.00  0.00    -0.243 N 
HETATM    9  H   UNL     1       6.378  31.388  59.314  1.00  0.00     0.192 HD
HETATM   10  O   UNL     1       9.164  30.089  60.129  1.00  0.00    -0.266 OA
BRANCH   8  11
HETATM   11  N   UNL     1       7.253  32.110  60.957  1.00  0.00    -0.183 NA
HETATM   12  C   UNL     1       6.420  31.705  61.868  1.00  0.00     0.153 C 
BRANCH  12  13
HETATM   13  C   UNL     1       6.275  32.420  63.154  1.00  0.00     0.016 A 
HETATM   14  C   UNL     1       5.016  32.705  63.672  1.00  0.00     0.079 A 
HETATM   15  C   UNL     1       4.887  33.397  64.887  1.00  0.00     0.066 A 
HETATM   16  C   UNL     1       6.003  33.838  65.626  1.00  0.00     0.032 A 
HETATM   17  C   UNL     1       7.259  33.528  65.071  1.00  0.00     0.030 A 
HETATM   18  C   UNL     1       7.401  32.834  63.860  1.00  0.00     0.018 A 
BRANCH  14  19
HETATM   19  O   UNL     1       3.893  32.309  62.999  1.00  0.00    -0.360 OA
HETATM   20  H   UNL     1       4.054  31.444  62.587  1.00  0.00     0.217 HD
ENDBRANCH  14  19
BRANCH  16  21
HETATM   21  N   UNL     1       5.873  34.530  66.827  1.00  0.00    -0.382 N 
BRANCH  21  22
HETATM   22  C   UNL     1       4.692  35.353  67.130  1.00  0.00     0.118 C 
HETATM   23  C   UNL     1       4.659  36.596  66.254  1.00  0.00     0.026 C 
ENDBRANCH  21  22
BRANCH  21  24
HETATM   24  C   UNL     1       6.872  34.438  67.901  1.00  0.00     0.118 C 
HETATM   25  C   UNL     1       6.205  34.524  69.267  1.00  0.00     0.026 C 
ENDBRANCH  21  24
ENDBRANCH  16  21
ENDBRANCH  12  13
ENDBRANCH   8  11
ENDBRANCH   1   7
BRANCH   4  26
HETATM   26  N   UNL     1       7.340  27.865  54.396  1.00  0.00    -0.335 N 
HETATM   27  C   UNL     1       7.278  26.547  54.087  1.00  0.00     0.171 A 
HETATM   28  S   UNL     1       6.811  26.084  52.489  1.00  0.00    -0.061 SA
HETATM   29  N   UNL     1       7.571  25.534  54.869  1.00  0.00    -0.223 NA
HETATM   30  C   UNL     1       7.021  24.434  52.901  1.00  0.00     0.085 A 
HETATM   31  C   UNL     1       7.438  24.320  54.211  1.00  0.00     0.076 A 
HETATM   32  H   UNL     1       7.173  28.516  53.640  1.00  0.00     0.168 HD
BRANCH  31  33
HETATM   33  C   UNL     1       7.744  23.063  54.899  1.00  0.00    -0.007 A 
HETATM   34  C   UNL     1       8.049  23.001  56.266  1.00  0.00     0.014 A 
HETATM   35  C   UNL     1       8.326  21.776  56.882  1.00  0.00     0.001 A 
HETATM   36  C   UNL     1       8.303  20.596  56.141  1.00  0.00     0.000 A 
HETATM   37  C   UNL     1       8.004  20.640  54.782  1.00  0.00     0.001 A 
HETATM   38  C   UNL     1       7.727  21.864  54.168  1.00  0.00     0.014 A 
ENDBRANCH  31  33
ENDBRANCH   4  26
TORSDOF 9
ENDMDL
MODEL 2
REMARK VINA RESULT:      -9.6      3.332     13.040
REMARK  9 active torsions:
REMARK  status: ('A' for Active; 'I' for Inactive)
REMARK    1  A    between atoms: C_2  and  N_3 
REMARK    2  A    between atoms: N_3  and  C_4 
REMARK    3  A    between atoms: N_3  and  C_34 
REMARK    4  A    between atoms: C_6  and  O_7 
REMARK    5  A    between atoms: C_8  and  C_9 
REMARK    6  A    between atoms: N_10  and  N_11 
REMARK       I    between atoms: N_11  and  C_12 
REMARK    7  A    between atoms: C_12  and  C_13 
REMARK    8  A    between atoms: C_16  and  N_17 
REMARK    9  A    between atoms: C_21  and  C_22 
ROOT
HETATM    1  C   UNL     1       6.818  31.205  58.978  1.00  0.00     0.033 A 
HETATM    2  C   UNL     1       5.770  31.708  58.199  1.00  0.00     0.019 A 
HETATM    3  C   UNL     1       5.030  32.811  58.646  1.00  0.00     0.030 A 
HETATM    4  C   UNL     1       5.308  33.432  59.876  1.00  0.00     0.034 A 
HETATM    5  C   UNL     1       6.344  32.899  60.652  1.00  0.00     0.030 A 
HETATM    6  C   UNL     1       7.093  31.802  60.211  1.00  0.00     0.019 A 
ENDROOT
BRANCH   1   7
HETATM    7  C   UNL     1       7.631  30.026  58.563  1.00  0.00     0.271 C 
HETATM    8  N   UNL     1       6.924  29.013  57.921  1.00  0.00    -0.243 N 
HETATM    9  H   UNL     1       6.033  29.257  57.502  1.00  0.00     0.192 HD
HETATM   10  O   UNL     1       8.841  30.039  58.774  1.00  0.00    -0.266 OA
BRANCH   8  11
HETATM   11  N   UNL     1       7.489  27.897  57.357  1.00  0.00    -0.183 NA
HETATM   12  C   UNL     1       6.705  26.904  57.064  1.00  0.00     0.153 C 
BRANCH  12  13
HETATM   13  C   UNL     1       7.236  25.639  56.511  1.00  0.00     0.016 A 
HETATM   14  C   UNL     1       8.042  24.809  57.283  1.00  0.00     0.079 A 
HETATM   15  C   UNL     1       8.554  23.617  56.746  1.00  0.00     0.066 A 
HETATM   16  C   UNL     1       8.291  23.212  55.423  1.00  0.00     0.032 A 
HETATM   17  C   UNL     1       7.470  24.076  54.675  1.00  0.00     0.030 A 
HETATM   18  C   UNL     1       6.948  25.268  55.201  1.00  0.00     0.018 A 
BRANCH  14  19
HETATM   19  O   UNL     1       8.339  25.149  58.574  1.00  0.00    -0.360 OA
HETATM   20  H   UNL     1       7.687  24.747  59.170  1.00  0.00     0.217 HD
ENDBRANCH  14  19
BRANCH  16  21
HETATM   21  N   UNL     1       8.805  22.032  54.890  1.00  0.00    -0.382 N 
BRANCH  21  22
HETATM   22  C   UNL     1       9.074  20.851  55.724  1.00  0.00     0.118 C 
HETATM   23  C   UNL     1       7.783  20.293  56.305  1.00  0.00     0.026 C 
ENDBRANCH  21  22
BRANCH  21  24
HETATM   24  C   UNL     1       9.055  21.861  53.452  1.00  0.00     0.118 C 
HETATM   25  C   UNL     1       8.375  20.602  52.931  1.00  0.00     0.026 C 
ENDBRANCH  21  24
ENDBRANCH  16  21
ENDBRANCH  12  13
ENDBRANCH   8  11
ENDBRANCH   1   7
BRANCH   4  26
HETATM   26  N   UNL     1       4.491  34.498  60.291  1.00  0.00    -0.335 N 
HETATM   27  C   UNL     1       4.398  35.061  61.519  1.00  0.00     0.171 A 
HETATM   28  S   UNL     1       3.401  36.457  61.726  1.00  0.00    -0.061 SA
HETATM   29  N   UNL     1       4.967  34.646  62.628  1.00  0.00    -0.223 NA
HETATM   30  C   UNL     1       3.775  36.482  63.399  1.00  0.00     0.085 A 
HETATM   31  C   UNL     1       4.620  35.437  63.713  1.00  0.00     0.076 A 
HETATM   32  H   UNL     1       3.907  34.892  59.566  1.00  0.00     0.168 HD
BRANCH  31  33
HETATM   33  C   UNL     1       5.127  35.129  65.052  1.00  0.00    -0.007 A 
HETATM   34  C   UNL     1       4.552  35.652  66.220  1.00  0.00     0.014 A 
HETATM   35  C   UNL     1       5.066  35.323  67.479  1.00  0.00     0.001 A 
HETATM   36  C   UNL     1       6.160  34.468  67.589  1.00  0.00     0.000 A 
HETATM   37  C   UNL     1       6.744  33.942  66.440  1.00  0.00     0.001 A 
HETATM   38  C   UNL     1       6.231  34.270  65.184  1.00  0.00     0.014 A 
ENDBRANCH  31  33
ENDBRANCH   4  26
TORSDOF 9
ENDMDL
MODEL 3
REMARK VINA RESULT:      -9.5      1.868      2.434
REMARK  9 active torsions:
REMARK  status: ('A' for Active; 'I' for Inactive)
REMARK    1  A    between atoms: C_2  and  N_3 
REMARK    2  A    between atoms: N_3  and  C_4 
REMARK    3  A    between atoms: N_3  and  C_34 
REMARK    4  A    between atoms: C_6  and  O_7 
REMARK    5  A    between atoms: C_8  and  C_9 
REMARK    6  A    between atoms: N_10  and  N_11 
REMARK       I    between atoms: N_11  and  C_12 
REMARK    7  A    between atoms: C_12  and  C_13 
REMARK    8  A    between atoms: C_16  and  N_17 
REMARK    9  A    between atoms: C_21  and  C_22 
ROOT
HETATM    1  C   UNL     1       4.494  30.749  57.588  1.00  0.00     0.033 A 
HETATM    2  C   UNL     1       3.458  30.442  56.698  1.00  0.00     0.019 A 
HETATM    3  C   UNL     1       3.755  29.926  55.429  1.00  0.00     0.030 A 
HETATM    4  C   UNL     1       5.080  29.712  55.014  1.00  0.00     0.034 A 
HETATM    5  C   UNL     1       6.102  30.049  55.909  1.00  0.00     0.030 A 
HETATM    6  C   UNL     1       5.817  30.557  57.182  1.00  0.00     0.019 A 
ENDROOT
BRANCH   1   7
HETATM    7  C   UNL     1       4.243  31.313  58.946  1.00  0.00     0.271 C 
HETATM    8  N   UNL     1       5.357  31.858  59.576  1.00  0.00    -0.243 N 
HETATM    9  H   UNL     1       6.142  32.126  58.992  1.00  0.00     0.192 HD
HETATM   10  O   UNL     1       3.099  31.293  59.391  1.00  0.00    -0.266 OA
BRANCH   8  11
HETATM   11  N   UNL     1       5.332  32.529  60.773  1.00  0.00    -0.183 NA
HETATM   12  C   UNL     1       6.051  32.058  61.747  1.00  0.00     0.153 C 
BRANCH  12  13
HETATM   13  C   UNL     1       6.036  32.681  63.088  1.00  0.00     0.016 A 
HETATM   14  C   UNL     1       4.836  33.034  63.695  1.00  0.00     0.079 A 
HETATM   15  C   UNL     1       4.830  33.638  64.962  1.00  0.00     0.066 A 
HETATM   16  C   UNL     1       6.017  33.920  65.668  1.00  0.00     0.032 A 
HETATM   17  C   UNL     1       7.210  33.545  65.023  1.00  0.00     0.030 A 
HETATM   18  C   UNL     1       7.229  32.937  63.759  1.00  0.00     0.018 A 
BRANCH  14  19
HETATM   19  O   UNL     1       3.649  32.792  63.058  1.00  0.00    -0.360 OA
HETATM   20  H   UNL     1       3.650  33.240  62.197  1.00  0.00     0.217 HD
ENDBRANCH  14  19
BRANCH  16  21
HETATM   21  N   UNL     1       6.010  34.525  66.922  1.00  0.00    -0.382 N 
BRANCH  21  22
HETATM   22  C   UNL     1       4.887  35.357  67.382  1.00  0.00     0.118 C 
HETATM   23  C   UNL     1       4.796  36.640  66.568  1.00  0.00     0.026 C 
ENDBRANCH  21  22
BRANCH  21  24
HETATM   24  C   UNL     1       7.090  34.325  67.899  1.00  0.00     0.118 C 
HETATM   25  C   UNL     1       6.524  34.138  69.299  1.00  0.00     0.026 C 
ENDBRANCH  21  24
ENDBRANCH  16  21
ENDBRANCH  12  13
ENDBRANCH   8  11
ENDBRANCH   1   7
BRANCH   4  26
HETATM   26  N   UNL     1       5.309  29.247  53.707  1.00  0.00    -0.335 N 
HETATM   27  C   UNL     1       5.690  28.010  53.306  1.00  0.00     0.171 A 
HETATM   28  S   UNL     1       5.773  27.668  51.614  1.00  0.00    -0.061 SA
HETATM   29  N   UNL     1       6.051  27.005  54.070  1.00  0.00    -0.223 NA
HETATM   30  C   UNL     1       6.323  26.082  51.958  1.00  0.00     0.085 A 
HETATM   31  C   UNL     1       6.423  25.898  53.321  1.00  0.00     0.076 A 
HETATM   32  H   UNL     1       5.158  29.934  52.980  1.00  0.00     0.168 HD
BRANCH  31  33
HETATM   33  C   UNL     1       6.886  24.675  53.980  1.00  0.00    -0.007 A 
HETATM   34  C   UNL     1       7.227  23.513  53.272  1.00  0.00     0.014 A 
HETATM   35  C   UNL     1       7.673  22.370  53.944  1.00  0.00     0.001 A 
HETATM   36  C   UNL     1       7.784  22.371  55.333  1.00  0.00     0.000 A 
HETATM   37  C   UNL     1       7.449  23.515  56.052  1.00  0.00     0.001 A 
HETATM   38  C   UNL     1       7.003  24.655  55.380  1.00  0.00     0.014 A 
ENDBRANCH  31  33
ENDBRANCH   4  26
TORSDOF 9
ENDMDL
MODEL 4
REMARK VINA RESULT:      -9.4      3.825     12.869
REMARK  9 active torsions:
REMARK  status: ('A' for Active; 'I' for Inactive)
REMARK    1  A    between atoms: C_2  and  N_3 
REMARK    2  A    between atoms: N_3  and  C_4 
REMARK    3  A    between atoms: N_3  and  C_34 
REMARK    4  A    between atoms: C_6  and  O_7 
REMARK    5  A    between atoms: C_8  and  C_9 
REMARK    6  A    between atoms: N_10  and  N_11 
REMARK       I    between atoms: N_11  and  C_12 
REMARK    7  A    between atoms: C_12  and  C_13 
REMARK    8  A    between atoms: C_16  and  N_17 
REMARK    9  A    between atoms: C_21  and  C_22 
ROOT
HETATM    1  C   UNL     1       4.449  31.142  57.687  1.00  0.00     0.033 A 
HETATM    2  C   UNL     1       5.022  32.298  57.144  1.00  0.00     0.019 A 
HETATM    3  C   UNL     1       4.814  33.540  57.760  1.00  0.00     0.030 A 
HETATM    4  C   UNL     1       4.029  33.663  58.919  1.00  0.00     0.034 A 
HETATM    5  C   UNL     1       3.444  32.499  59.432  1.00  0.00     0.030 A 
HETATM    6  C   UNL     1       3.651  31.253  58.829  1.00  0.00     0.019 A 
ENDROOT
BRANCH   1   7
HETATM    7  C   UNL     1       4.621  29.796  57.070  1.00  0.00     0.271 C 
HETATM    8  N   UNL     1       5.550  28.971  57.697  1.00  0.00    -0.243 N 
HETATM    9  H   UNL     1       5.792  29.184  58.659  1.00  0.00     0.192 HD
HETATM   10  O   UNL     1       3.929  29.497  56.101  1.00  0.00    -0.266 OA
BRANCH   8  11
HETATM   11  N   UNL     1       5.783  27.659  57.369  1.00  0.00    -0.183 NA
HETATM   12  C   UNL     1       6.799  27.397  56.604  1.00  0.00     0.153 C 
BRANCH  12  13
HETATM   13  C   UNL     1       7.089  26.020  56.150  1.00  0.00     0.016 A 
HETATM   14  C   UNL     1       7.690  25.101  57.003  1.00  0.00     0.079 A 
HETATM   15  C   UNL     1       7.974  23.800  56.560  1.00  0.00     0.066 A 
HETATM   16  C   UNL     1       7.680  23.368  55.252  1.00  0.00     0.032 A 
HETATM   17  C   UNL     1       7.069  24.325  54.419  1.00  0.00     0.030 A 
HETATM   18  C   UNL     1       6.776  25.627  54.852  1.00  0.00     0.018 A 
BRANCH  14  19
HETATM   19  O   UNL     1       8.006  25.461  58.285  1.00  0.00    -0.360 OA
HETATM   20  H   UNL     1       8.745  26.090  58.268  1.00  0.00     0.217 HD
ENDBRANCH  14  19
BRANCH  16  21
HETATM   21  N   UNL     1       7.969  22.079  54.811  1.00  0.00    -0.382 N 
BRANCH  21  22
HETATM   22  C   UNL     1       8.607  21.822  53.511  1.00  0.00     0.118 C 
HETATM   23  C   UNL     1       8.115  20.510  52.916  1.00  0.00     0.026 C 
ENDBRANCH  21  22
BRANCH  21  24
HETATM   24  C   UNL     1       7.717  20.889  55.637  1.00  0.00     0.118 C 
HETATM   25  C   UNL     1       8.996  20.424  56.319  1.00  0.00     0.026 C 
ENDBRANCH  21  24
ENDBRANCH  16  21
ENDBRANCH  12  13
ENDBRANCH   8  11
ENDBRANCH   1   7
BRANCH   4  26
HETATM   26  N   UNL     1       3.814  34.945  59.453  1.00  0.00    -0.335 N 
HETATM   27  C   UNL     1       4.185  35.429  60.662  1.00  0.00     0.171 A 
HETATM   28  S   UNL     1       3.907  37.097  61.017  1.00  0.00    -0.061 SA
HETATM   29  N   UNL     1       4.721  34.757  61.655  1.00  0.00    -0.223 NA
HETATM   30  C   UNL     1       4.553  36.875  62.589  1.00  0.00     0.085 A 
HETATM   31  C   UNL     1       4.933  35.561  62.766  1.00  0.00     0.076 A 
HETATM   32  H   UNL     1       3.324  35.583  58.840  1.00  0.00     0.168 HD
BRANCH  31  33
HETATM   33  C   UNL     1       5.500  35.000  63.994  1.00  0.00    -0.007 A 
HETATM   34  C   UNL     1       6.660  34.212  64.003  1.00  0.00     0.014 A 
HETATM   35  C   UNL     1       7.171  33.704  65.202  1.00  0.00     0.001 A 
HETATM   36  C   UNL     1       6.529  33.975  66.409  1.00  0.00     0.000 A 
HETATM   37  C   UNL     1       5.376  34.754  66.418  1.00  0.00     0.001 A 
HETATM   38  C   UNL     1       4.867  35.261  65.220  1.00  0.00     0.014 A 
ENDBRANCH  31  33
ENDBRANCH   4  26
TORSDOF 9
ENDMDL
MODEL 5
REMARK VINA RESULT:      -9.3      3.953     12.819
REMARK  9 active torsions:
REMARK  status: ('A' for Active; 'I' for Inactive)
REMARK    1  A    between atoms: C_2  and  N_3 
REMARK    2  A    between atoms: N_3  and  C_4 
REMARK    3  A    between atoms: N_3  and  C_34 
REMARK    4  A    between atoms: C_6  and  O_7 
REMARK    5  A    between atoms: C_8  and  C_9 
REMARK    6  A    between atoms: N_10  and  N_11 
REMARK       I    between atoms: N_11  and  C_12 
REMARK    7  A    between atoms: C_12  and  C_13 
REMARK    8  A    between atoms: C_16  and  N_17 
REMARK    9  A    between atoms: C_21  and  C_22 
ROOT
HETATM    1  C   UNL     1       4.670  31.319  57.540  1.00  0.00     0.033 A 
HETATM    2  C   UNL     1       5.002  32.591  57.061  1.00  0.00     0.019 A 
HETATM    3  C   UNL     1       4.605  33.733  57.770  1.00  0.00     0.030 A 
HETATM    4  C   UNL     1       3.866  33.638  58.961  1.00  0.00     0.034 A 
HETATM    5  C   UNL     1       3.523  32.358  59.411  1.00  0.00     0.030 A 
HETATM    6  C   UNL     1       3.920  31.211  58.714  1.00  0.00     0.019 A 
ENDROOT
BRANCH   1   7
HETATM    7  C   UNL     1       5.052  30.067  56.824  1.00  0.00     0.271 C 
HETATM    8  N   UNL     1       5.223  28.949  57.635  1.00  0.00    -0.243 N 
HETATM    9  H   UNL     1       4.787  28.962  58.550  1.00  0.00     0.192 HD
HETATM   10  O   UNL     1       5.150  30.094  55.601  1.00  0.00    -0.266 OA
BRANCH   8  11
HETATM   11  N   UNL     1       5.461  27.678  57.178  1.00  0.00    -0.183 NA
HETATM   12  C   UNL     1       6.697  27.303  57.042  1.00  0.00     0.153 C 
BRANCH  12  13
HETATM   13  C   UNL     1       7.046  25.973  56.498  1.00  0.00     0.016 A 
HETATM   14  C   UNL     1       6.430  25.491  55.348  1.00  0.00     0.079 A 
HETATM   15  C   UNL     1       6.755  24.222  54.846  1.00  0.00     0.066 A 
HETATM   16  C   UNL     1       7.698  23.382  55.472  1.00  0.00     0.032 A 
HETATM   17  C   UNL     1       8.302  23.906  56.630  1.00  0.00     0.030 A 
HETATM   18  C   UNL     1       7.988  25.175  57.140  1.00  0.00     0.018 A 
BRANCH  14  19
HETATM   19  O   UNL     1       5.501  26.256  54.697  1.00  0.00    -0.360 OA
HETATM   20  H   UNL     1       4.894  26.646  55.346  1.00  0.00     0.217 HD
ENDBRANCH  14  19
BRANCH  16  21
HETATM   21  N   UNL     1       8.015  22.120  54.976  1.00  0.00    -0.382 N 
BRANCH  21  22
HETATM   22  C   UNL     1       7.641  20.886  55.684  1.00  0.00     0.118 C 
HETATM   23  C   UNL     1       8.854  20.256  56.352  1.00  0.00     0.026 C 
ENDBRANCH  21  22
BRANCH  21  24
HETATM   24  C   UNL     1       8.688  21.927  53.683  1.00  0.00     0.118 C 
HETATM   25  C   UNL     1       7.984  20.856  52.863  1.00  0.00     0.026 C 
ENDBRANCH  21  24
ENDBRANCH  16  21
ENDBRANCH  12  13
ENDBRANCH   8  11
ENDBRANCH   1   7
BRANCH   4  26
HETATM   26  N   UNL     1       3.451  34.824  59.591  1.00  0.00    -0.335 N 
HETATM   27  C   UNL     1       3.793  35.294  60.815  1.00  0.00     0.171 A 
HETATM   28  S   UNL     1       3.236  36.858  61.295  1.00  0.00    -0.061 SA
HETATM   29  N   UNL     1       4.496  34.675  61.735  1.00  0.00    -0.223 NA
HETATM   30  C   UNL     1       3.996  36.665  62.819  1.00  0.00     0.085 A 
HETATM   31  C   UNL     1       4.618  35.435  62.888  1.00  0.00     0.076 A 
HETATM   32  H   UNL     1       2.820  35.396  59.045  1.00  0.00     0.168 HD
BRANCH  31  33
HETATM   33  C   UNL     1       5.343  34.915  64.050  1.00  0.00    -0.007 A 
HETATM   34  C   UNL     1       4.893  35.090  65.366  1.00  0.00     0.014 A 
HETATM   35  C   UNL     1       5.616  34.567  66.445  1.00  0.00     0.001 A 
HETATM   36  C   UNL     1       6.798  33.865  66.223  1.00  0.00     0.000 A 
HETATM   37  C   UNL     1       7.260  33.684  64.923  1.00  0.00     0.001 A 
HETATM   38  C   UNL     1       6.539  34.205  63.847  1.00  0.00     0.014 A 
ENDBRANCH  31  33
ENDBRANCH   4  26
TORSDOF 9
ENDMDL
MODEL 6
REMARK VINA RESULT:      -9.1      1.629      2.218
REMARK  9 active torsions:
REMARK  status: ('A' for Active; 'I' for Inactive)
REMARK    1  A    between atoms: C_2  and  N_3 
REMARK    2  A    between atoms: N_3  and  C_4 
REMARK    3  A    between atoms: N_3  and  C_34 
REMARK    4  A    between atoms: C_6  and  O_7 
REMARK    5  A    between atoms: C_8  and  C_9 
REMARK    6  A    between atoms: N_10  and  N_11 
REMARK       I    between atoms: N_11  and  C_12 
REMARK    7  A    between atoms: C_12  and  C_13 
REMARK    8  A    between atoms: C_16  and  N_17 
REMARK    9  A    between atoms: C_21  and  C_22 
ROOT
HETATM    1  C   UNL     1       7.493  29.395  57.307  1.00  0.00     0.033 A 
HETATM    2  C   UNL     1       8.585  28.683  56.800  1.00  0.00     0.019 A 
HETATM    3  C   UNL     1       8.480  28.016  55.572  1.00  0.00     0.030 A 
HETATM    4  C   UNL     1       7.289  28.035  54.826  1.00  0.00     0.034 A 
HETATM    5  C   UNL     1       6.199  28.732  55.362  1.00  0.00     0.030 A 
HETATM    6  C   UNL     1       6.297  29.407  56.584  1.00  0.00     0.019 A 
ENDROOT
BRANCH   1   7
HETATM    7  C   UNL     1       7.539  30.112  58.614  1.00  0.00     0.271 C 
HETATM    8  N   UNL     1       6.470  30.969  58.859  1.00  0.00    -0.243 N 
HETATM    9  H   UNL     1       5.617  30.817  58.330  1.00  0.00     0.192 HD
HETATM   10  O   UNL     1       8.468  29.879  59.382  1.00  0.00    -0.266 OA
BRANCH   8  11
HETATM   11  N   UNL     1       6.253  31.636  60.037  1.00  0.00    -0.183 NA
HETATM   12  C   UNL     1       5.836  32.865  59.970  1.00  0.00     0.153 C 
BRANCH  12  13
HETATM   13  C   UNL     1       5.636  33.679  61.188  1.00  0.00     0.016 A 
HETATM   14  C   UNL     1       6.558  33.643  62.228  1.00  0.00     0.079 A 
HETATM   15  C   UNL     1       6.354  34.408  63.387  1.00  0.00     0.066 A 
HETATM   16  C   UNL     1       5.222  35.230  63.558  1.00  0.00     0.032 A 
HETATM   17  C   UNL     1       4.314  35.243  62.483  1.00  0.00     0.030 A 
HETATM   18  C   UNL     1       4.509  34.486  61.318  1.00  0.00     0.018 A 
BRANCH  14  19
HETATM   19  O   UNL     1       7.675  32.859  62.125  1.00  0.00    -0.360 OA
HETATM   20  H   UNL     1       8.463  33.426  62.095  1.00  0.00     0.217 HD
ENDBRANCH  14  19
BRANCH  16  21
HETATM   21  N   UNL     1       5.017  35.983  64.711  1.00  0.00    -0.382 N 
BRANCH  21  22
HETATM   22  C   UNL     1       4.917  37.450  64.677  1.00  0.00     0.118 C 
HETATM   23  C   UNL     1       6.025  38.049  63.823  1.00  0.00     0.026 C 
ENDBRANCH  21  22
BRANCH  21  24
HETATM   24  C   UNL     1       4.824  35.366  66.031  1.00  0.00     0.118 C 
HETATM   25  C   UNL     1       3.371  35.479  66.472  1.00  0.00     0.026 C 
ENDBRANCH  21  24
ENDBRANCH  16  21
ENDBRANCH  12  13
ENDBRANCH   8  11
ENDBRANCH   1   7
BRANCH   4  26
HETATM   26  N   UNL     1       7.232  27.299  53.630  1.00  0.00    -0.335 N 
HETATM   27  C   UNL     1       7.313  25.957  53.461  1.00  0.00     0.171 A 
HETATM   28  S   UNL     1       7.080  25.298  51.881  1.00  0.00    -0.061 SA
HETATM   29  N   UNL     1       7.591  25.057  54.376  1.00  0.00    -0.223 NA
HETATM   30  C   UNL     1       7.371  23.723  52.490  1.00  0.00     0.085 A 
HETATM   31  C   UNL     1       7.635  23.777  53.843  1.00  0.00     0.076 A 
HETATM   32  H   UNL     1       7.105  27.855  52.795  1.00  0.00     0.168 HD
BRANCH  31  33
HETATM   33  C   UNL     1       7.956  22.628  54.692  1.00  0.00    -0.007 A 
HETATM   34  C   UNL     1       8.109  22.731  56.083  1.00  0.00     0.014 A 
HETATM   35  C   UNL     1       8.407  21.602  56.855  1.00  0.00     0.001 A 
HETATM   36  C   UNL     1       8.557  20.357  56.249  1.00  0.00     0.000 A 
HETATM   37  C   UNL     1       8.410  20.237  54.870  1.00  0.00     0.001 A 
HETATM   38  C   UNL     1       8.113  21.363  54.100  1.00  0.00     0.014 A 
ENDBRANCH  31  33
ENDBRANCH   4  26
TORSDOF 9
ENDMDL
MODEL 7
REMARK VINA RESULT:      -8.8      8.226     14.111
REMARK  9 active torsions:
REMARK  status: ('A' for Active; 'I' for Inactive)
REMARK    1  A    between atoms: C_2  and  N_3 
REMARK    2  A    between atoms: N_3  and  C_4 
REMARK    3  A    between atoms: N_3  and  C_34 
REMARK    4  A    between atoms: C_6  and  O_7 
REMARK    5  A    between atoms: C_8  and  C_9 
REMARK    6  A    between atoms: N_10  and  N_11 
REMARK       I    between atoms: N_11  and  C_12 
REMARK    7  A    between atoms: C_12  and  C_13 
REMARK    8  A    between atoms: C_16  and  N_17 
REMARK    9  A    between atoms: C_21  and  C_22 
ROOT
HETATM    1  C   UNL     1       4.368  28.665  52.091  1.00  0.00     0.033 A 
HETATM    2  C   UNL     1       5.755  28.476  52.097  1.00  0.00     0.019 A 
HETATM    3  C   UNL     1       6.401  28.061  53.269  1.00  0.00     0.030 A 
HETATM    4  C   UNL     1       5.689  27.833  54.460  1.00  0.00     0.034 A 
HETATM    5  C   UNL     1       4.307  28.053  54.440  1.00  0.00     0.030 A 
HETATM    6  C   UNL     1       3.651  28.460  53.272  1.00  0.00     0.019 A 
ENDROOT
BRANCH   1   7
HETATM    7  C   UNL     1       3.626  29.119  50.879  1.00  0.00     0.271 C 
HETATM    8  N   UNL     1       2.520  28.347  50.538  1.00  0.00    -0.243 N 
HETATM    9  H   UNL     1       2.112  27.766  51.262  1.00  0.00     0.192 HD
HETATM   10  O   UNL     1       4.005  30.134  50.301  1.00  0.00    -0.266 OA
BRANCH   8  11
HETATM   11  N   UNL     1       1.634  28.646  49.535  1.00  0.00    -0.183 NA
HETATM   12  C   UNL     1       1.830  28.106  48.370  1.00  0.00     0.153 C 
BRANCH  12  13
HETATM   13  C   UNL     1       0.961  28.421  47.216  1.00  0.00     0.016 A 
HETATM   14  C   UNL     1       0.839  29.727  46.754  1.00  0.00     0.079 A 
HETATM   15  C   UNL     1       0.001  30.021  45.667  1.00  0.00     0.066 A 
HETATM   16  C   UNL     1      -0.753  29.030  45.006  1.00  0.00     0.032 A 
HETATM   17  C   UNL     1      -0.600  27.721  45.501  1.00  0.00     0.030 A 
HETATM   18  C   UNL     1       0.238  27.414  46.583  1.00  0.00     0.018 A 
BRANCH  14  19
HETATM   19  O   UNL     1       1.539  30.736  47.356  1.00  0.00    -0.360 OA
HETATM   20  H   UNL     1       1.663  30.524  48.296  1.00  0.00     0.217 HD
ENDBRANCH  14  19
BRANCH  16  21
HETATM   21  N   UNL     1      -1.589  29.324  43.932  1.00  0.00    -0.382 N 
BRANCH  21  22
HETATM   22  C   UNL     1      -2.338  30.587  43.848  1.00  0.00     0.118 C 
HETATM   23  C   UNL     1      -3.574  30.543  44.734  1.00  0.00     0.026 C 
ENDBRANCH  21  22
BRANCH  21  24
HETATM   24  C   UNL     1      -1.735  28.425  42.778  1.00  0.00     0.118 C 
HETATM   25  C   UNL     1      -1.128  29.048  41.529  1.00  0.00     0.026 C 
ENDBRANCH  21  24
ENDBRANCH  16  21
ENDBRANCH  12  13
ENDBRANCH   8  11
ENDBRANCH   1   7
BRANCH   4  26
HETATM   26  N   UNL     1       6.406  27.475  55.614  1.00  0.00    -0.335 N 
HETATM   27  C   UNL     1       7.052  26.314  55.880  1.00  0.00     0.171 A 
HETATM   28  S   UNL     1       7.973  26.184  57.336  1.00  0.00    -0.061 SA
HETATM   29  N   UNL     1       7.041  25.217  55.158  1.00  0.00    -0.223 NA
HETATM   30  C   UNL     1       8.365  24.561  56.948  1.00  0.00     0.085 A 
HETATM   31  C   UNL     1       7.778  24.203  55.752  1.00  0.00     0.076 A 
HETATM   32  H   UNL     1       6.443  28.189  56.329  1.00  0.00     0.168 HD
BRANCH  31  33
HETATM   33  C   UNL     1       7.873  22.884  55.122  1.00  0.00    -0.007 A 
HETATM   34  C   UNL     1       7.947  21.694  55.860  1.00  0.00     0.014 A 
HETATM   35  C   UNL     1       8.028  20.455  55.214  1.00  0.00     0.001 A 
HETATM   36  C   UNL     1       8.037  20.389  53.823  1.00  0.00     0.000 A 
HETATM   37  C   UNL     1       7.965  21.560  53.075  1.00  0.00     0.001 A 
HETATM   38  C   UNL     1       7.884  22.796  53.720  1.00  0.00     0.014 A 
ENDBRANCH  31  33
ENDBRANCH   4  26
TORSDOF 9
ENDMDL
MODEL 8
REMARK VINA RESULT:      -8.2      9.642     15.634
REMARK  9 active torsions:
REMARK  status: ('A' for Active; 'I' for Inactive)
REMARK    1  A    between atoms: C_2  and  N_3 
REMARK    2  A    between atoms: N_3  and  C_4 
REMARK    3  A    between atoms: N_3  and  C_34 
REMARK    4  A    between atoms: C_6  and  O_7 
REMARK    5  A    between atoms: C_8  and  C_9 
REMARK    6  A    between atoms: N_10  and  N_11 
REMARK       I    between atoms: N_11  and  C_12 
REMARK    7  A    between atoms: C_12  and  C_13 
REMARK    8  A    between atoms: C_16  and  N_17 
REMARK    9  A    between atoms: C_21  and  C_22 
ROOT
HETATM    1  C   UNL     1       4.070  27.364  49.518  1.00  0.00     0.033 A 
HETATM    2  C   UNL     1       3.813  28.412  50.410  1.00  0.00     0.019 A 
HETATM    3  C   UNL     1       4.359  28.385  51.700  1.00  0.00     0.030 A 
HETATM    4  C   UNL     1       5.162  27.318  52.136  1.00  0.00     0.034 A 
HETATM    5  C   UNL     1       5.387  26.267  51.238  1.00  0.00     0.030 A 
HETATM    6  C   UNL     1       4.853  26.288  49.945  1.00  0.00     0.019 A 
ENDROOT
BRANCH   1   7
HETATM    7  C   UNL     1       3.507  27.329  48.138  1.00  0.00     0.271 C 
HETATM    8  N   UNL     1       2.333  28.054  47.958  1.00  0.00    -0.243 N 
HETATM    9  H   UNL     1       2.124  28.783  48.632  1.00  0.00     0.192 HD
HETATM   10  O   UNL     1       4.116  26.713  47.268  1.00  0.00    -0.266 OA
BRANCH   8  11
HETATM   11  N   UNL     1       1.709  28.252  46.752  1.00  0.00    -0.183 NA
HETATM   12  C   UNL     1       0.613  28.948  46.743  1.00  0.00     0.153 C 
BRANCH  12  13
HETATM   13  C   UNL     1      -0.158  29.158  45.499  1.00  0.00     0.016 A 
HETATM   14  C   UNL     1      -0.556  28.078  44.718  1.00  0.00     0.079 A 
HETATM   15  C   UNL     1      -1.275  28.286  43.531  1.00  0.00     0.066 A 
HETATM   16  C   UNL     1      -1.617  29.574  43.072  1.00  0.00     0.032 A 
HETATM   17  C   UNL     1      -1.199  30.640  43.890  1.00  0.00     0.030 A 
HETATM   18  C   UNL     1      -0.484  30.445  45.081  1.00  0.00     0.018 A 
BRANCH  14  19
HETATM   19  O   UNL     1      -0.250  26.802  45.106  1.00  0.00    -0.360 OA
HETATM   20  H   UNL     1      -1.047  26.250  45.051  1.00  0.00     0.217 HD
ENDBRANCH  14  19
BRANCH  16  21
HETATM   21  N   UNL     1      -2.324  29.779  41.890  1.00  0.00    -0.382 N 
BRANCH  21  22
HETATM   22  C   UNL     1      -3.664  30.387  41.878  1.00  0.00     0.118 C 
HETATM   23  C   UNL     1      -4.745  29.315  41.878  1.00  0.00     0.026 C 
ENDBRANCH  21  22
BRANCH  21  24
HETATM   24  C   UNL     1      -1.761  29.464  40.569  1.00  0.00     0.118 C 
HETATM   25  C   UNL     1      -0.499  30.275  40.313  1.00  0.00     0.026 C 
ENDBRANCH  21  24
ENDBRANCH  16  21
ENDBRANCH  12  13
ENDBRANCH   8  11
ENDBRANCH   1   7
BRANCH   4  26
HETATM   26  N   UNL     1       5.630  27.325  53.461  1.00  0.00    -0.335 N 
HETATM   27  C   UNL     1       6.291  26.349  54.129  1.00  0.00     0.171 A 
HETATM   28  S   UNL     1       6.872  26.672  55.724  1.00  0.00    -0.061 SA
HETATM   29  N   UNL     1       6.529  25.126  53.714  1.00  0.00    -0.223 NA
HETATM   30  C   UNL     1       7.470  25.070  55.835  1.00  0.00     0.085 A 
HETATM   31  C   UNL     1       7.194  24.377  54.674  1.00  0.00     0.076 A 
HETATM   32  H   UNL     1       5.450  28.181  53.970  1.00  0.00     0.168 HD
BRANCH  31  33
HETATM   33  C   UNL     1       7.532  22.975  54.422  1.00  0.00    -0.007 A 
HETATM   34  C   UNL     1       7.619  22.019  55.445  1.00  0.00     0.014 A 
HETATM   35  C   UNL     1       7.937  20.688  55.156  1.00  0.00     0.001 A 
HETATM   36  C   UNL     1       8.174  20.293  53.841  1.00  0.00     0.000 A 
HETATM   37  C   UNL     1       8.094  21.228  52.813  1.00  0.00     0.001 A 
HETATM   38  C   UNL     1       7.776  22.557  53.103  1.00  0.00     0.014 A 
ENDBRANCH  31  33
ENDBRANCH   4  26
TORSDOF 9
ENDMDL
MODEL 9
REMARK VINA RESULT:      -8.2      4.988     13.057
REMARK  9 active torsions:
REMARK  status: ('A' for Active; 'I' for Inactive)
REMARK    1  A    between atoms: C_2  and  N_3 
REMARK    2  A    between atoms: N_3  and  C_4 
REMARK    3  A    between atoms: N_3  and  C_34 
REMARK    4  A    between atoms: C_6  and  O_7 
REMARK    5  A    between atoms: C_8  and  C_9 
REMARK    6  A    between atoms: N_10  and  N_11 
REMARK       I    between atoms: N_11  and  C_12 
REMARK    7  A    between atoms: C_12  and  C_13 
REMARK    8  A    between atoms: C_16  and  N_17 
REMARK    9  A    between atoms: C_21  and  C_22 
ROOT
HETATM    1  C   UNL     1       7.049  31.240  59.222  1.00  0.00     0.033 A 
HETATM    2  C   UNL     1       5.778  31.776  58.985  1.00  0.00     0.019 A 
HETATM    3  C   UNL     1       5.270  32.774  59.828  1.00  0.00     0.030 A 
HETATM    4  C   UNL     1       6.006  33.255  60.925  1.00  0.00     0.034 A 
HETATM    5  C   UNL     1       7.264  32.689  61.159  1.00  0.00     0.030 A 
HETATM    6  C   UNL     1       7.784  31.696  60.320  1.00  0.00     0.019 A 
ENDROOT
BRANCH   1   7
HETATM    7  C   UNL     1       7.638  30.167  58.371  1.00  0.00     0.271 C 
HETATM    8  N   UNL     1       6.810  29.073  58.138  1.00  0.00    -0.243 N 
HETATM    9  H   UNL     1       5.813  29.204  58.268  1.00  0.00     0.192 HD
HETATM   10  O   UNL     1       8.766  30.329  57.913  1.00  0.00    -0.266 OA
BRANCH   8  11
HETATM   11  N   UNL     1       7.104  28.031  57.295  1.00  0.00    -0.183 NA
HETATM   12  C   UNL     1       6.998  26.824  57.763  1.00  0.00     0.153 C 
BRANCH  12  13
HETATM   13  C   UNL     1       7.354  25.645  56.945  1.00  0.00     0.016 A 
HETATM   14  C   UNL     1       6.502  25.190  55.944  1.00  0.00     0.079 A 
HETATM   15  C   UNL     1       6.841  24.062  55.181  1.00  0.00     0.066 A 
HETATM   16  C   UNL     1       8.032  23.339  55.391  1.00  0.00     0.032 A 
HETATM   17  C   UNL     1       8.869  23.832  56.410  1.00  0.00     0.030 A 
HETATM   18  C   UNL     1       8.544  24.961  57.176  1.00  0.00     0.018 A 
BRANCH  14  19
HETATM   19  O   UNL     1       5.327  25.844  55.695  1.00  0.00    -0.360 OA
HETATM   20  H   UNL     1       4.651  25.541  56.323  1.00  0.00     0.217 HD
ENDBRANCH  14  19
BRANCH  16  21
HETATM   21  N   UNL     1       8.364  22.216  54.638  1.00  0.00    -0.382 N 
BRANCH  21  22
HETATM   22  C   UNL     1       9.049  21.055  55.227  1.00  0.00     0.118 C 
HETATM   23  C   UNL     1       8.158  20.361  56.247  1.00  0.00     0.026 C 
ENDBRANCH  21  22
BRANCH  21  24
HETATM   24  C   UNL     1       7.998  22.081  53.220  1.00  0.00     0.118 C 
HETATM   25  C   UNL     1       8.139  20.637  52.761  1.00  0.00     0.026 C 
ENDBRANCH  21  24
ENDBRANCH  16  21
ENDBRANCH  12  13
ENDBRANCH   8  11
ENDBRANCH   1   7
BRANCH   4  26
HETATM   26  N   UNL     1       5.414  34.216  61.763  1.00  0.00    -0.335 N 
HETATM   27  C   UNL     1       4.639  35.273  61.420  1.00  0.00     0.171 A 
HETATM   28  S   UNL     1       3.926  36.228  62.671  1.00  0.00    -0.061 SA
HETATM   29  N   UNL     1       4.376  35.703  60.207  1.00  0.00    -0.223 NA
HETATM   30  C   UNL     1       3.234  37.262  61.492  1.00  0.00     0.085 A 
HETATM   31  C   UNL     1       3.582  36.840  60.225  1.00  0.00     0.076 A 
HETATM   32  H   UNL     1       5.590  34.084  62.750  1.00  0.00     0.168 HD
BRANCH  31  33
HETATM   33  C   UNL     1       3.194  37.498  58.975  1.00  0.00    -0.007 A 
HETATM   34  C   UNL     1       2.815  38.847  58.914  1.00  0.00     0.014 A 
HETATM   35  C   UNL     1       2.460  39.435  57.695  1.00  0.00     0.001 A 
HETATM   36  C   UNL     1       2.478  38.684  56.522  1.00  0.00     0.000 A 
HETATM   37  C   UNL     1       2.850  37.343  56.565  1.00  0.00     0.001 A 
HETATM   38  C   UNL     1       3.205  36.757  57.782  1.00  0.00     0.014 A 
ENDBRANCH  31  33
ENDBRANCH   4  26
TORSDOF 9
ENDMDL
MODEL 10
REMARK VINA RESULT:      -8.1      8.736     14.338
REMARK  9 active torsions:
REMARK  status: ('A' for Active; 'I' for Inactive)
REMARK    1  A    between atoms: C_2  and  N_3 
REMARK    2  A    between atoms: N_3  and  C_4 
REMARK    3  A    between atoms: N_3  and  C_34 
REMARK    4  A    between atoms: C_6  and  O_7 
REMARK    5  A    between atoms: C_8  and  C_9 
REMARK    6  A    between atoms: N_10  and  N_11 
REMARK       I    between atoms: N_11  and  C_12 
REMARK    7  A    between atoms: C_12  and  C_13 
REMARK    8  A    between atoms: C_16  and  N_17 
REMARK    9  A    between atoms: C_21  and  C_22 
ROOT
HETATM    1  C   UNL     1       5.003  27.510  51.038  1.00  0.00     0.033 A 
HETATM    2  C   UNL     1       4.934  26.285  51.711  1.00  0.00     0.019 A 
HETATM    3  C   UNL     1       5.443  26.170  53.012  1.00  0.00     0.030 A 
HETATM    4  C   UNL     1       6.038  27.261  53.668  1.00  0.00     0.034 A 
HETATM    5  C   UNL     1       6.120  28.471  52.968  1.00  0.00     0.030 A 
HETATM    6  C   UNL     1       5.607  28.598  51.672  1.00  0.00     0.019 A 
ENDROOT
BRANCH   1   7
HETATM    7  C   UNL     1       4.491  27.691  49.649  1.00  0.00     0.271 C 
HETATM    8  N   UNL     1       3.107  27.645  49.516  1.00  0.00    -0.243 N 
HETATM    9  H   UNL     1       2.550  27.815  50.347  1.00  0.00     0.192 HD
HETATM   10  O   UNL     1       5.297  27.900  48.746  1.00  0.00    -0.266 OA
BRANCH   8  11
HETATM   11  N   UNL     1       2.421  27.900  48.356  1.00  0.00    -0.183 NA
HETATM   12  C   UNL     1       1.785  29.029  48.263  1.00  0.00     0.153 C 
BRANCH  12  13
HETATM   13  C   UNL     1       0.969  29.359  47.075  1.00  0.00     0.016 A 
HETATM   14  C   UNL     1       0.108  28.419  46.519  1.00  0.00     0.079 A 
HETATM   15  C   UNL     1      -0.652  28.736  45.383  1.00  0.00     0.066 A 
HETATM   16  C   UNL     1      -0.578  29.994  44.752  1.00  0.00     0.032 A 
HETATM   17  C   UNL     1       0.301  30.919  45.345  1.00  0.00     0.030 A 
HETATM   18  C   UNL     1       1.063  30.616  46.484  1.00  0.00     0.018 A 
BRANCH  14  19
HETATM   19  O   UNL     1      -0.005  27.177  47.081  1.00  0.00    -0.360 OA
HETATM   20  H   UNL     1      -0.196  27.269  48.028  1.00  0.00     0.217 HD
ENDBRANCH  14  19
BRANCH  16  21
HETATM   21  N   UNL     1      -1.328  30.304  43.621  1.00  0.00    -0.382 N 
BRANCH  21  22
HETATM   22  C   UNL     1      -0.815  31.187  42.562  1.00  0.00     0.118 C 
HETATM   23  C   UNL     1      -0.436  30.385  41.325  1.00  0.00     0.026 C 
ENDBRANCH  21  22
BRANCH  21  24
HETATM   24  C   UNL     1      -2.656  29.725  43.372  1.00  0.00     0.118 C 
HETATM   25  C   UNL     1      -3.688  30.819  43.139  1.00  0.00     0.026 C 
ENDBRANCH  21  24
ENDBRANCH  16  21
ENDBRANCH  12  13
ENDBRANCH   8  11
ENDBRANCH   1   7
BRANCH   4  26
HETATM   26  N   UNL     1       6.580  27.063  54.949  1.00  0.00    -0.335 N 
HETATM   27  C   UNL     1       7.225  25.974  55.433  1.00  0.00     0.171 A 
HETATM   28  S   UNL     1       7.913  26.044  57.017  1.00  0.00    -0.061 SA
HETATM   29  N   UNL     1       7.373  24.811  54.841  1.00  0.00    -0.223 NA
HETATM   30  C   UNL     1       8.430  24.417  56.869  1.00  0.00     0.085 A 
HETATM   31  C   UNL     1       8.051  23.907  55.645  1.00  0.00     0.076 A 
HETATM   32  H   UNL     1       6.476  27.846  55.580  1.00  0.00     0.168 HD
BRANCH  31  33
HETATM   33  C   UNL     1       8.299  22.539  55.182  1.00  0.00    -0.007 A 
HETATM   34  C   UNL     1       8.327  22.191  53.824  1.00  0.00     0.014 A 
HETATM   35  C   UNL     1       8.576  20.872  53.428  1.00  0.00     0.001 A 
HETATM   36  C   UNL     1       8.799  19.883  54.384  1.00  0.00     0.000 A 
HETATM   37  C   UNL     1       8.773  20.211  55.736  1.00  0.00     0.001 A 
HETATM   38  C   UNL     1       8.525  21.527  56.130  1.00  0.00     0.014 A 
ENDBRANCH  31  33
ENDBRANCH   4  26
TORSDOF 9
ENDMDL
