MODEL 1
REMARK VINA RESULT:     -10.2      0.000      0.000
REMARK  5 active torsions:
REMARK  status: ('A' for Active; 'I' for Inactive)
REMARK    1  A    between atoms: C_9  and  N_10 
REMARK       I    between atoms: N_10  and  C_11 
REMARK    2  A    between atoms: C_11  and  C_12 
REMARK    3  A    between atoms: C_16  and  C_17 
REMARK    4  A    between atoms: C_17  and  O_18 
REMARK    5  A    between atoms: O_18  and  C_19 
ROOT
HETATM    1  C   UNL     1       8.081  24.945  56.086  1.00  0.00     0.153 A 
HETATM    2  O   UNL     1       8.987  23.918  56.144  1.00  0.00    -0.304 OA
HETATM    3  C   UNL     1       8.695  23.062  55.129  1.00  0.00     0.087 A 
HETATM    4  C   UNL     1       7.614  23.532  54.395  1.00  0.00     0.009 A 
HETATM    5  C   UNL     1       7.217  24.758  55.015  1.00  0.00     0.018 A 
HETATM    6  C   UNL     1       9.376  21.878  54.855  1.00  0.00     0.038 A 
HETATM    7  C   UNL     1       8.921  21.135  53.762  1.00  0.00     0.003 A 
HETATM    8  C   UNL     1       7.841  21.573  52.992  1.00  0.00     0.001 A 
HETATM    9  C   UNL     1       7.178  22.771  53.293  1.00  0.00     0.015 A 
ENDROOT
BRANCH   1  10
HETATM   10  C   UNL     1       8.159  25.988  57.096  1.00  0.00     0.280 C 
HETATM   11  N   UNL     1       8.483  27.223  56.556  1.00  0.00    -0.321 N 
HETATM   12  H   UNL     1       8.577  27.223  55.545  1.00  0.00     0.169 HD
HETATM   13  O   UNL     1       7.968  25.774  58.289  1.00  0.00    -0.265 OA
BRANCH  11  14
HETATM   14  C   UNL     1       8.702  28.438  57.229  1.00  0.00     0.035 A 
HETATM   15  C   UNL     1       7.746  29.054  58.041  1.00  0.00     0.039 A 
HETATM   16  C   UNL     1       8.079  30.235  58.691  1.00  0.00    -0.022 A 
HETATM   17  C   UNL     1       7.238  31.020  59.636  1.00  0.00     0.274 C 
HETATM   18  C   UNL     1       9.338  30.816  58.543  1.00  0.00    -0.025 A 
HETATM   19  N   UNL     1       8.053  32.274  59.943  1.00  0.00    -0.067 N 
HETATM   20  C   UNL     1       8.032  32.674  61.376  1.00  0.00     0.270 C 
HETATM   21  H   UNL     1       7.636  33.025  59.383  1.00  0.00     0.280 HD
HETATM   22  C   UNL     1       9.451  32.043  59.378  1.00  0.00     0.273 C 
HETATM   23  C   UNL     1      10.295  30.228  57.735  1.00  0.00     0.012 A 
HETATM   24  C   UNL     1       9.970  29.034  57.081  1.00  0.00     0.030 A 
ENDBRANCH  11  14
ENDBRANCH   1  10
BRANCH   5  25
HETATM   25  C   UNL     1       6.115  25.670  54.586  1.00  0.00     0.218 C 
BRANCH  25  26
HETATM   26  O   UNL     1       6.662  26.802  53.909  1.00  0.00    -0.347 OA
BRANCH  26  27
HETATM   27  C   UNL     1       6.118  27.134  52.700  1.00  0.00     0.069 A 
HETATM   28  C   UNL     1       5.802  26.042  51.887  1.00  0.00     0.037 A 
HETATM   29  C   UNL     1       5.233  26.233  50.626  1.00  0.00     0.003 A 
HETATM   30  C   UNL     1       4.976  27.522  50.171  1.00  0.00     0.000 A 
HETATM   31  C   UNL     1       5.290  28.617  50.975  1.00  0.00     0.003 A 
HETATM   32  C   UNL     1       5.861  28.425  52.237  1.00  0.00     0.037 A 
ENDBRANCH  26  27
ENDBRANCH  25  26
ENDBRANCH   5  25
TORSDOF 5
ENDMDL
MODEL 2
REMARK VINA RESULT:     -10.0      1.956      2.527
REMARK  5 active torsions:
REMARK  status: ('A' for Active; 'I' for Inactive)
REMARK    1  A    between atoms: C_9  and  N_10 
REMARK       I    between atoms: N_10  and  C_11 
REMARK    2  A    between atoms: C_11  and  C_12 
REMARK    3  A    between atoms: C_16  and  C_17 
REMARK    4  A    between atoms: C_17  and  O_18 
REMARK    5  A    between atoms: O_18  and  C_19 
ROOT
HETATM    1  C   UNL     1       6.947  24.092  55.273  1.00  0.00     0.153 A 
HETATM    2  O   UNL     1       7.332  23.054  56.081  1.00  0.00    -0.304 OA
HETATM    3  C   UNL     1       7.790  22.059  55.275  1.00  0.00     0.087 A 
HETATM    4  C   UNL     1       7.725  22.449  53.943  1.00  0.00     0.009 A 
HETATM    5  C   UNL     1       7.180  23.771  53.942  1.00  0.00     0.018 A 
HETATM    6  C   UNL     1       8.260  20.823  55.710  1.00  0.00     0.038 A 
HETATM    7  C   UNL     1       8.690  19.935  54.721  1.00  0.00     0.003 A 
HETATM    8  C   UNL     1       8.649  20.286  53.369  1.00  0.00     0.001 A 
HETATM    9  C   UNL     1       8.172  21.541  52.963  1.00  0.00     0.015 A 
ENDROOT
BRANCH   1  10
HETATM   10  C   UNL     1       6.382  25.277  55.899  1.00  0.00     0.280 C 
HETATM   11  N   UNL     1       7.248  26.359  55.857  1.00  0.00    -0.321 N 
HETATM   12  H   UNL     1       8.118  26.176  55.367  1.00  0.00     0.169 HD
HETATM   13  O   UNL     1       5.268  25.291  56.411  1.00  0.00    -0.265 OA
BRANCH  11  14
HETATM   14  C   UNL     1       7.069  27.639  56.409  1.00  0.00     0.035 A 
HETATM   15  C   UNL     1       6.198  28.594  55.878  1.00  0.00     0.039 A 
HETATM   16  C   UNL     1       6.068  29.816  56.525  1.00  0.00    -0.022 A 
HETATM   17  C   UNL     1       5.165  30.943  56.164  1.00  0.00     0.274 C 
HETATM   18  C   UNL     1       6.792  30.108  57.680  1.00  0.00    -0.025 A 
HETATM   19  N   UNL     1       5.526  32.066  57.134  1.00  0.00    -0.067 N 
HETATM   20  C   UNL     1       4.350  32.795  57.682  1.00  0.00     0.270 C 
HETATM   21  H   UNL     1       6.105  32.724  56.601  1.00  0.00     0.280 HD
HETATM   22  C   UNL     1       6.437  31.458  58.196  1.00  0.00     0.273 C 
HETATM   23  C   UNL     1       7.668  29.181  58.216  1.00  0.00     0.012 A 
HETATM   24  C   UNL     1       7.801  27.943  57.575  1.00  0.00     0.030 A 
ENDBRANCH  11  14
ENDBRANCH   1  10
BRANCH   5  25
HETATM   25  C   UNL     1       6.935  24.644  52.756  1.00  0.00     0.218 C 
BRANCH  25  26
HETATM   26  O   UNL     1       5.530  24.779  52.540  1.00  0.00    -0.347 OA
BRANCH  26  27
HETATM   27  C   UNL     1       5.082  25.977  52.058  1.00  0.00     0.069 A 
HETATM   28  C   UNL     1       4.579  26.843  53.033  1.00  0.00     0.037 A 
HETATM   29  C   UNL     1       4.093  28.105  52.684  1.00  0.00     0.003 A 
HETATM   30  C   UNL     1       4.109  28.509  51.352  1.00  0.00     0.000 A 
HETATM   31  C   UNL     1       4.606  27.650  50.373  1.00  0.00     0.003 A 
HETATM   32  C   UNL     1       5.092  26.385  50.723  1.00  0.00     0.037 A 
ENDBRANCH  26  27
ENDBRANCH  25  26
ENDBRANCH   5  25
TORSDOF 5
ENDMDL
MODEL 3
REMARK VINA RESULT:     -10.0      1.261      4.430
REMARK  5 active torsions:
REMARK  status: ('A' for Active; 'I' for Inactive)
REMARK    1  A    between atoms: C_9  and  N_10 
REMARK       I    between atoms: N_10  and  C_11 
REMARK    2  A    between atoms: C_11  and  C_12 
REMARK    3  A    between atoms: C_16  and  C_17 
REMARK    4  A    between atoms: C_17  and  O_18 
REMARK    5  A    between atoms: O_18  and  C_19 
ROOT
HETATM    1  C   UNL     1       6.382  27.307  54.920  1.00  0.00     0.153 A 
HETATM    2  O   UNL     1       6.234  28.242  53.928  1.00  0.00    -0.304 OA
HETATM    3  C   UNL     1       5.849  27.583  52.803  1.00  0.00     0.087 A 
HETATM    4  C   UNL     1       5.726  26.223  53.058  1.00  0.00     0.009 A 
HETATM    5  C   UNL     1       6.068  26.044  54.435  1.00  0.00     0.018 A 
HETATM    6  C   UNL     1       5.610  28.176  51.566  1.00  0.00     0.038 A 
HETATM    7  C   UNL     1       5.219  27.323  50.530  1.00  0.00     0.003 A 
HETATM    8  C   UNL     1       5.076  25.950  50.742  1.00  0.00     0.001 A 
HETATM    9  C   UNL     1       5.322  25.384  52.001  1.00  0.00     0.015 A 
ENDROOT
BRANCH   1  10
HETATM   10  C   UNL     1       6.826  27.758  56.229  1.00  0.00     0.280 C 
HETATM   11  N   UNL     1       7.246  29.079  56.217  1.00  0.00    -0.321 N 
HETATM   12  H   UNL     1       7.145  29.539  55.318  1.00  0.00     0.169 HD
HETATM   13  O   UNL     1       6.831  27.031  57.217  1.00  0.00    -0.265 OA
BRANCH  11  14
HETATM   14  C   UNL     1       7.791  29.830  57.274  1.00  0.00     0.035 A 
HETATM   15  C   UNL     1       7.017  30.503  58.223  1.00  0.00     0.039 A 
HETATM   16  C   UNL     1       7.657  31.184  59.249  1.00  0.00    -0.022 A 
HETATM   17  C   UNL     1       7.030  31.914  60.384  1.00  0.00     0.274 C 
HETATM   18  C   UNL     1       9.048  31.215  59.344  1.00  0.00    -0.025 A 
HETATM   19  N   UNL     1       8.194  32.567  61.127  1.00  0.00    -0.067 N 
HETATM   20  C   UNL     1       8.090  32.483  62.609  1.00  0.00     0.270 C 
HETATM   21  H   UNL     1       8.187  33.555  60.850  1.00  0.00     0.280 HD
HETATM   22  C   UNL     1       9.475  31.970  60.554  1.00  0.00     0.273 C 
HETATM   23  C   UNL     1       9.833  30.565  58.409  1.00  0.00     0.012 A 
HETATM   24  C   UNL     1       9.196  29.870  57.374  1.00  0.00     0.030 A 
ENDBRANCH  11  14
ENDBRANCH   1  10
BRANCH   5  25
HETATM   25  C   UNL     1       6.066  24.766  55.205  1.00  0.00     0.218 C 
BRANCH  25  26
HETATM   26  O   UNL     1       7.395  24.249  55.287  1.00  0.00    -0.347 OA
BRANCH  26  27
HETATM   27  C   UNL     1       7.635  23.040  54.697  1.00  0.00     0.069 A 
HETATM   28  C   UNL     1       7.677  21.960  55.583  1.00  0.00     0.037 A 
HETATM   29  C   UNL     1       7.907  20.664  55.117  1.00  0.00     0.003 A 
HETATM   30  C   UNL     1       8.096  20.440  53.757  1.00  0.00     0.000 A 
HETATM   31  C   UNL     1       8.058  21.512  52.867  1.00  0.00     0.003 A 
HETATM   32  C   UNL     1       7.829  22.811  53.334  1.00  0.00     0.037 A 
ENDBRANCH  26  27
ENDBRANCH  25  26
ENDBRANCH   5  25
TORSDOF 5
ENDMDL
MODEL 4
REMARK VINA RESULT:      -9.9      1.551      2.111
REMARK  5 active torsions:
REMARK  status: ('A' for Active; 'I' for Inactive)
REMARK    1  A    between atoms: C_9  and  N_10 
REMARK       I    between atoms: N_10  and  C_11 
REMARK    2  A    between atoms: C_11  and  C_12 
REMARK    3  A    between atoms: C_16  and  C_17 
REMARK    4  A    between atoms: C_17  and  O_18 
REMARK    5  A    between atoms: O_18  and  C_19 
ROOT
HETATM    1  C   UNL     1       6.904  24.408  55.287  1.00  0.00     0.153 A 
HETATM    2  O   UNL     1       7.257  23.300  56.014  1.00  0.00    -0.304 OA
HETATM    3  C   UNL     1       7.669  22.351  55.132  1.00  0.00     0.087 A 
HETATM    4  C   UNL     1       7.607  22.838  53.833  1.00  0.00     0.009 A 
HETATM    5  C   UNL     1       7.112  24.176  53.934  1.00  0.00     0.018 A 
HETATM    6  C   UNL     1       8.096  21.069  55.472  1.00  0.00     0.038 A 
HETATM    7  C   UNL     1       8.483  20.240  54.415  1.00  0.00     0.003 A 
HETATM    8  C   UNL     1       8.441  20.690  53.093  1.00  0.00     0.001 A 
HETATM    9  C   UNL     1       8.009  21.988  52.785  1.00  0.00     0.015 A 
ENDROOT
BRANCH   1  10
HETATM   10  C   UNL     1       6.392  25.564  56.004  1.00  0.00     0.280 C 
HETATM   11  N   UNL     1       7.299  26.612  56.034  1.00  0.00    -0.321 N 
HETATM   12  H   UNL     1       8.158  26.432  55.523  1.00  0.00     0.169 HD
HETATM   13  O   UNL     1       5.282  25.584  56.527  1.00  0.00    -0.265 OA
BRANCH  11  14
HETATM   14  C   UNL     1       7.175  27.854  56.680  1.00  0.00     0.035 A 
HETATM   15  C   UNL     1       7.885  28.200  57.833  1.00  0.00     0.039 A 
HETATM   16  C   UNL     1       7.715  29.469  58.370  1.00  0.00    -0.022 A 
HETATM   17  C   UNL     1       8.409  30.056  59.549  1.00  0.00     0.274 C 
HETATM   18  C   UNL     1       6.850  30.395  57.788  1.00  0.00    -0.025 A 
HETATM   19  N   UNL     1       7.751  31.419  59.756  1.00  0.00    -0.067 N 
HETATM   20  C   UNL     1       8.709  32.511  60.080  1.00  0.00     0.270 C 
HETATM   21  H   UNL     1       7.103  31.302  60.544  1.00  0.00     0.280 HD
HETATM   22  C   UNL     1       6.887  31.686  58.528  1.00  0.00     0.273 C 
HETATM   23  C   UNL     1       6.129  30.069  56.653  1.00  0.00     0.012 A 
HETATM   24  C   UNL     1       6.298  28.794  56.101  1.00  0.00     0.030 A 
ENDBRANCH  11  14
ENDBRANCH   1  10
BRANCH   5  25
HETATM   25  C   UNL     1       6.889  25.142  52.818  1.00  0.00     0.218 C 
BRANCH  25  26
HETATM   26  O   UNL     1       5.508  25.502  52.761  1.00  0.00    -0.347 OA
BRANCH  26  27
HETATM   27  C   UNL     1       5.212  26.829  52.628  1.00  0.00     0.069 A 
HETATM   28  C   UNL     1       4.171  27.277  53.448  1.00  0.00     0.037 A 
HETATM   29  C   UNL     1       3.766  28.613  53.421  1.00  0.00     0.003 A 
HETATM   30  C   UNL     1       4.404  29.512  52.572  1.00  0.00     0.000 A 
HETATM   31  C   UNL     1       5.440  29.074  51.749  1.00  0.00     0.003 A 
HETATM   32  C   UNL     1       5.845  27.735  51.776  1.00  0.00     0.037 A 
ENDBRANCH  26  27
ENDBRANCH  25  26
ENDBRANCH   5  25
TORSDOF 5
ENDMDL
MODEL 5
REMARK VINA RESULT:      -9.9      3.327      6.982
REMARK  5 active torsions:
REMARK  status: ('A' for Active; 'I' for Inactive)
REMARK    1  A    between atoms: C_9  and  N_10 
REMARK       I    between atoms: N_10  and  C_11 
REMARK    2  A    between atoms: C_11  and  C_12 
REMARK    3  A    between atoms: C_16  and  C_17 
REMARK    4  A    between atoms: C_17  and  O_18 
REMARK    5  A    between atoms: O_18  and  C_19 
ROOT
HETATM    1  C   UNL     1       7.731  23.865  53.648  1.00  0.00     0.153 A 
HETATM    2  O   UNL     1       7.951  22.629  53.096  1.00  0.00    -0.304 OA
HETATM    3  C   UNL     1       8.209  21.770  54.118  1.00  0.00     0.087 A 
HETATM    4  C   UNL     1       8.140  22.433  55.337  1.00  0.00     0.009 A 
HETATM    5  C   UNL     1       7.826  23.794  55.031  1.00  0.00     0.018 A 
HETATM    6  C   UNL     1       8.501  20.416  53.975  1.00  0.00     0.038 A 
HETATM    7  C   UNL     1       8.736  19.700  55.153  1.00  0.00     0.003 A 
HETATM    8  C   UNL     1       8.671  20.325  56.401  1.00  0.00     0.001 A 
HETATM    9  C   UNL     1       8.372  21.690  56.511  1.00  0.00     0.015 A 
ENDROOT
BRANCH   1  10
HETATM   10  C   UNL     1       7.463  24.979  52.751  1.00  0.00     0.280 C 
HETATM   11  N   UNL     1       6.111  25.265  52.654  1.00  0.00    -0.321 N 
HETATM   12  H   UNL     1       5.521  24.689  53.246  1.00  0.00     0.169 HD
HETATM   13  O   UNL     1       8.350  25.575  52.149  1.00  0.00    -0.265 OA
BRANCH  11  14
HETATM   14  C   UNL     1       5.480  26.227  51.846  1.00  0.00     0.035 A 
HETATM   15  C   UNL     1       5.231  26.047  50.482  1.00  0.00     0.039 A 
HETATM   16  C   UNL     1       4.566  27.046  49.784  1.00  0.00    -0.022 A 
HETATM   17  C   UNL     1       4.155  27.035  48.354  1.00  0.00     0.274 C 
HETATM   18  C   UNL     1       4.153  28.220  50.413  1.00  0.00    -0.025 A 
HETATM   19  N   UNL     1       3.578  28.425  48.097  1.00  0.00    -0.067 N 
HETATM   20  C   UNL     1       2.338  28.423  47.274  1.00  0.00     0.270 C 
HETATM   21  H   UNL     1       4.307  28.945  47.596  1.00  0.00     0.280 HD
HETATM   22  C   UNL     1       3.427  29.100  49.456  1.00  0.00     0.273 C 
HETATM   23  C   UNL     1       4.398  28.423  51.759  1.00  0.00     0.012 A 
HETATM   24  C   UNL     1       5.063  27.418  52.472  1.00  0.00     0.030 A 
ENDBRANCH  11  14
ENDBRANCH   1  10
BRANCH   5  25
HETATM   25  C   UNL     1       7.616  24.910  55.999  1.00  0.00     0.218 C 
BRANCH  25  26
HETATM   26  O   UNL     1       6.284  25.410  55.877  1.00  0.00    -0.347 OA
BRANCH  26  27
HETATM   27  C   UNL     1       6.116  26.766  55.918  1.00  0.00     0.069 A 
HETATM   28  C   UNL     1       7.249  27.502  55.558  1.00  0.00     0.037 A 
HETATM   29  C   UNL     1       7.219  28.898  55.549  1.00  0.00     0.003 A 
HETATM   30  C   UNL     1       6.050  29.568  55.900  1.00  0.00     0.000 A 
HETATM   31  C   UNL     1       4.917  28.841  56.262  1.00  0.00     0.003 A 
HETATM   32  C   UNL     1       4.948  27.443  56.273  1.00  0.00     0.037 A 
ENDBRANCH  26  27
ENDBRANCH  25  26
ENDBRANCH   5  25
TORSDOF 5
ENDMDL
MODEL 6
REMARK VINA RESULT:      -9.8      2.657      7.996
REMARK  5 active torsions:
REMARK  status: ('A' for Active; 'I' for Inactive)
REMARK    1  A    between atoms: C_9  and  N_10 
REMARK       I    between atoms: N_10  and  C_11 
REMARK    2  A    between atoms: C_11  and  C_12 
REMARK    3  A    between atoms: C_16  and  C_17 
REMARK    4  A    between atoms: C_17  and  O_18 
REMARK    5  A    between atoms: O_18  and  C_19 
ROOT
HETATM    1  C   UNL     1       8.153  29.954  58.852  1.00  0.00     0.153 A 
HETATM    2  O   UNL     1       8.885  29.965  60.011  1.00  0.00    -0.304 OA
HETATM    3  C   UNL     1       8.392  30.963  60.792  1.00  0.00     0.087 A 
HETATM    4  C   UNL     1       7.328  31.592  60.159  1.00  0.00     0.009 A 
HETATM    5  C   UNL     1       7.171  30.933  58.899  1.00  0.00     0.018 A 
HETATM    6  C   UNL     1       8.876  31.313  62.050  1.00  0.00     0.038 A 
HETATM    7  C   UNL     1       8.229  32.370  62.696  1.00  0.00     0.003 A 
HETATM    8  C   UNL     1       7.151  33.027  62.099  1.00  0.00     0.001 A 
HETATM    9  C   UNL     1       6.685  32.649  60.832  1.00  0.00     0.015 A 
ENDROOT
BRANCH   1  10
HETATM   10  C   UNL     1       8.510  28.988  57.824  1.00  0.00     0.280 C 
HETATM   11  N   UNL     1       7.651  27.901  57.801  1.00  0.00    -0.321 N 
HETATM   12  H   UNL     1       6.888  27.959  58.469  1.00  0.00     0.169 HD
HETATM   13  O   UNL     1       9.474  29.135  57.081  1.00  0.00    -0.265 OA
BRANCH  11  14
HETATM   14  C   UNL     1       7.719  26.754  56.990  1.00  0.00     0.035 A 
HETATM   15  C   UNL     1       8.113  25.498  57.460  1.00  0.00     0.039 A 
HETATM   16  C   UNL     1       8.108  24.422  56.582  1.00  0.00    -0.022 A 
HETATM   17  C   UNL     1       8.436  23.002  56.884  1.00  0.00     0.274 C 
HETATM   18  C   UNL     1       7.728  24.574  55.249  1.00  0.00    -0.025 A 
HETATM   19  N   UNL     1       8.386  22.289  55.535  1.00  0.00    -0.067 N 
HETATM   20  C   UNL     1       7.722  20.958  55.579  1.00  0.00     0.270 C 
HETATM   21  H   UNL     1       9.362  22.163  55.246  1.00  0.00     0.280 HD
HETATM   22  C   UNL     1       7.767  23.265  54.540  1.00  0.00     0.273 C 
HETATM   23  C   UNL     1       7.345  25.810  54.761  1.00  0.00     0.012 A 
HETATM   24  C   UNL     1       7.340  26.900  55.640  1.00  0.00     0.030 A 
ENDBRANCH  11  14
ENDBRANCH   1  10
BRANCH   5  25
HETATM   25  C   UNL     1       6.144  31.220  57.854  1.00  0.00     0.218 C 
BRANCH  25  26
HETATM   26  O   UNL     1       5.366  30.047  57.608  1.00  0.00    -0.347 OA
BRANCH  26  27
HETATM   27  C   UNL     1       4.827  29.903  56.361  1.00  0.00     0.069 A 
HETATM   28  C   UNL     1       4.695  31.095  55.643  1.00  0.00     0.037 A 
HETATM   29  C   UNL     1       4.165  31.095  54.351  1.00  0.00     0.003 A 
HETATM   30  C   UNL     1       3.763  29.897  53.768  1.00  0.00     0.000 A 
HETATM   31  C   UNL     1       3.889  28.704  54.478  1.00  0.00     0.003 A 
HETATM   32  C   UNL     1       4.419  28.704  55.772  1.00  0.00     0.037 A 
ENDBRANCH  26  27
ENDBRANCH  25  26
ENDBRANCH   5  25
TORSDOF 5
ENDMDL
MODEL 7
REMARK VINA RESULT:      -9.7      2.809      6.021
REMARK  5 active torsions:
REMARK  status: ('A' for Active; 'I' for Inactive)
REMARK    1  A    between atoms: C_9  and  N_10 
REMARK       I    between atoms: N_10  and  C_11 
REMARK    2  A    between atoms: C_11  and  C_12 
REMARK    3  A    between atoms: C_16  and  C_17 
REMARK    4  A    between atoms: C_17  and  O_18 
REMARK    5  A    between atoms: O_18  and  C_19 
ROOT
HETATM    1  C   UNL     1       7.537  24.370  53.947  1.00  0.00     0.153 A 
HETATM    2  O   UNL     1       7.558  23.403  52.976  1.00  0.00    -0.304 OA
HETATM    3  C   UNL     1       7.997  22.255  53.556  1.00  0.00     0.087 A 
HETATM    4  C   UNL     1       8.245  22.460  54.907  1.00  0.00     0.009 A 
HETATM    5  C   UNL     1       7.943  23.834  55.162  1.00  0.00     0.018 A 
HETATM    6  C   UNL     1       8.176  21.040  52.899  1.00  0.00     0.038 A 
HETATM    7  C   UNL     1       8.635  19.972  53.676  1.00  0.00     0.003 A 
HETATM    8  C   UNL     1       8.892  20.131  55.040  1.00  0.00     0.001 A 
HETATM    9  C   UNL     1       8.699  21.367  55.672  1.00  0.00     0.015 A 
ENDROOT
BRANCH   1  10
HETATM   10  C   UNL     1       7.132  25.715  53.569  1.00  0.00     0.280 C 
HETATM   11  N   UNL     1       5.830  25.760  53.096  1.00  0.00    -0.321 N 
HETATM   12  H   UNL     1       5.348  24.866  53.121  1.00  0.00     0.169 HD
HETATM   13  O   UNL     1       7.879  26.683  53.657  1.00  0.00    -0.265 OA
BRANCH  11  14
HETATM   14  C   UNL     1       5.125  26.865  52.589  1.00  0.00     0.035 A 
HETATM   15  C   UNL     1       4.598  27.880  53.392  1.00  0.00     0.039 A 
HETATM   16  C   UNL     1       3.951  28.948  52.785  1.00  0.00    -0.022 A 
HETATM   17  C   UNL     1       3.371  30.151  53.443  1.00  0.00     0.274 C 
HETATM   18  C   UNL     1       3.813  29.022  51.399  1.00  0.00    -0.025 A 
HETATM   19  N   UNL     1       2.686  30.925  52.318  1.00  0.00    -0.067 N 
HETATM   20  C   UNL     1       2.899  32.396  52.380  1.00  0.00     0.270 C 
HETATM   21  H   UNL     1       1.683  30.731  52.412  1.00  0.00     0.280 HD
HETATM   22  C   UNL     1       3.126  30.282  51.007  1.00  0.00     0.273 C 
HETATM   23  C   UNL     1       4.317  28.022  50.587  1.00  0.00     0.012 A 
HETATM   24  C   UNL     1       4.977  26.945  51.189  1.00  0.00     0.030 A 
ENDBRANCH  11  14
ENDBRANCH   1  10
BRANCH   5  25
HETATM   25  C   UNL     1       8.020  24.546  56.472  1.00  0.00     0.218 C 
BRANCH  25  26
HETATM   26  O   UNL     1       6.713  24.954  56.877  1.00  0.00    -0.347 OA
BRANCH  26  27
HETATM   27  C   UNL     1       6.499  26.292  57.053  1.00  0.00     0.069 A 
HETATM   28  C   UNL     1       7.624  27.009  57.469  1.00  0.00     0.037 A 
HETATM   29  C   UNL     1       7.552  28.388  57.682  1.00  0.00     0.003 A 
HETATM   30  C   UNL     1       6.350  29.058  57.477  1.00  0.00     0.000 A 
HETATM   31  C   UNL     1       5.223  28.349  57.065  1.00  0.00     0.003 A 
HETATM   32  C   UNL     1       5.295  26.968  56.853  1.00  0.00     0.037 A 
ENDBRANCH  26  27
ENDBRANCH  25  26
ENDBRANCH   5  25
TORSDOF 5
ENDMDL
MODEL 8
REMARK VINA RESULT:      -9.4      2.392      8.309
REMARK  5 active torsions:
REMARK  status: ('A' for Active; 'I' for Inactive)
REMARK    1  A    between atoms: C_9  and  N_10 
REMARK       I    between atoms: N_10  and  C_11 
REMARK    2  A    between atoms: C_11  and  C_12 
REMARK    3  A    between atoms: C_16  and  C_17 
REMARK    4  A    between atoms: C_17  and  O_18 
REMARK    5  A    between atoms: O_18  and  C_19 
ROOT
HETATM    1  C   UNL     1       6.354  29.248  56.937  1.00  0.00     0.153 A 
HETATM    2  O   UNL     1       5.839  30.435  57.391  1.00  0.00    -0.304 OA
HETATM    3  C   UNL     1       6.669  30.891  58.366  1.00  0.00     0.087 A 
HETATM    4  C   UNL     1       7.737  30.019  58.540  1.00  0.00     0.009 A 
HETATM    5  C   UNL     1       7.533  28.953  57.608  1.00  0.00     0.018 A 
HETATM    6  C   UNL     1       6.486  32.065  59.094  1.00  0.00     0.038 A 
HETATM    7  C   UNL     1       7.457  32.360  60.055  1.00  0.00     0.003 A 
HETATM    8  C   UNL     1       8.551  31.515  60.259  1.00  0.00     0.001 A 
HETATM    9  C   UNL     1       8.707  30.342  59.508  1.00  0.00     0.015 A 
ENDROOT
BRANCH   1  10
HETATM   10  C   UNL     1       5.623  28.533  55.904  1.00  0.00     0.280 C 
HETATM   11  N   UNL     1       6.272  28.565  54.679  1.00  0.00    -0.321 N 
HETATM   12  H   UNL     1       7.169  29.043  54.697  1.00  0.00     0.169 HD
HETATM   13  O   UNL     1       4.548  27.980  56.111  1.00  0.00    -0.265 OA
BRANCH  11  14
HETATM   14  C   UNL     1       5.840  28.038  53.450  1.00  0.00     0.035 A 
HETATM   15  C   UNL     1       4.851  28.630  52.661  1.00  0.00     0.039 A 
HETATM   16  C   UNL     1       4.525  28.047  51.443  1.00  0.00    -0.022 A 
HETATM   17  C   UNL     1       3.550  28.539  50.433  1.00  0.00     0.274 C 
HETATM   18  C   UNL     1       5.159  26.886  51.002  1.00  0.00    -0.025 A 
HETATM   19  N   UNL     1       3.509  27.452  49.361  1.00  0.00    -0.067 N 
HETATM   20  C   UNL     1       3.487  27.975  47.968  1.00  0.00     0.270 C 
HETATM   21  H   UNL     1       2.646  26.922  49.529  1.00  0.00     0.280 HD
HETATM   22  C   UNL     1       4.662  26.497  49.654  1.00  0.00     0.273 C 
HETATM   23  C   UNL     1       6.133  26.277  51.773  1.00  0.00     0.012 A 
HETATM   24  C   UNL     1       6.472  26.862  52.999  1.00  0.00     0.030 A 
ENDBRANCH  11  14
ENDBRANCH   1  10
BRANCH   5  25
HETATM   25  C   UNL     1       8.420  27.774  57.381  1.00  0.00     0.218 C 
BRANCH  25  26
HETATM   26  O   UNL     1       7.824  26.606  57.949  1.00  0.00    -0.347 OA
BRANCH  26  27
HETATM   27  C   UNL     1       7.871  25.456  57.212  1.00  0.00     0.069 A 
HETATM   28  C   UNL     1       6.783  25.272  56.353  1.00  0.00     0.037 A 
HETATM   29  C   UNL     1       6.704  24.142  55.536  1.00  0.00     0.003 A 
HETATM   30  C   UNL     1       7.717  23.189  55.572  1.00  0.00     0.000 A 
HETATM   31  C   UNL     1       8.804  23.364  56.427  1.00  0.00     0.003 A 
HETATM   32  C   UNL     1       8.882  24.495  57.247  1.00  0.00     0.037 A 
ENDBRANCH  26  27
ENDBRANCH  25  26
ENDBRANCH   5  25
TORSDOF 5
ENDMDL
MODEL 9
REMARK VINA RESULT:      -9.4      3.044      3.770
REMARK  5 active torsions:
REMARK  status: ('A' for Active; 'I' for Inactive)
REMARK    1  A    between atoms: C_9  and  N_10 
REMARK       I    between atoms: N_10  and  C_11 
REMARK    2  A    between atoms: C_11  and  C_12 
REMARK    3  A    between atoms: C_16  and  C_17 
REMARK    4  A    between atoms: C_17  and  O_18 
REMARK    5  A    between atoms: O_18  and  C_19 
ROOT
HETATM    1  C   UNL     1       7.336  24.901  55.008  1.00  0.00     0.153 A 
HETATM    2  O   UNL     1       7.596  23.892  55.900  1.00  0.00    -0.304 OA
HETATM    3  C   UNL     1       7.754  22.748  55.183  1.00  0.00     0.087 A 
HETATM    4  C   UNL     1       7.619  23.006  53.825  1.00  0.00     0.009 A 
HETATM    5  C   UNL     1       7.350  24.406  53.711  1.00  0.00     0.018 A 
HETATM    6  C   UNL     1       8.016  21.491  55.722  1.00  0.00     0.038 A 
HETATM    7  C   UNL     1       8.148  20.437  54.814  1.00  0.00     0.003 A 
HETATM    8  C   UNL     1       8.025  20.651  53.438  1.00  0.00     0.001 A 
HETATM    9  C   UNL     1       7.764  21.930  52.927  1.00  0.00     0.015 A 
ENDROOT
BRANCH   1  10
HETATM   10  C   UNL     1       7.091  26.235  55.533  1.00  0.00     0.280 C 
HETATM   11  N   UNL     1       5.796  26.667  55.295  1.00  0.00    -0.321 N 
HETATM   12  H   UNL     1       5.208  25.981  54.831  1.00  0.00     0.169 HD
HETATM   13  O   UNL     1       7.953  26.891  56.109  1.00  0.00    -0.265 OA
BRANCH  11  14
HETATM   14  C   UNL     1       5.223  27.913  55.602  1.00  0.00     0.035 A 
HETATM   15  C   UNL     1       4.606  28.734  54.654  1.00  0.00     0.039 A 
HETATM   16  C   UNL     1       4.037  29.930  55.071  1.00  0.00    -0.022 A 
HETATM   17  C   UNL     1       3.291  30.918  54.245  1.00  0.00     0.274 C 
HETATM   18  C   UNL     1       4.077  30.326  56.408  1.00  0.00    -0.025 A 
HETATM   19  N   UNL     1       3.005  32.086  55.187  1.00  0.00    -0.067 N 
HETATM   20  C   UNL     1       1.633  32.647  55.056  1.00  0.00     0.270 C 
HETATM   21  H   UNL     1       3.686  32.815  54.946  1.00  0.00     0.280 HD
HETATM   22  C   UNL     1       3.359  31.617  56.594  1.00  0.00     0.273 C 
HETATM   23  C   UNL     1       4.692  29.533  57.360  1.00  0.00     0.012 A 
HETATM   24  C   UNL     1       5.263  28.323  56.950  1.00  0.00     0.030 A 
ENDBRANCH  11  14
ENDBRANCH   1  10
BRANCH   5  25
HETATM   25  C   UNL     1       7.151  25.187  52.455  1.00  0.00     0.218 C 
BRANCH  25  26
HETATM   26  O   UNL     1       5.825  25.716  52.421  1.00  0.00    -0.347 OA
BRANCH  26  27
HETATM   27  C   UNL     1       5.510  26.555  51.389  1.00  0.00     0.069 A 
HETATM   28  C   UNL     1       4.939  25.922  50.281  1.00  0.00     0.037 A 
HETATM   29  C   UNL     1       4.562  26.658  49.156  1.00  0.00     0.003 A 
HETATM   30  C   UNL     1       4.753  28.036  49.134  1.00  0.00     0.000 A 
HETATM   31  C   UNL     1       5.324  28.674  50.234  1.00  0.00     0.003 A 
HETATM   32  C   UNL     1       5.704  27.937  51.360  1.00  0.00     0.037 A 
ENDBRANCH  26  27
ENDBRANCH  25  26
ENDBRANCH   5  25
TORSDOF 5
ENDMDL
MODEL 10
REMARK VINA RESULT:      -9.3      2.702      6.216
REMARK  5 active torsions:
REMARK  status: ('A' for Active; 'I' for Inactive)
REMARK    1  A    between atoms: C_9  and  N_10 
REMARK       I    between atoms: N_10  and  C_11 
REMARK    2  A    between atoms: C_11  and  C_12 
REMARK    3  A    between atoms: C_16  and  C_17 
REMARK    4  A    between atoms: C_17  and  O_18 
REMARK    5  A    between atoms: O_18  and  C_19 
ROOT
HETATM    1  C   UNL     1       4.639  27.990  50.681  1.00  0.00     0.153 A 
HETATM    2  O   UNL     1       3.772  28.603  49.814  1.00  0.00    -0.304 OA
HETATM    3  C   UNL     1       3.379  27.670  48.907  1.00  0.00     0.087 A 
HETATM    4  C   UNL     1       3.969  26.444  49.187  1.00  0.00     0.009 A 
HETATM    5  C   UNL     1       4.786  26.651  50.342  1.00  0.00     0.018 A 
HETATM    6  C   UNL     1       2.508  27.898  47.844  1.00  0.00     0.038 A 
HETATM    7  C   UNL     1       2.226  26.804  47.022  1.00  0.00     0.003 A 
HETATM    8  C   UNL     1       2.792  25.551  47.269  1.00  0.00     0.001 A 
HETATM    9  C   UNL     1       3.664  25.353  48.350  1.00  0.00     0.015 A 
ENDROOT
BRANCH   1  10
HETATM   10  C   UNL     1       5.235  28.792  51.737  1.00  0.00     0.280 C 
HETATM   11  N   UNL     1       4.763  28.446  52.994  1.00  0.00    -0.321 N 
HETATM   12  H   UNL     1       4.110  27.667  52.992  1.00  0.00     0.169 HD
HETATM   13  O   UNL     1       6.053  29.680  51.517  1.00  0.00    -0.265 OA
BRANCH  11  14
HETATM   14  C   UNL     1       5.065  29.038  54.232  1.00  0.00     0.035 A 
HETATM   15  C   UNL     1       6.029  28.539  55.112  1.00  0.00     0.039 A 
HETATM   16  C   UNL     1       6.277  29.224  56.294  1.00  0.00    -0.022 A 
HETATM   17  C   UNL     1       7.289  28.901  57.336  1.00  0.00     0.274 C 
HETATM   18  C   UNL     1       5.580  30.387  56.620  1.00  0.00    -0.025 A 
HETATM   19  N   UNL     1       7.037  29.905  58.459  1.00  0.00    -0.067 N 
HETATM   20  C   UNL     1       8.276  30.477  59.050  1.00  0.00     0.270 C 
HETATM   21  H   UNL     1       6.528  29.391  59.187  1.00  0.00     0.280 HD
HETATM   22  C   UNL     1       6.065  30.946  57.912  1.00  0.00     0.273 C 
HETATM   23  C   UNL     1       4.613  30.892  55.768  1.00  0.00     0.012 A 
HETATM   24  C   UNL     1       4.362  30.211  54.571  1.00  0.00     0.030 A 
ENDBRANCH  11  14
ENDBRANCH   1  10
BRANCH   5  25
HETATM   25  C   UNL     1       5.609  25.633  51.059  1.00  0.00     0.218 C 
BRANCH  25  26
HETATM   26  O   UNL     1       5.147  25.498  52.403  1.00  0.00    -0.347 OA
BRANCH  26  27
HETATM   27  C   UNL     1       5.990  24.905  53.300  1.00  0.00     0.069 A 
HETATM   28  C   UNL     1       7.068  24.227  52.723  1.00  0.00     0.037 A 
HETATM   29  C   UNL     1       8.013  23.579  53.521  1.00  0.00     0.003 A 
HETATM   30  C   UNL     1       7.885  23.607  54.906  1.00  0.00     0.000 A 
HETATM   31  C   UNL     1       6.812  24.279  55.490  1.00  0.00     0.003 A 
HETATM   32  C   UNL     1       5.864  24.926  54.690  1.00  0.00     0.037 A 
ENDBRANCH  26  27
ENDBRANCH  25  26
ENDBRANCH   5  25
TORSDOF 5
ENDMDL
