MODEL 1
REMARK VINA RESULT:      -9.0      0.000      0.000
REMARK  8 active torsions:
REMARK  status: ('A' for Active; 'I' for Inactive)
REMARK    1  A    between atoms: C_2  and  C_3 
REMARK    2  A    between atoms: C_3  and  N_4 
REMARK    3  A    between atoms: N_4  and  C_5 
REMARK    4  A    between atoms: C_7  and  N_8 
REMARK    5  A    between atoms: N_8  and  C_9 
REMARK    6  A    between atoms: C_9  and  C_10 
REMARK    7  A    between atoms: C_10  and  C_11 
REMARK    8  A    between atoms: C_14  and  O_15 
ROOT
HETATM    1  C   UNL     1       7.304  23.928  54.603  1.00  0.00     0.119 A 
HETATM    2  N   UNL     1       7.390  24.774  55.647  1.00  0.00    -0.207 NA
HETATM    3  C   UNL     1       7.948  24.315  56.773  1.00  0.00     0.181 A 
HETATM    4  N   UNL     1       8.390  23.072  56.918  1.00  0.00    -0.330 N 
HETATM    5  H   UNL     1       8.728  22.805  57.834  1.00  0.00     0.168 HD
HETATM    6  C   UNL     1       8.356  22.201  55.905  1.00  0.00     0.048 A 
HETATM    7  C   UNL     1       7.810  22.609  54.672  1.00  0.00     0.031 A 
HETATM    8  C   UNL     1       8.867  20.906  56.073  1.00  0.00     0.030 A 
HETATM    9  C   UNL     1       8.853  20.006  55.008  1.00  0.00     0.002 A 
HETATM   10  C   UNL     1       8.334  20.394  53.777  1.00  0.00     0.001 A 
HETATM   11  C   UNL     1       7.816  21.680  53.607  1.00  0.00     0.017 A 
ENDROOT
BRANCH   3  12
HETATM   12  N   UNL     1       8.004  25.178  57.860  1.00  0.00    -0.262 NA
HETATM   13  H   UNL     1       7.452  24.709  58.587  1.00  0.00     0.130 HD
BRANCH  12  14
HETATM   14  C   UNL     1       7.481  26.523  57.599  1.00  0.00     0.100 C 
BRANCH  14  15
HETATM   15  C   UNL     1       8.501  27.350  56.806  1.00  0.00     0.053 C 
BRANCH  15  16
HETATM   16  C   UNL     1       8.754  28.684  57.463  1.00  0.00    -0.057 A 
HETATM   17  C   UNL     1       7.795  29.264  58.300  1.00  0.00     0.010 A 
HETATM   18  C   UNL     1       8.026  30.518  58.871  1.00  0.00     0.037 A 
HETATM   19  C   UNL     1       9.215  31.206  58.628  1.00  0.00     0.068 A 
HETATM   20  C   UNL     1      10.179  30.628  57.803  1.00  0.00     0.037 A 
HETATM   21  C   UNL     1       9.949  29.375  57.224  1.00  0.00     0.010 A 
BRANCH  19  22
HETATM   22  O   UNL     1       9.308  32.423  59.244  1.00  0.00    -0.356 OA
HETATM   23  C   UNL     1       8.623  32.574  60.482  1.00  0.00     0.210 C 
ENDBRANCH  19  22
ENDBRANCH  15  16
ENDBRANCH  14  15
ENDBRANCH  12  14
ENDBRANCH   3  12
BRANCH   1  24
HETATM   24  N   UNL     1       6.748  24.387  53.401  1.00  0.00    -0.277 NA
HETATM   25  H   UNL     1       6.854  23.691  52.664  1.00  0.00     0.129 HD
BRANCH  24  26
HETATM   26  C   UNL     1       5.377  24.895  53.459  1.00  0.00     0.093 C 
BRANCH  26  27
HETATM   27  C   UNL     1       4.790  24.985  52.050  1.00  0.00     0.010 C 
HETATM   28  C   UNL     1       5.237  26.233  51.302  1.00  0.00     0.006 C 
ENDBRANCH  26  27
ENDBRANCH  24  26
ENDBRANCH   1  24
TORSDOF 8
ENDMDL
MODEL 2
REMARK VINA RESULT:      -8.5      3.054      7.749
REMARK  8 active torsions:
REMARK  status: ('A' for Active; 'I' for Inactive)
REMARK    1  A    between atoms: C_2  and  C_3 
REMARK    2  A    between atoms: C_3  and  N_4 
REMARK    3  A    between atoms: N_4  and  C_5 
REMARK    4  A    between atoms: C_7  and  N_8 
REMARK    5  A    between atoms: N_8  and  C_9 
REMARK    6  A    between atoms: C_9  and  C_10 
REMARK    7  A    between atoms: C_10  and  C_11 
REMARK    8  A    between atoms: C_14  and  O_15 
ROOT
HETATM    1  C   UNL     1       7.708  28.346  57.753  1.00  0.00     0.119 A 
HETATM    2  N   UNL     1       7.956  27.023  57.796  1.00  0.00    -0.207 NA
HETATM    3  C   UNL     1       7.012  26.199  57.329  1.00  0.00     0.181 A 
HETATM    4  N   UNL     1       5.843  26.616  56.856  1.00  0.00    -0.330 N 
HETATM    5  H   UNL     1       5.170  25.908  56.596  1.00  0.00     0.168 HD
HETATM    6  C   UNL     1       5.559  27.919  56.763  1.00  0.00     0.048 A 
HETATM    7  C   UNL     1       6.509  28.859  57.207  1.00  0.00     0.031 A 
HETATM    8  C   UNL     1       4.333  28.334  56.222  1.00  0.00     0.030 A 
HETATM    9  C   UNL     1       4.046  29.693  56.103  1.00  0.00     0.002 A 
HETATM   10  C   UNL     1       4.978  30.639  56.520  1.00  0.00     0.001 A 
HETATM   11  C   UNL     1       6.197  30.230  57.067  1.00  0.00     0.017 A 
ENDROOT
BRANCH   3  12
HETATM   12  N   UNL     1       7.254  24.833  57.406  1.00  0.00    -0.262 NA
HETATM   13  H   UNL     1       7.646  24.696  58.344  1.00  0.00     0.130 HD
BRANCH  12  14
HETATM   14  C   UNL     1       8.169  24.317  56.382  1.00  0.00     0.100 C 
BRANCH  14  15
HETATM   15  C   UNL     1       7.422  23.392  55.414  1.00  0.00     0.053 C 
BRANCH  15  16
HETATM   16  C   UNL     1       6.971  24.136  54.182  1.00  0.00    -0.057 A 
HETATM   17  C   UNL     1       5.653  24.591  54.063  1.00  0.00     0.010 A 
HETATM   18  C   UNL     1       5.237  25.244  52.900  1.00  0.00     0.037 A 
HETATM   19  C   UNL     1       6.126  25.465  51.847  1.00  0.00     0.068 A 
HETATM   20  C   UNL     1       7.443  25.023  51.964  1.00  0.00     0.037 A 
HETATM   21  C   UNL     1       7.861  24.362  53.125  1.00  0.00     0.010 A 
BRANCH  19  22
HETATM   22  O   UNL     1       5.587  26.110  50.769  1.00  0.00    -0.356 OA
HETATM   23  C   UNL     1       5.432  27.521  50.872  1.00  0.00     0.210 C 
ENDBRANCH  19  22
ENDBRANCH  15  16
ENDBRANCH  14  15
ENDBRANCH  12  14
ENDBRANCH   3  12
BRANCH   1  24
HETATM   24  N   UNL     1       8.689  29.235  58.211  1.00  0.00    -0.277 NA
HETATM   25  H   UNL     1       8.930  29.041  59.181  1.00  0.00     0.129 HD
BRANCH  24  26
HETATM   26  C   UNL     1       9.888  29.381  57.384  1.00  0.00     0.093 C 
BRANCH  26  27
HETATM   27  C   UNL     1      10.439  30.802  57.504  1.00  0.00     0.010 C 
HETATM   28  C   UNL     1       9.849  31.568  58.679  1.00  0.00     0.006 C 
ENDBRANCH  26  27
ENDBRANCH  24  26
ENDBRANCH   1  24
TORSDOF 8
ENDMDL
MODEL 3
REMARK VINA RESULT:      -8.4      3.472      8.285
REMARK  8 active torsions:
REMARK  status: ('A' for Active; 'I' for Inactive)
REMARK    1  A    between atoms: C_2  and  C_3 
REMARK    2  A    between atoms: C_3  and  N_4 
REMARK    3  A    between atoms: N_4  and  C_5 
REMARK    4  A    between atoms: C_7  and  N_8 
REMARK    5  A    between atoms: N_8  and  C_9 
REMARK    6  A    between atoms: C_9  and  C_10 
REMARK    7  A    between atoms: C_10  and  C_11 
REMARK    8  A    between atoms: C_14  and  O_15 
ROOT
HETATM    1  C   UNL     1       6.659  29.135  56.747  1.00  0.00     0.119 A 
HETATM    2  N   UNL     1       6.295  28.536  55.597  1.00  0.00    -0.207 NA
HETATM    3  C   UNL     1       7.238  28.355  54.666  1.00  0.00     0.181 A 
HETATM    4  N   UNL     1       8.496  28.758  54.808  1.00  0.00    -0.330 N 
HETATM    5  H   UNL     1       9.112  28.638  54.015  1.00  0.00     0.168 HD
HETATM    6  C   UNL     1       8.916  29.331  55.940  1.00  0.00     0.048 A 
HETATM    7  C   UNL     1       7.994  29.534  56.986  1.00  0.00     0.031 A 
HETATM    8  C   UNL     1      10.259  29.710  56.080  1.00  0.00     0.030 A 
HETATM    9  C   UNL     1      10.703  30.285  57.270  1.00  0.00     0.002 A 
HETATM   10  C   UNL     1       9.812  30.480  58.321  1.00  0.00     0.001 A 
HETATM   11  C   UNL     1       8.472  30.111  58.185  1.00  0.00     0.017 A 
ENDROOT
BRANCH   3  12
HETATM   12  N   UNL     1       6.854  27.769  53.467  1.00  0.00    -0.262 NA
HETATM   13  H   UNL     1       5.844  27.621  53.567  1.00  0.00     0.130 HD
BRANCH  12  14
HETATM   14  C   UNL     1       7.535  26.507  53.159  1.00  0.00     0.100 C 
BRANCH  14  15
HETATM   15  C   UNL     1       6.520  25.362  53.053  1.00  0.00     0.053 C 
BRANCH  15  16
HETATM   16  C   UNL     1       7.088  24.074  53.592  1.00  0.00    -0.057 A 
HETATM   17  C   UNL     1       7.676  23.135  52.737  1.00  0.00     0.010 A 
HETATM   18  C   UNL     1       8.162  21.928  53.244  1.00  0.00     0.037 A 
HETATM   19  C   UNL     1       8.083  21.642  54.608  1.00  0.00     0.068 A 
HETATM   20  C   UNL     1       7.508  22.578  55.467  1.00  0.00     0.037 A 
HETATM   21  C   UNL     1       7.013  23.785  54.961  1.00  0.00     0.010 A 
BRANCH  19  22
HETATM   22  O   UNL     1       8.592  20.426  54.968  1.00  0.00    -0.356 OA
HETATM   23  C   UNL     1       9.166  20.324  56.266  1.00  0.00     0.210 C 
ENDBRANCH  19  22
ENDBRANCH  15  16
ENDBRANCH  14  15
ENDBRANCH  12  14
ENDBRANCH   3  12
BRANCH   1  24
HETATM   24  N   UNL     1       5.699  29.315  57.752  1.00  0.00    -0.277 NA
HETATM   25  H   UNL     1       6.132  29.656  58.609  1.00  0.00     0.129 HD
BRANCH  24  26
HETATM   26  C   UNL     1       4.518  30.105  57.403  1.00  0.00     0.093 C 
BRANCH  26  27
HETATM   27  C   UNL     1       4.394  31.307  58.340  1.00  0.00     0.010 C 
HETATM   28  C   UNL     1       5.440  32.379  58.069  1.00  0.00     0.006 C 
ENDBRANCH  26  27
ENDBRANCH  24  26
ENDBRANCH   1  24
TORSDOF 8
ENDMDL
MODEL 4
REMARK VINA RESULT:      -8.3      4.249      8.426
REMARK  8 active torsions:
REMARK  status: ('A' for Active; 'I' for Inactive)
REMARK    1  A    between atoms: C_2  and  C_3 
REMARK    2  A    between atoms: C_3  and  N_4 
REMARK    3  A    between atoms: N_4  and  C_5 
REMARK    4  A    between atoms: C_7  and  N_8 
REMARK    5  A    between atoms: N_8  and  C_9 
REMARK    6  A    between atoms: C_9  and  C_10 
REMARK    7  A    between atoms: C_10  and  C_11 
REMARK    8  A    between atoms: C_14  and  O_15 
ROOT
HETATM    1  C   UNL     1       6.109  24.903  55.293  1.00  0.00     0.119 A 
HETATM    2  N   UNL     1       5.382  25.623  54.418  1.00  0.00    -0.207 NA
HETATM    3  C   UNL     1       5.512  25.336  53.118  1.00  0.00     0.181 A 
HETATM    4  N   UNL     1       6.336  24.404  52.652  1.00  0.00    -0.330 N 
HETATM    5  H   UNL     1       6.413  24.316  51.648  1.00  0.00     0.168 HD
HETATM    6  C   UNL     1       7.058  23.642  53.479  1.00  0.00     0.048 A 
HETATM    7  C   UNL     1       6.961  23.857  54.868  1.00  0.00     0.031 A 
HETATM    8  C   UNL     1       7.890  22.638  52.963  1.00  0.00     0.030 A 
HETATM    9  C   UNL     1       8.625  21.826  53.826  1.00  0.00     0.002 A 
HETATM   10  C   UNL     1       8.531  22.011  55.202  1.00  0.00     0.001 A 
HETATM   11  C   UNL     1       7.710  23.015  55.721  1.00  0.00     0.017 A 
ENDROOT
BRANCH   3  12
HETATM   12  N   UNL     1       4.787  26.102  52.215  1.00  0.00    -0.262 NA
HETATM   13  H   UNL     1       3.829  25.745  52.288  1.00  0.00     0.130 HD
BRANCH  12  14
HETATM   14  C   UNL     1       5.264  26.025  50.830  1.00  0.00     0.100 C 
BRANCH  14  15
HETATM   15  C   UNL     1       5.014  27.352  50.102  1.00  0.00     0.053 C 
BRANCH  15  16
HETATM   16  C   UNL     1       3.742  27.301  49.293  1.00  0.00    -0.057 A 
HETATM   17  C   UNL     1       2.759  28.286  49.440  1.00  0.00     0.010 A 
HETATM   18  C   UNL     1       1.569  28.206  48.714  1.00  0.00     0.037 A 
HETATM   19  C   UNL     1       1.344  27.156  47.823  1.00  0.00     0.068 A 
HETATM   20  C   UNL     1       2.324  26.177  47.664  1.00  0.00     0.037 A 
HETATM   21  C   UNL     1       3.515  26.250  48.395  1.00  0.00     0.010 A 
BRANCH  19  22
HETATM   22  O   UNL     1       0.138  27.197  47.182  1.00  0.00    -0.356 OA
HETATM   23  C   UNL     1       0.005  28.129  46.114  1.00  0.00     0.210 C 
ENDBRANCH  19  22
ENDBRANCH  15  16
ENDBRANCH  14  15
ENDBRANCH  12  14
ENDBRANCH   3  12
BRANCH   1  24
HETATM   24  N   UNL     1       5.975  25.163  56.664  1.00  0.00    -0.277 NA
HETATM   25  H   UNL     1       6.342  24.390  57.216  1.00  0.00     0.129 HD
BRANCH  24  26
HETATM   26  C   UNL     1       6.483  26.448  57.145  1.00  0.00     0.093 C 
BRANCH  26  27
HETATM   27  C   UNL     1       8.012  26.457  57.106  1.00  0.00     0.010 C 
HETATM   28  C   UNL     1       8.592  27.863  57.042  1.00  0.00     0.006 C 
ENDBRANCH  26  27
ENDBRANCH  24  26
ENDBRANCH   1  24
TORSDOF 8
ENDMDL
MODEL 5
REMARK VINA RESULT:      -8.3      4.297      8.772
REMARK  8 active torsions:
REMARK  status: ('A' for Active; 'I' for Inactive)
REMARK    1  A    between atoms: C_2  and  C_3 
REMARK    2  A    between atoms: C_3  and  N_4 
REMARK    3  A    between atoms: N_4  and  C_5 
REMARK    4  A    between atoms: C_7  and  N_8 
REMARK    5  A    between atoms: N_8  and  C_9 
REMARK    6  A    between atoms: C_9  and  C_10 
REMARK    7  A    between atoms: C_10  and  C_11 
REMARK    8  A    between atoms: C_14  and  O_15 
ROOT
HETATM    1  C   UNL     1       6.925  24.057  54.303  1.00  0.00     0.119 A 
HETATM    2  N   UNL     1       6.121  24.364  53.268  1.00  0.00    -0.207 NA
HETATM    3  C   UNL     1       5.472  25.534  53.312  1.00  0.00     0.181 A 
HETATM    4  N   UNL     1       5.560  26.383  54.329  1.00  0.00    -0.330 N 
HETATM    5  H   UNL     1       4.972  27.205  54.297  1.00  0.00     0.168 HD
HETATM    6  C   UNL     1       6.366  26.139  55.368  1.00  0.00     0.048 A 
HETATM    7  C   UNL     1       7.109  24.943  55.389  1.00  0.00     0.031 A 
HETATM    8  C   UNL     1       6.471  27.072  56.410  1.00  0.00     0.030 A 
HETATM    9  C   UNL     1       7.330  26.829  57.481  1.00  0.00     0.002 A 
HETATM   10  C   UNL     1       8.086  25.661  57.514  1.00  0.00     0.001 A 
HETATM   11  C   UNL     1       7.979  24.726  56.483  1.00  0.00     0.017 A 
ENDROOT
BRANCH   3  12
HETATM   12  N   UNL     1       4.616  25.834  52.260  1.00  0.00    -0.262 NA
HETATM   13  H   UNL     1       3.895  25.106  52.302  1.00  0.00     0.130 HD
BRANCH  12  14
HETATM   14  C   UNL     1       5.256  25.856  50.941  1.00  0.00     0.100 C 
BRANCH  14  15
HETATM   15  C   UNL     1       5.021  27.206  50.252  1.00  0.00     0.053 C 
BRANCH  15  16
HETATM   16  C   UNL     1       3.937  27.107  49.208  1.00  0.00    -0.057 A 
HETATM   17  C   UNL     1       2.849  27.988  49.218  1.00  0.00     0.010 A 
HETATM   18  C   UNL     1       1.833  27.860  48.269  1.00  0.00     0.037 A 
HETATM   19  C   UNL     1       1.888  26.866  47.291  1.00  0.00     0.068 A 
HETATM   20  C   UNL     1       2.974  25.993  47.270  1.00  0.00     0.037 A 
HETATM   21  C   UNL     1       3.992  26.113  48.223  1.00  0.00     0.010 A 
BRANCH  19  22
HETATM   22  O   UNL     1       0.827  26.851  46.430  1.00  0.00    -0.356 OA
HETATM   23  C   UNL     1       0.182  28.095  46.177  1.00  0.00     0.210 C 
ENDBRANCH  19  22
ENDBRANCH  15  16
ENDBRANCH  14  15
ENDBRANCH  12  14
ENDBRANCH   3  12
BRANCH   1  24
HETATM   24  N   UNL     1       7.638  22.851  54.274  1.00  0.00    -0.277 NA
HETATM   25  H   UNL     1       7.258  22.189  54.948  1.00  0.00     0.129 HD
BRANCH  24  26
HETATM   26  C   UNL     1       7.826  22.226  52.964  1.00  0.00     0.093 C 
BRANCH  26  27
HETATM   27  C   UNL     1       8.013  20.716  53.124  1.00  0.00     0.010 C 
HETATM   28  C   UNL     1       8.297  20.305  54.562  1.00  0.00     0.006 C 
ENDBRANCH  26  27
ENDBRANCH  24  26
ENDBRANCH   1  24
TORSDOF 8
ENDMDL
MODEL 6
REMARK VINA RESULT:      -8.2      3.692      9.176
REMARK  8 active torsions:
REMARK  status: ('A' for Active; 'I' for Inactive)
REMARK    1  A    between atoms: C_2  and  C_3 
REMARK    2  A    between atoms: C_3  and  N_4 
REMARK    3  A    between atoms: N_4  and  C_5 
REMARK    4  A    between atoms: C_7  and  N_8 
REMARK    5  A    between atoms: N_8  and  C_9 
REMARK    6  A    between atoms: C_9  and  C_10 
REMARK    7  A    between atoms: C_10  and  C_11 
REMARK    8  A    between atoms: C_14  and  O_15 
ROOT
HETATM    1  C   UNL     1       7.476  29.738  58.132  1.00  0.00     0.119 A 
HETATM    2  N   UNL     1       7.978  28.870  57.233  1.00  0.00    -0.207 NA
HETATM    3  C   UNL     1       7.489  28.915  55.988  1.00  0.00     0.181 A 
HETATM    4  N   UNL     1       6.524  29.744  55.609  1.00  0.00    -0.330 N 
HETATM    5  H   UNL     1       6.175  29.646  54.664  1.00  0.00     0.168 HD
HETATM    6  C   UNL     1       6.012  30.644  56.454  1.00  0.00     0.048 A 
HETATM    7  C   UNL     1       6.489  30.686  57.778  1.00  0.00     0.031 A 
HETATM    8  C   UNL     1       5.021  31.536  56.016  1.00  0.00     0.030 A 
HETATM    9  C   UNL     1       4.505  32.491  56.890  1.00  0.00     0.002 A 
HETATM   10  C   UNL     1       4.974  32.561  58.198  1.00  0.00     0.001 A 
HETATM   11  C   UNL     1       5.954  31.670  58.642  1.00  0.00     0.017 A 
ENDROOT
BRANCH   3  12
HETATM   12  N   UNL     1       7.983  27.996  55.071  1.00  0.00    -0.262 NA
HETATM   13  H   UNL     1       8.323  28.571  54.292  1.00  0.00     0.130 HD
BRANCH  12  14
HETATM   14  C   UNL     1       6.999  27.015  54.600  1.00  0.00     0.100 C 
BRANCH  14  15
HETATM   15  C   UNL     1       7.561  26.218  53.417  1.00  0.00     0.053 C 
BRANCH  15  16
HETATM   16  C   UNL     1       7.587  24.740  53.715  1.00  0.00    -0.057 A 
HETATM   17  C   UNL     1       7.372  24.267  55.014  1.00  0.00     0.010 A 
HETATM   18  C   UNL     1       7.438  22.898  55.285  1.00  0.00     0.037 A 
HETATM   19  C   UNL     1       7.705  21.980  54.267  1.00  0.00     0.068 A 
HETATM   20  C   UNL     1       7.909  22.444  52.969  1.00  0.00     0.037 A 
HETATM   21  C   UNL     1       7.851  23.816  52.696  1.00  0.00     0.010 A 
BRANCH  19  22
HETATM   22  O   UNL     1       7.745  20.675  54.671  1.00  0.00    -0.356 OA
HETATM   23  C   UNL     1       7.888  20.434  56.066  1.00  0.00     0.210 C 
ENDBRANCH  19  22
ENDBRANCH  15  16
ENDBRANCH  14  15
ENDBRANCH  12  14
ENDBRANCH   3  12
BRANCH   1  24
HETATM   24  N   UNL     1       7.986  29.733  59.437  1.00  0.00    -0.277 NA
HETATM   25  H   UNL     1       8.106  28.780  59.776  1.00  0.00     0.129 HD
BRANCH  24  26
HETATM   26  C   UNL     1       9.182  30.539  59.682  1.00  0.00     0.093 C 
BRANCH  26  27
HETATM   27  C   UNL     1       9.351  30.787  61.182  1.00  0.00     0.010 C 
HETATM   28  C   UNL     1       8.187  31.558  61.788  1.00  0.00     0.006 C 
ENDBRANCH  26  27
ENDBRANCH  24  26
ENDBRANCH   1  24
TORSDOF 8
ENDMDL
MODEL 7
REMARK VINA RESULT:      -8.1      3.744      7.412
REMARK  8 active torsions:
REMARK  status: ('A' for Active; 'I' for Inactive)
REMARK    1  A    between atoms: C_2  and  C_3 
REMARK    2  A    between atoms: C_3  and  N_4 
REMARK    3  A    between atoms: N_4  and  C_5 
REMARK    4  A    between atoms: C_7  and  N_8 
REMARK    5  A    between atoms: N_8  and  C_9 
REMARK    6  A    between atoms: C_9  and  C_10 
REMARK    7  A    between atoms: C_10  and  C_11 
REMARK    8  A    between atoms: C_14  and  O_15 
ROOT
HETATM    1  C   UNL     1       7.429  24.014  55.113  1.00  0.00     0.119 A 
HETATM    2  N   UNL     1       7.282  24.871  54.085  1.00  0.00    -0.207 NA
HETATM    3  C   UNL     1       7.530  24.412  52.853  1.00  0.00     0.181 A 
HETATM    4  N   UNL     1       7.937  23.173  52.601  1.00  0.00    -0.330 N 
HETATM    5  H   UNL     1       8.167  22.948  51.642  1.00  0.00     0.168 HD
HETATM    6  C   UNL     1       8.071  22.274  53.581  1.00  0.00     0.048 A 
HETATM    7  C   UNL     1       7.803  22.666  54.908  1.00  0.00     0.031 A 
HETATM    8  C   UNL     1       8.464  20.961  53.283  1.00  0.00     0.030 A 
HETATM    9  C   UNL     1       8.580  20.018  54.302  1.00  0.00     0.002 A 
HETATM   10  C   UNL     1       8.303  20.379  55.618  1.00  0.00     0.001 A 
HETATM   11  C   UNL     1       7.920  21.687  55.921  1.00  0.00     0.017 A 
ENDROOT
BRANCH   3  12
HETATM   12  N   UNL     1       7.411  25.306  51.797  1.00  0.00    -0.262 NA
HETATM   13  H   UNL     1       8.289  25.836  51.811  1.00  0.00     0.130 HD
BRANCH  12  14
HETATM   14  C   UNL     1       6.259  26.209  51.890  1.00  0.00     0.100 C 
BRANCH  14  15
HETATM   15  C   UNL     1       5.130  25.735  50.967  1.00  0.00     0.053 C 
BRANCH  15  16
HETATM   16  C   UNL     1       4.820  26.762  49.907  1.00  0.00    -0.057 A 
HETATM   17  C   UNL     1       4.058  26.425  48.783  1.00  0.00     0.010 A 
HETATM   18  C   UNL     1       3.811  27.375  47.790  1.00  0.00     0.037 A 
HETATM   19  C   UNL     1       4.307  28.675  47.905  1.00  0.00     0.068 A 
HETATM   20  C   UNL     1       5.058  29.020  49.027  1.00  0.00     0.037 A 
HETATM   21  C   UNL     1       5.313  28.069  50.022  1.00  0.00     0.010 A 
BRANCH  19  22
HETATM   22  O   UNL     1       3.996  29.500  46.861  1.00  0.00    -0.356 OA
HETATM   23  C   UNL     1       2.625  29.846  46.696  1.00  0.00     0.210 C 
ENDBRANCH  19  22
ENDBRANCH  15  16
ENDBRANCH  14  15
ENDBRANCH  12  14
ENDBRANCH   3  12
BRANCH   1  24
HETATM   24  N   UNL     1       7.152  24.458  56.412  1.00  0.00    -0.277 NA
HETATM   25  H   UNL     1       6.834  23.688  56.998  1.00  0.00     0.129 HD
BRANCH  24  26
HETATM   26  C   UNL     1       8.194  25.239  57.080  1.00  0.00     0.093 C 
BRANCH  26  27
HETATM   27  C   UNL     1       7.620  26.568  57.575  1.00  0.00     0.010 C 
HETATM   28  C   UNL     1       6.274  26.900  56.946  1.00  0.00     0.006 C 
ENDBRANCH  26  27
ENDBRANCH  24  26
ENDBRANCH   1  24
TORSDOF 8
ENDMDL
MODEL 8
REMARK VINA RESULT:      -8.0      5.147      8.988
REMARK  8 active torsions:
REMARK  status: ('A' for Active; 'I' for Inactive)
REMARK    1  A    between atoms: C_2  and  C_3 
REMARK    2  A    between atoms: C_3  and  N_4 
REMARK    3  A    between atoms: N_4  and  C_5 
REMARK    4  A    between atoms: C_7  and  N_8 
REMARK    5  A    between atoms: N_8  and  C_9 
REMARK    6  A    between atoms: C_9  and  C_10 
REMARK    7  A    between atoms: C_10  and  C_11 
REMARK    8  A    between atoms: C_14  and  O_15 
ROOT
HETATM    1  C   UNL     1       4.196  27.108  48.147  1.00  0.00     0.119 A 
HETATM    2  N   UNL     1       4.361  26.209  49.135  1.00  0.00    -0.207 NA
HETATM    3  C   UNL     1       4.905  26.637  50.280  1.00  0.00     0.181 A 
HETATM    4  N   UNL     1       5.312  27.886  50.475  1.00  0.00    -0.330 N 
HETATM    5  H   UNL     1       5.778  28.088  51.350  1.00  0.00     0.168 HD
HETATM    6  C   UNL     1       5.146  28.824  49.538  1.00  0.00     0.048 A 
HETATM    7  C   UNL     1       4.554  28.466  48.311  1.00  0.00     0.031 A 
HETATM    8  C   UNL     1       5.549  30.144  49.786  1.00  0.00     0.030 A 
HETATM    9  C   UNL     1       5.353  31.128  48.817  1.00  0.00     0.002 A 
HETATM   10  C   UNL     1       4.754  30.800  47.605  1.00  0.00     0.001 A 
HETATM   11  C   UNL     1       4.359  29.484  47.350  1.00  0.00     0.017 A 
ENDROOT
BRANCH   3  12
HETATM   12  N   UNL     1       5.106  25.701  51.286  1.00  0.00    -0.262 NA
HETATM   13  H   UNL     1       4.462  25.986  52.032  1.00  0.00     0.130 HD
BRANCH  12  14
HETATM   14  C   UNL     1       6.483  25.631  51.787  1.00  0.00     0.100 C 
BRANCH  14  15
HETATM   15  C   UNL     1       6.495  25.626  53.321  1.00  0.00     0.053 C 
BRANCH  15  16
HETATM   16  C   UNL     1       7.232  24.426  53.859  1.00  0.00    -0.057 A 
HETATM   17  C   UNL     1       7.824  24.457  55.127  1.00  0.00     0.010 A 
HETATM   18  C   UNL     1       8.537  23.352  55.598  1.00  0.00     0.037 A 
HETATM   19  C   UNL     1       8.661  22.198  54.823  1.00  0.00     0.068 A 
HETATM   20  C   UNL     1       8.064  22.157  53.564  1.00  0.00     0.037 A 
HETATM   21  C   UNL     1       7.355  23.265  53.086  1.00  0.00     0.010 A 
BRANCH  19  22
HETATM   22  O   UNL     1       9.388  21.196  55.402  1.00  0.00    -0.356 OA
HETATM   23  C   UNL     1       8.961  19.861  55.153  1.00  0.00     0.210 C 
ENDBRANCH  19  22
ENDBRANCH  15  16
ENDBRANCH  14  15
ENDBRANCH  12  14
ENDBRANCH   3  12
BRANCH   1  24
HETATM   24  N   UNL     1       3.604  26.696  46.945  1.00  0.00    -0.277 NA
HETATM   25  H   UNL     1       4.257  26.145  46.390  1.00  0.00     0.129 HD
BRANCH  24  26
HETATM   26  C   UNL     1       2.301  26.037  47.042  1.00  0.00     0.093 C 
BRANCH  26  27
HETATM   27  C   UNL     1       1.258  27.013  47.588  1.00  0.00     0.010 C 
HETATM   28  C   UNL     1       0.300  27.514  46.516  1.00  0.00     0.006 C 
ENDBRANCH  26  27
ENDBRANCH  24  26
ENDBRANCH   1  24
TORSDOF 8
ENDMDL
MODEL 9
REMARK VINA RESULT:      -7.9      5.082      9.292
REMARK  8 active torsions:
REMARK  status: ('A' for Active; 'I' for Inactive)
REMARK    1  A    between atoms: C_2  and  C_3 
REMARK    2  A    between atoms: C_3  and  N_4 
REMARK    3  A    between atoms: N_4  and  C_5 
REMARK    4  A    between atoms: C_7  and  N_8 
REMARK    5  A    between atoms: N_8  and  C_9 
REMARK    6  A    between atoms: C_9  and  C_10 
REMARK    7  A    between atoms: C_10  and  C_11 
REMARK    8  A    between atoms: C_14  and  O_15 
ROOT
HETATM    1  C   UNL     1       5.385  26.309  53.600  1.00  0.00     0.119 A 
HETATM    2  N   UNL     1       5.134  26.887  52.410  1.00  0.00    -0.207 NA
HETATM    3  C   UNL     1       5.800  26.429  51.344  1.00  0.00     0.181 A 
HETATM    4  N   UNL     1       6.708  25.462  51.407  1.00  0.00    -0.330 N 
HETATM    5  H   UNL     1       7.207  25.240  50.556  1.00  0.00     0.168 HD
HETATM    6  C   UNL     1       6.974  24.835  52.558  1.00  0.00     0.048 A 
HETATM    7  C   UNL     1       6.296  25.236  53.726  1.00  0.00     0.031 A 
HETATM    8  C   UNL     1       7.909  23.790  52.589  1.00  0.00     0.030 A 
HETATM    9  C   UNL     1       8.168  23.120  53.784  1.00  0.00     0.002 A 
HETATM   10  C   UNL     1       7.498  23.488  54.946  1.00  0.00     0.001 A 
HETATM   11  C   UNL     1       6.572  24.534  54.922  1.00  0.00     0.017 A 
ENDROOT
BRANCH   3  12
HETATM   12  N   UNL     1       5.565  27.049  50.124  1.00  0.00    -0.262 NA
HETATM   13  H   UNL     1       5.314  28.012  50.371  1.00  0.00     0.130 HD
BRANCH  12  14
HETATM   14  C   UNL     1       4.507  26.428  49.318  1.00  0.00     0.100 C 
BRANCH  14  15
HETATM   15  C   UNL     1       4.595  26.901  47.862  1.00  0.00     0.053 C 
BRANCH  15  16
HETATM   16  C   UNL     1       3.282  27.473  47.391  1.00  0.00    -0.057 A 
HETATM   17  C   UNL     1       3.108  28.855  47.257  1.00  0.00     0.010 A 
HETATM   18  C   UNL     1       1.874  29.374  46.858  1.00  0.00     0.037 A 
HETATM   19  C   UNL     1       0.801  28.529  46.576  1.00  0.00     0.068 A 
HETATM   20  C   UNL     1       0.970  27.150  46.697  1.00  0.00     0.037 A 
HETATM   21  C   UNL     1       2.203  26.627  47.103  1.00  0.00     0.010 A 
BRANCH  19  22
HETATM   22  O   UNL     1      -0.348  29.168  46.201  1.00  0.00    -0.356 OA
HETATM   23  C   UNL     1      -0.545  30.487  46.699  1.00  0.00     0.210 C 
ENDBRANCH  19  22
ENDBRANCH  15  16
ENDBRANCH  14  15
ENDBRANCH  12  14
ENDBRANCH   3  12
BRANCH   1  24
HETATM   24  N   UNL     1       4.684  26.750  54.730  1.00  0.00    -0.277 NA
HETATM   25  H   UNL     1       4.492  25.974  55.362  1.00  0.00     0.129 HD
BRANCH  24  26
HETATM   26  C   UNL     1       5.243  27.895  55.449  1.00  0.00     0.093 C 
BRANCH  26  27
HETATM   27  C   UNL     1       5.493  27.526  56.913  1.00  0.00     0.010 C 
HETATM   28  C   UNL     1       6.964  27.597  57.296  1.00  0.00     0.006 C 
ENDBRANCH  26  27
ENDBRANCH  24  26
ENDBRANCH   1  24
TORSDOF 8
ENDMDL
MODEL 10
REMARK VINA RESULT:      -7.8      2.680      5.253
REMARK  8 active torsions:
REMARK  status: ('A' for Active; 'I' for Inactive)
REMARK    1  A    between atoms: C_2  and  C_3 
REMARK    2  A    between atoms: C_3  and  N_4 
REMARK    3  A    between atoms: N_4  and  C_5 
REMARK    4  A    between atoms: C_7  and  N_8 
REMARK    5  A    between atoms: N_8  and  C_9 
REMARK    6  A    between atoms: C_9  and  C_10 
REMARK    7  A    between atoms: C_10  and  C_11 
REMARK    8  A    between atoms: C_14  and  O_15 
ROOT
HETATM    1  C   UNL     1       8.062  24.134  55.154  1.00  0.00     0.119 A 
HETATM    2  N   UNL     1       7.787  25.061  54.218  1.00  0.00    -0.207 NA
HETATM    3  C   UNL     1       7.669  24.648  52.951  1.00  0.00     0.181 A 
HETATM    4  N   UNL     1       7.837  23.386  52.573  1.00  0.00    -0.330 N 
HETATM    5  H   UNL     1       7.799  23.192  51.581  1.00  0.00     0.168 HD
HETATM    6  C   UNL     1       8.082  22.422  53.465  1.00  0.00     0.048 A 
HETATM    7  C   UNL     1       8.194  22.765  54.827  1.00  0.00     0.031 A 
HETATM    8  C   UNL     1       8.215  21.091  53.044  1.00  0.00     0.030 A 
HETATM    9  C   UNL     1       8.447  20.082  53.977  1.00  0.00     0.002 A 
HETATM   10  C   UNL     1       8.544  20.396  55.330  1.00  0.00     0.001 A 
HETATM   11  C   UNL     1       8.421  21.721  55.754  1.00  0.00     0.017 A 
ENDROOT
BRANCH   3  12
HETATM   12  N   UNL     1       7.420  25.611  51.981  1.00  0.00    -0.262 NA
HETATM   13  H   UNL     1       7.640  26.500  52.443  1.00  0.00     0.130 HD
BRANCH  12  14
HETATM   14  C   UNL     1       6.046  25.618  51.469  1.00  0.00     0.100 C 
BRANCH  14  15
HETATM   15  C   UNL     1       5.041  25.563  52.626  1.00  0.00     0.053 C 
BRANCH  15  16
HETATM   16  C   UNL     1       4.703  26.946  53.125  1.00  0.00    -0.057 A 
HETATM   17  C   UNL     1       4.148  27.901  52.266  1.00  0.00     0.010 A 
HETATM   18  C   UNL     1       3.876  29.190  52.730  1.00  0.00     0.037 A 
HETATM   19  C   UNL     1       4.140  29.544  54.054  1.00  0.00     0.068 A 
HETATM   20  C   UNL     1       4.684  28.593  54.917  1.00  0.00     0.037 A 
HETATM   21  C   UNL     1       4.964  27.303  54.454  1.00  0.00     0.010 A 
BRANCH  19  22
HETATM   22  O   UNL     1       3.832  30.837  54.374  1.00  0.00    -0.356 OA
HETATM   23  C   UNL     1       3.401  31.680  53.311  1.00  0.00     0.210 C 
ENDBRANCH  19  22
ENDBRANCH  15  16
ENDBRANCH  14  15
ENDBRANCH  12  14
ENDBRANCH   3  12
BRANCH   1  24
HETATM   24  N   UNL     1       8.166  24.531  56.494  1.00  0.00    -0.277 NA
HETATM   25  H   UNL     1       9.139  24.684  56.752  1.00  0.00     0.129 HD
BRANCH  24  26
HETATM   26  C   UNL     1       7.322  25.649  56.919  1.00  0.00     0.093 C 
BRANCH  26  27
HETATM   27  C   UNL     1       8.192  26.828  57.356  1.00  0.00     0.010 C 
HETATM   28  C   UNL     1       8.072  28.027  56.426  1.00  0.00     0.006 C 
ENDBRANCH  26  27
ENDBRANCH  24  26
ENDBRANCH   1  24
TORSDOF 8
ENDMDL
