MODEL 1
REMARK VINA RESULT:     -10.2      0.000      0.000
REMARK  4 active torsions:
REMARK  status: ('A' for Active; 'I' for Inactive)
REMARK    1  A    between atoms: N_7  and  C_8 
REMARK    2  A    between atoms: C_14  and  C_15 
REMARK    3  A    between atoms: C_15  and  N_16 
REMARK       I    between atoms: N_16  and  C_17 
REMARK       I    between atoms: C_17  and  N_18 
REMARK    4  A    between atoms: N_18  and  C_19 
ROOT
HETATM    1  C   UNL     1       6.617  24.564  52.308  1.00  0.00     0.186 C 
ENDROOT
BRANCH   1   2
HETATM    2  C   UNL     1       7.017  24.178  53.729  1.00  0.00     0.084 C 
HETATM    3  C   UNL     1       7.597  22.834  53.944  1.00  0.00     0.008 A 
HETATM    4  C   UNL     1       7.725  21.882  52.923  1.00  0.00     0.014 A 
HETATM    5  C   UNL     1       8.027  22.528  55.229  1.00  0.00     0.046 A 
HETATM    6  C   UNL     1       8.297  20.636  53.196  1.00  0.00     0.001 A 
HETATM    7  C   UNL     1       8.739  20.336  54.483  1.00  0.00     0.001 A 
HETATM    8  C   UNL     1       8.604  21.279  55.501  1.00  0.00     0.018 A 
HETATM    9  C   UNL     1       7.858  23.517  56.307  1.00  0.00     0.275 C 
HETATM   10  O   UNL     1       8.299  23.259  57.425  1.00  0.00    -0.266 OA
HETATM   11  N   UNL     1       7.175  24.689  55.979  1.00  0.00    -0.229 N 
HETATM   12  N   UNL     1       6.816  25.028  54.693  1.00  0.00    -0.171 NA
BRANCH  11  13
HETATM   13  C   UNL     1       7.009  25.716  57.007  1.00  0.00     0.114 C 
HETATM   14  C   UNL     1       8.149  26.737  57.007  1.00  0.00     0.027 C 
HETATM   15  C   UNL     1       7.549  27.911  57.762  1.00  0.00     0.002 C 
HETATM   16  C   UNL     1       6.130  27.993  57.219  1.00  0.00     0.002 C 
HETATM   17  C   UNL     1       5.724  26.552  56.902  1.00  0.00     0.027 C 
ENDBRANCH  11  13
ENDBRANCH   1   2
BRANCH   1  18
HETATM   18  N   UNL     1       6.589  25.996  52.104  1.00  0.00    -0.337 N 
HETATM   19  C   UNL     1       5.689  26.517  51.211  1.00  0.00     0.317 C 
HETATM   20  N   UNL     1       5.722  27.885  51.203  1.00  0.00    -0.334 N 
HETATM   21  O   UNL     1       4.967  25.819  50.513  1.00  0.00    -0.247 OA
HETATM   22  H   UNL     1       6.614  28.260  51.492  1.00  0.00     0.165 HD
HETATM   23  H   UNL     1       6.852  26.565  52.898  1.00  0.00     0.164 HD
BRANCH  20  24
HETATM   24  C   UNL     1       4.945  28.711  50.268  1.00  0.00     0.035 C 
HETATM   25  C   UNL     1       3.416  28.556  50.479  1.00  0.00     0.035 C 
HETATM   26  C   UNL     1       2.639  29.466  49.510  1.00  0.00    -0.012 C 
HETATM   27  C   UNL     1       3.003  29.093  48.063  1.00  0.00     0.009 C 
HETATM   28  C   UNL     1       3.024  30.930  49.769  1.00  0.00     0.009 C 
HETATM   29  C   UNL     1       4.512  29.282  47.831  1.00  0.00    -0.012 C 
HETATM   30  C   UNL     1       5.291  28.371  48.797  1.00  0.00     0.035 C 
HETATM   31  C   UNL     1       4.887  30.748  48.104  1.00  0.00     0.009 C 
HETATM   32  C   UNL     1       4.532  31.121  49.552  1.00  0.00    -0.012 C 
HETATM   33  C   UNL     1       5.303  30.201  50.515  1.00  0.00     0.035 C 
ENDBRANCH  20  24
ENDBRANCH   1  18
TORSDOF 4
ENDMDL
MODEL 2
REMARK VINA RESULT:      -9.9      4.508      8.298
REMARK  4 active torsions:
REMARK  status: ('A' for Active; 'I' for Inactive)
REMARK    1  A    between atoms: N_7  and  C_8 
REMARK    2  A    between atoms: C_14  and  C_15 
REMARK    3  A    between atoms: C_15  and  N_16 
REMARK       I    between atoms: N_16  and  C_17 
REMARK       I    between atoms: C_17  and  N_18 
REMARK    4  A    between atoms: N_18  and  C_19 
ROOT
HETATM    1  C   UNL     1       8.552  29.637  57.910  1.00  0.00     0.186 C 
ENDROOT
BRANCH   1   2
HETATM    2  C   UNL     1       7.564  30.556  58.623  1.00  0.00     0.084 C 
HETATM    3  C   UNL     1       7.945  31.087  59.949  1.00  0.00     0.008 A 
HETATM    4  C   UNL     1       9.130  30.728  60.607  1.00  0.00     0.014 A 
HETATM    5  C   UNL     1       7.069  31.983  60.549  1.00  0.00     0.046 A 
HETATM    6  C   UNL     1       9.434  31.282  61.854  1.00  0.00     0.001 A 
HETATM    7  C   UNL     1       8.559  32.189  62.448  1.00  0.00     0.001 A 
HETATM    8  C   UNL     1       7.376  32.541  61.798  1.00  0.00     0.018 A 
HETATM    9  C   UNL     1       5.809  32.331  59.872  1.00  0.00     0.275 C 
HETATM   10  O   UNL     1       5.071  33.172  60.382  1.00  0.00    -0.266 OA
HETATM   11  N   UNL     1       5.527  31.649  58.688  1.00  0.00    -0.229 N 
HETATM   12  N   UNL     1       6.424  30.819  58.052  1.00  0.00    -0.171 NA
BRANCH  11  13
HETATM   13  C   UNL     1       4.302  31.981  57.961  1.00  0.00     0.114 C 
HETATM   14  C   UNL     1       4.575  32.759  56.672  1.00  0.00     0.027 C 
HETATM   15  C   UNL     1       3.293  32.565  55.882  1.00  0.00     0.002 C 
HETATM   16  C   UNL     1       2.952  31.101  56.115  1.00  0.00     0.002 C 
HETATM   17  C   UNL     1       3.446  30.780  57.528  1.00  0.00     0.027 C 
ENDBRANCH  11  13
ENDBRANCH   1   2
BRANCH   1  18
HETATM   18  N   UNL     1       7.971  28.362  57.550  1.00  0.00    -0.337 N 
HETATM   19  C   UNL     1       7.718  28.102  56.228  1.00  0.00     0.317 C 
HETATM   20  N   UNL     1       7.261  26.825  56.045  1.00  0.00    -0.334 N 
HETATM   21  O   UNL     1       7.879  28.933  55.346  1.00  0.00    -0.247 OA
HETATM   22  H   UNL     1       6.801  26.449  56.861  1.00  0.00     0.165 HD
HETATM   23  H   UNL     1       8.203  27.580  58.150  1.00  0.00     0.164 HD
BRANCH  20  24
HETATM   24  C   UNL     1       6.805  26.304  54.748  1.00  0.00     0.035 C 
HETATM   25  C   UNL     1       7.846  26.539  53.622  1.00  0.00     0.035 C 
HETATM   26  C   UNL     1       7.351  25.944  52.291  1.00  0.00    -0.012 C 
HETATM   27  C   UNL     1       6.015  26.604  51.909  1.00  0.00     0.009 C 
HETATM   28  C   UNL     1       7.142  24.432  52.457  1.00  0.00     0.009 C 
HETATM   29  C   UNL     1       4.963  26.342  53.000  1.00  0.00    -0.012 C 
HETATM   30  C   UNL     1       5.455  26.938  54.330  1.00  0.00     0.035 C 
HETATM   31  C   UNL     1       4.770  24.825  53.165  1.00  0.00     0.009 C 
HETATM   32  C   UNL     1       6.102  24.165  53.556  1.00  0.00    -0.012 C 
HETATM   33  C   UNL     1       6.597  24.771  54.880  1.00  0.00     0.035 C 
ENDBRANCH  20  24
ENDBRANCH   1  18
TORSDOF 4
ENDMDL
MODEL 3
REMARK VINA RESULT:      -9.9      1.983      5.173
REMARK  4 active torsions:
REMARK  status: ('A' for Active; 'I' for Inactive)
REMARK    1  A    between atoms: N_7  and  C_8 
REMARK    2  A    between atoms: C_14  and  C_15 
REMARK    3  A    between atoms: C_15  and  N_16 
REMARK       I    between atoms: N_16  and  C_17 
REMARK       I    between atoms: C_17  and  N_18 
REMARK    4  A    between atoms: N_18  and  C_19 
ROOT
HETATM    1  C   UNL     1       4.223  28.574  54.791  1.00  0.00     0.186 C 
ENDROOT
BRANCH   1   2
HETATM    2  C   UNL     1       5.504  28.107  55.475  1.00  0.00     0.084 C 
HETATM    3  C   UNL     1       6.083  28.971  56.527  1.00  0.00     0.008 A 
HETATM    4  C   UNL     1       5.552  30.222  56.870  1.00  0.00     0.014 A 
HETATM    5  C   UNL     1       7.205  28.494  57.192  1.00  0.00     0.046 A 
HETATM    6  C   UNL     1       6.142  30.979  57.886  1.00  0.00     0.001 A 
HETATM    7  C   UNL     1       7.261  30.492  58.560  1.00  0.00     0.001 A 
HETATM    8  C   UNL     1       7.795  29.252  58.214  1.00  0.00     0.018 A 
HETATM    9  C   UNL     1       7.782  27.196  56.806  1.00  0.00     0.275 C 
HETATM   10  O   UNL     1       8.737  26.755  57.443  1.00  0.00    -0.266 OA
HETATM   11  N   UNL     1       7.205  26.557  55.708  1.00  0.00    -0.229 N 
HETATM   12  N   UNL     1       6.048  26.988  55.095  1.00  0.00    -0.171 NA
BRANCH  11  13
HETATM   13  C   UNL     1       7.722  25.250  55.304  1.00  0.00     0.114 C 
HETATM   14  C   UNL     1       6.913  24.091  55.890  1.00  0.00     0.027 C 
HETATM   15  C   UNL     1       7.292  22.927  54.992  1.00  0.00     0.002 C 
HETATM   16  C   UNL     1       7.297  23.541  53.600  1.00  0.00     0.002 C 
HETATM   17  C   UNL     1       7.749  24.991  53.789  1.00  0.00     0.027 C 
ENDBRANCH  11  13
ENDBRANCH   1   2
BRANCH   1  18
HETATM   18  N   UNL     1       3.902  27.800  53.613  1.00  0.00    -0.337 N 
HETATM   19  C   UNL     1       4.192  28.325  52.380  1.00  0.00     0.317 C 
HETATM   20  N   UNL     1       3.917  27.434  51.377  1.00  0.00    -0.334 N 
HETATM   21  O   UNL     1       4.629  29.456  52.226  1.00  0.00    -0.247 OA
HETATM   22  H   UNL     1       3.202  26.766  51.626  1.00  0.00     0.165 HD
HETATM   23  H   UNL     1       3.932  26.794  53.717  1.00  0.00     0.164 HD
BRANCH  20  24
HETATM   24  C   UNL     1       4.026  27.762  49.948  1.00  0.00     0.035 C 
HETATM   25  C   UNL     1       5.327  28.541  49.622  1.00  0.00     0.035 C 
HETATM   26  C   UNL     1       5.424  28.830  48.112  1.00  0.00    -0.012 C 
HETATM   27  C   UNL     1       4.201  29.655  47.676  1.00  0.00     0.009 C 
HETATM   28  C   UNL     1       5.442  27.501  47.342  1.00  0.00     0.009 C 
HETATM   29  C   UNL     1       2.907  28.873  47.957  1.00  0.00    -0.012 C 
HETATM   30  C   UNL     1       2.807  28.587  49.466  1.00  0.00     0.035 C 
HETATM   31  C   UNL     1       2.941  27.541  47.190  1.00  0.00     0.009 C 
HETATM   32  C   UNL     1       4.157  26.711  47.631  1.00  0.00    -0.012 C 
HETATM   33  C   UNL     1       4.060  26.436  49.141  1.00  0.00     0.035 C 
ENDBRANCH  20  24
ENDBRANCH   1  18
TORSDOF 4
ENDMDL
MODEL 4
REMARK VINA RESULT:      -9.6      1.280      4.284
REMARK  4 active torsions:
REMARK  status: ('A' for Active; 'I' for Inactive)
REMARK    1  A    between atoms: N_7  and  C_8 
REMARK    2  A    between atoms: C_14  and  C_15 
REMARK    3  A    between atoms: C_15  and  N_16 
REMARK       I    between atoms: N_16  and  C_17 
REMARK       I    between atoms: C_17  and  N_18 
REMARK    4  A    between atoms: N_18  and  C_19 
ROOT
HETATM    1  C   UNL     1       4.602  25.546  54.023  1.00  0.00     0.186 C 
ENDROOT
BRANCH   1   2
HETATM    2  C   UNL     1       5.931  25.212  54.692  1.00  0.00     0.084 C 
HETATM    3  C   UNL     1       6.448  26.149  55.713  1.00  0.00     0.008 A 
HETATM    4  C   UNL     1       5.813  27.356  56.038  1.00  0.00     0.014 A 
HETATM    5  C   UNL     1       7.620  25.790  56.368  1.00  0.00     0.046 A 
HETATM    6  C   UNL     1       6.351  28.187  57.025  1.00  0.00     0.001 A 
HETATM    7  C   UNL     1       7.519  27.818  57.688  1.00  0.00     0.001 A 
HETATM    8  C   UNL     1       8.156  26.622  57.361  1.00  0.00     0.018 A 
HETATM    9  C   UNL     1       8.304  24.539  56.000  1.00  0.00     0.275 C 
HETATM   10  O   UNL     1       9.304  24.201  56.629  1.00  0.00    -0.266 OA
HETATM   11  N   UNL     1       7.768  23.825  54.928  1.00  0.00    -0.229 N 
HETATM   12  N   UNL     1       6.567  24.136  54.328  1.00  0.00    -0.171 NA
BRANCH  11  13
HETATM   13  C   UNL     1       8.392  22.559  54.544  1.00  0.00     0.114 C 
HETATM   14  C   UNL     1       7.876  21.376  55.366  1.00  0.00     0.027 C 
HETATM   15  C   UNL     1       8.259  20.180  54.512  1.00  0.00     0.002 C 
HETATM   16  C   UNL     1       7.933  20.636  53.098  1.00  0.00     0.002 C 
HETATM   17  C   UNL     1       8.193  22.144  53.078  1.00  0.00     0.027 C 
ENDBRANCH  11  13
ENDBRANCH   1   2
BRANCH   1  18
HETATM   18  N   UNL     1       4.702  25.617  52.582  1.00  0.00    -0.337 N 
HETATM   19  C   UNL     1       4.454  26.813  51.961  1.00  0.00     0.317 C 
HETATM   20  N   UNL     1       4.682  26.739  50.614  1.00  0.00    -0.334 N 
HETATM   21  O   UNL     1       4.064  27.804  52.562  1.00  0.00    -0.247 OA
HETATM   22  H   UNL     1       4.579  25.804  50.246  1.00  0.00     0.165 HD
HETATM   23  H   UNL     1       5.367  24.989  52.149  1.00  0.00     0.164 HD
BRANCH  20  24
HETATM   24  C   UNL     1       4.395  27.836  49.679  1.00  0.00     0.035 C 
HETATM   25  C   UNL     1       4.393  27.365  48.202  1.00  0.00     0.035 C 
HETATM   26  C   UNL     1       4.049  28.532  47.258  1.00  0.00    -0.012 C 
HETATM   27  C   UNL     1       5.085  29.654  47.444  1.00  0.00     0.009 C 
HETATM   28  C   UNL     1       2.652  29.068  47.603  1.00  0.00     0.009 C 
HETATM   29  C   UNL     1       5.066  30.158  48.897  1.00  0.00    -0.012 C 
HETATM   30  C   UNL     1       5.413  28.993  49.841  1.00  0.00     0.035 C 
HETATM   31  C   UNL     1       3.661  30.682  49.234  1.00  0.00     0.009 C 
HETATM   32  C   UNL     1       2.625  29.560  49.059  1.00  0.00    -0.012 C 
HETATM   33  C   UNL     1       2.980  28.392  49.994  1.00  0.00     0.035 C 
ENDBRANCH  20  24
ENDBRANCH   1  18
TORSDOF 4
ENDMDL
MODEL 5
REMARK VINA RESULT:      -9.5      1.389      1.752
REMARK  4 active torsions:
REMARK  status: ('A' for Active; 'I' for Inactive)
REMARK    1  A    between atoms: N_7  and  C_8 
REMARK    2  A    between atoms: C_14  and  C_15 
REMARK    3  A    between atoms: C_15  and  N_16 
REMARK       I    between atoms: N_16  and  C_17 
REMARK       I    between atoms: C_17  and  N_18 
REMARK    4  A    between atoms: N_18  and  C_19 
ROOT
HETATM    1  C   UNL     1       6.116  25.807  52.008  1.00  0.00     0.186 C 
ENDROOT
BRANCH   1   2
HETATM    2  C   UNL     1       6.432  25.452  53.458  1.00  0.00     0.084 C 
HETATM    3  C   UNL     1       7.091  24.156  53.726  1.00  0.00     0.008 A 
HETATM    4  C   UNL     1       7.369  23.215  52.725  1.00  0.00     0.014 A 
HETATM    5  C   UNL     1       7.442  23.884  55.042  1.00  0.00     0.046 A 
HETATM    6  C   UNL     1       8.008  22.015  53.049  1.00  0.00     0.001 A 
HETATM    7  C   UNL     1       8.369  21.750  54.368  1.00  0.00     0.001 A 
HETATM    8  C   UNL     1       8.087  22.681  55.366  1.00  0.00     0.018 A 
HETATM    9  C   UNL     1       7.117  24.858  56.097  1.00  0.00     0.275 C 
HETATM   10  O   UNL     1       7.488  24.635  57.248  1.00  0.00    -0.266 OA
HETATM   11  N   UNL     1       6.378  25.976  55.710  1.00  0.00    -0.229 N 
HETATM   12  N   UNL     1       6.094  26.286  54.398  1.00  0.00    -0.171 NA
BRANCH  11  13
HETATM   13  C   UNL     1       6.057  26.988  56.715  1.00  0.00     0.114 C 
HETATM   14  C   UNL     1       7.157  28.042  56.860  1.00  0.00     0.027 C 
HETATM   15  C   UNL     1       6.435  29.191  57.541  1.00  0.00     0.002 C 
HETATM   16  C   UNL     1       5.091  29.237  56.829  1.00  0.00     0.002 C 
HETATM   17  C   UNL     1       4.769  27.788  56.458  1.00  0.00     0.027 C 
ENDBRANCH  11  13
ENDBRANCH   1   2
BRANCH   1  18
HETATM   18  N   UNL     1       4.895  26.570  51.871  1.00  0.00    -0.337 N 
HETATM   19  C   UNL     1       4.649  27.214  50.687  1.00  0.00     0.317 C 
HETATM   20  N   UNL     1       3.416  27.809  50.684  1.00  0.00    -0.334 N 
HETATM   21  O   UNL     1       5.456  27.246  49.769  1.00  0.00    -0.247 OA
HETATM   22  H   UNL     1       3.088  28.043  51.609  1.00  0.00     0.165 HD
HETATM   23  H   UNL     1       4.101  26.241  52.404  1.00  0.00     0.164 HD
BRANCH  20  24
HETATM   24  C   UNL     1       2.928  28.661  49.589  1.00  0.00     0.035 C 
HETATM   25  C   UNL     1       1.551  29.298  49.911  1.00  0.00     0.035 C 
HETATM   26  C   UNL     1       1.094  30.214  48.760  1.00  0.00    -0.012 C 
HETATM   27  C   UNL     1       0.994  29.387  47.466  1.00  0.00     0.009 C 
HETATM   28  C   UNL     1       2.122  31.338  48.567  1.00  0.00     0.009 C 
HETATM   29  C   UNL     1       2.365  28.784  47.116  1.00  0.00    -0.012 C 
HETATM   30  C   UNL     1       2.822  27.866  48.264  1.00  0.00     0.035 C 
HETATM   31  C   UNL     1       3.387  29.918  46.935  1.00  0.00     0.009 C 
HETATM   32  C   UNL     1       3.496  30.739  48.230  1.00  0.00    -0.012 C 
HETATM   33  C   UNL     1       3.942  29.817  49.378  1.00  0.00     0.035 C 
ENDBRANCH  20  24
ENDBRANCH   1  18
TORSDOF 4
ENDMDL
MODEL 6
REMARK VINA RESULT:      -9.5      1.572      2.341
REMARK  4 active torsions:
REMARK  status: ('A' for Active; 'I' for Inactive)
REMARK    1  A    between atoms: N_7  and  C_8 
REMARK    2  A    between atoms: C_14  and  C_15 
REMARK    3  A    between atoms: C_15  and  N_16 
REMARK       I    between atoms: N_16  and  C_17 
REMARK       I    between atoms: C_17  and  N_18 
REMARK    4  A    between atoms: N_18  and  C_19 
ROOT
HETATM    1  C   UNL     1       5.207  25.092  53.517  1.00  0.00     0.186 C 
ENDROOT
BRANCH   1   2
HETATM    2  C   UNL     1       5.896  25.396  54.844  1.00  0.00     0.084 C 
HETATM    3  C   UNL     1       6.833  24.389  55.386  1.00  0.00     0.008 A 
HETATM    4  C   UNL     1       7.059  23.146  54.776  1.00  0.00     0.014 A 
HETATM    5  C   UNL     1       7.509  24.715  56.554  1.00  0.00     0.046 A 
HETATM    6  C   UNL     1       7.971  22.247  55.336  1.00  0.00     0.001 A 
HETATM    7  C   UNL     1       8.657  22.582  56.501  1.00  0.00     0.001 A 
HETATM    8  C   UNL     1       8.428  23.814  57.113  1.00  0.00     0.018 A 
HETATM    9  C   UNL     1       7.244  26.005  57.212  1.00  0.00     0.275 C 
HETATM   10  O   UNL     1       7.893  26.310  58.210  1.00  0.00    -0.266 OA
HETATM   11  N   UNL     1       6.237  26.795  56.655  1.00  0.00    -0.229 N 
HETATM   12  N   UNL     1       5.619  26.511  55.457  1.00  0.00    -0.171 NA
BRANCH  11  13
HETATM   13  C   UNL     1       5.957  28.100  57.253  1.00  0.00     0.114 C 
HETATM   14  C   UNL     1       7.084  29.108  57.019  1.00  0.00     0.027 C 
HETATM   15  C   UNL     1       6.401  30.441  57.269  1.00  0.00     0.002 C 
HETATM   16  C   UNL     1       5.048  30.277  56.593  1.00  0.00     0.002 C 
HETATM   17  C   UNL     1       4.685  28.798  56.744  1.00  0.00     0.027 C 
ENDBRANCH  11  13
ENDBRANCH   1   2
BRANCH   1  18
HETATM   18  N   UNL     1       4.472  26.223  52.995  1.00  0.00    -0.337 N 
HETATM   19  C   UNL     1       4.631  26.560  51.677  1.00  0.00     0.317 C 
HETATM   20  N   UNL     1       3.800  27.587  51.316  1.00  0.00    -0.334 N 
HETATM   21  O   UNL     1       5.433  26.003  50.941  1.00  0.00    -0.247 OA
HETATM   22  H   UNL     1       3.543  28.179  52.093  1.00  0.00     0.165 HD
HETATM   23  H   UNL     1       3.577  26.412  53.428  1.00  0.00     0.164 HD
BRANCH  20  24
HETATM   24  C   UNL     1       3.829  28.229  49.994  1.00  0.00     0.035 C 
HETATM   25  C   UNL     1       3.687  27.203  48.839  1.00  0.00     0.035 C 
HETATM   26  C   UNL     1       3.681  27.918  47.475  1.00  0.00    -0.012 C 
HETATM   27  C   UNL     1       4.992  28.707  47.312  1.00  0.00     0.009 C 
HETATM   28  C   UNL     1       2.493  28.889  47.416  1.00  0.00     0.009 C 
HETATM   29  C   UNL     1       5.122  29.755  48.429  1.00  0.00    -0.012 C 
HETATM   30  C   UNL     1       5.131  29.043  49.793  1.00  0.00     0.035 C 
HETATM   31  C   UNL     1       3.922  30.715  48.367  1.00  0.00     0.009 C 
HETATM   32  C   UNL     1       2.612  29.931  48.539  1.00  0.00    -0.012 C 
HETATM   33  C   UNL     1       2.629  29.210  49.898  1.00  0.00     0.035 C 
ENDBRANCH  20  24
ENDBRANCH   1  18
TORSDOF 4
ENDMDL
MODEL 7
REMARK VINA RESULT:      -8.9      2.426      3.699
REMARK  4 active torsions:
REMARK  status: ('A' for Active; 'I' for Inactive)
REMARK    1  A    between atoms: N_7  and  C_8 
REMARK    2  A    between atoms: C_14  and  C_15 
REMARK    3  A    between atoms: C_15  and  N_16 
REMARK       I    between atoms: N_16  and  C_17 
REMARK       I    between atoms: C_17  and  N_18 
REMARK    4  A    between atoms: N_18  and  C_19 
ROOT
HETATM    1  C   UNL     1       5.123  29.141  54.741  1.00  0.00     0.186 C 
ENDROOT
BRANCH   1   2
HETATM    2  C   UNL     1       6.156  28.403  55.587  1.00  0.00     0.084 C 
HETATM    3  C   UNL     1       6.288  26.942  55.400  1.00  0.00     0.008 A 
HETATM    4  C   UNL     1       5.463  26.200  54.542  1.00  0.00     0.014 A 
HETATM    5  C   UNL     1       7.286  26.298  56.121  1.00  0.00     0.046 A 
HETATM    6  C   UNL     1       5.655  24.823  54.403  1.00  0.00     0.001 A 
HETATM    7  C   UNL     1       6.664  24.182  55.118  1.00  0.00     0.001 A 
HETATM    8  C   UNL     1       7.480  24.916  55.978  1.00  0.00     0.018 A 
HETATM    9  C   UNL     1       8.127  27.072  57.049  1.00  0.00     0.275 C 
HETATM   10  O   UNL     1       9.047  26.504  57.634  1.00  0.00    -0.266 OA
HETATM   11  N   UNL     1       7.798  28.418  57.216  1.00  0.00    -0.229 N 
HETATM   12  N   UNL     1       6.861  29.076  56.449  1.00  0.00    -0.171 NA
BRANCH  11  13
HETATM   13  C   UNL     1       8.623  29.237  58.103  1.00  0.00     0.114 C 
HETATM   14  C   UNL     1       9.680  30.043  57.344  1.00  0.00     0.027 C 
HETATM   15  C   UNL     1      10.055  31.128  58.339  1.00  0.00     0.002 C 
HETATM   16  C   UNL     1       8.716  31.541  58.934  1.00  0.00     0.002 C 
HETATM   17  C   UNL     1       7.858  30.273  58.943  1.00  0.00     0.027 C 
ENDBRANCH  11  13
ENDBRANCH   1   2
BRANCH   1  18
HETATM   18  N   UNL     1       5.543  29.313  53.367  1.00  0.00    -0.337 N 
HETATM   19  C   UNL     1       4.773  28.774  52.370  1.00  0.00     0.317 C 
HETATM   20  N   UNL     1       5.251  29.104  51.131  1.00  0.00    -0.334 N 
HETATM   21  O   UNL     1       3.793  28.078  52.592  1.00  0.00    -0.247 OA
HETATM   22  H   UNL     1       6.242  29.298  51.128  1.00  0.00     0.165 HD
HETATM   23  H   UNL     1       6.060  30.158  53.161  1.00  0.00     0.164 HD
BRANCH  20  24
HETATM   24  C   UNL     1       4.691  28.578  49.878  1.00  0.00     0.035 C 
HETATM   25  C   UNL     1       4.635  27.027  49.865  1.00  0.00     0.035 C 
HETATM   26  C   UNL     1       4.006  26.517  48.555  1.00  0.00    -0.012 C 
HETATM   27  C   UNL     1       4.843  27.016  47.365  1.00  0.00     0.009 C 
HETATM   28  C   UNL     1       2.575  27.060  48.434  1.00  0.00     0.009 C 
HETATM   29  C   UNL     1       4.871  28.553  47.344  1.00  0.00    -0.012 C 
HETATM   30  C   UNL     1       5.502  29.066  48.651  1.00  0.00     0.035 C 
HETATM   31  C   UNL     1       3.433  29.086  47.233  1.00  0.00     0.009 C 
HETATM   32  C   UNL     1       2.597  28.596  48.426  1.00  0.00    -0.012 C 
HETATM   33  C   UNL     1       3.236  29.100  49.732  1.00  0.00     0.035 C 
ENDBRANCH  20  24
ENDBRANCH   1  18
TORSDOF 4
ENDMDL
MODEL 8
REMARK VINA RESULT:      -8.8      7.220     10.892
REMARK  4 active torsions:
REMARK  status: ('A' for Active; 'I' for Inactive)
REMARK    1  A    between atoms: N_7  and  C_8 
REMARK    2  A    between atoms: C_14  and  C_15 
REMARK    3  A    between atoms: C_15  and  N_16 
REMARK       I    between atoms: N_16  and  C_17 
REMARK       I    between atoms: C_17  and  N_18 
REMARK    4  A    between atoms: N_18  and  C_19 
ROOT
HETATM    1  C   UNL     1       6.465  32.644  59.713  1.00  0.00     0.186 C 
ENDROOT
BRANCH   1   2
HETATM    2  C   UNL     1       5.712  33.375  60.820  1.00  0.00     0.084 C 
HETATM    3  C   UNL     1       6.308  33.385  62.173  1.00  0.00     0.008 A 
HETATM    4  C   UNL     1       7.486  32.698  62.498  1.00  0.00     0.014 A 
HETATM    5  C   UNL     1       5.649  34.121  63.150  1.00  0.00     0.046 A 
HETATM    6  C   UNL     1       8.001  32.764  63.796  1.00  0.00     0.001 A 
HETATM    7  C   UNL     1       7.344  33.512  64.770  1.00  0.00     0.001 A 
HETATM    8  C   UNL     1       6.168  34.190  64.451  1.00  0.00     0.018 A 
HETATM    9  C   UNL     1       4.393  34.812  62.816  1.00  0.00     0.275 C 
HETATM   10  O   UNL     1       3.852  35.511  63.671  1.00  0.00    -0.266 OA
HETATM   11  N   UNL     1       3.886  34.603  61.533  1.00  0.00    -0.229 N 
HETATM   12  N   UNL     1       4.573  33.938  60.540  1.00  0.00    -0.171 NA
BRANCH  11  13
HETATM   13  C   UNL     1       2.657  35.293  61.142  1.00  0.00     0.114 C 
HETATM   14  C   UNL     1       2.489  35.379  59.623  1.00  0.00     0.027 C 
HETATM   15  C   UNL     1       1.006  35.662  59.464  1.00  0.00     0.002 C 
HETATM   16  C   UNL     1       0.358  34.747  60.493  1.00  0.00     0.002 C 
HETATM   17  C   UNL     1       1.354  34.658  61.652  1.00  0.00     0.027 C 
ENDBRANCH  11  13
ENDBRANCH   1   2
BRANCH   1  18
HETATM   18  N   UNL     1       5.723  31.525  59.174  1.00  0.00    -0.337 N 
HETATM   19  C   UNL     1       6.349  30.680  58.296  1.00  0.00     0.317 C 
HETATM   20  N   UNL     1       5.547  29.625  57.954  1.00  0.00    -0.334 N 
HETATM   21  O   UNL     1       7.480  30.878  57.877  1.00  0.00    -0.247 OA
HETATM   22  H   UNL     1       4.563  29.833  58.036  1.00  0.00     0.165 HD
HETATM   23  H   UNL     1       5.003  31.139  59.771  1.00  0.00     0.164 HD
BRANCH  20  24
HETATM   24  C   UNL     1       5.913  28.619  56.947  1.00  0.00     0.035 C 
HETATM   25  C   UNL     1       4.904  27.442  56.897  1.00  0.00     0.035 C 
HETATM   26  C   UNL     1       5.300  26.432  55.804  1.00  0.00    -0.012 C 
HETATM   27  C   UNL     1       6.710  25.894  56.099  1.00  0.00     0.009 C 
HETATM   28  C   UNL     1       5.299  27.136  54.439  1.00  0.00     0.009 C 
HETATM   29  C   UNL     1       7.726  27.049  56.109  1.00  0.00    -0.012 C 
HETATM   30  C   UNL     1       7.334  28.058  57.203  1.00  0.00     0.035 C 
HETATM   31  C   UNL     1       7.709  27.752  54.742  1.00  0.00     0.009 C 
HETATM   32  C   UNL     1       6.303  28.299  54.449  1.00  0.00    -0.012 C 
HETATM   33  C   UNL     1       5.909  29.298  55.551  1.00  0.00     0.035 C 
ENDBRANCH  20  24
ENDBRANCH   1  18
TORSDOF 4
ENDMDL
MODEL 9
REMARK VINA RESULT:      -8.8      3.087      9.211
REMARK  4 active torsions:
REMARK  status: ('A' for Active; 'I' for Inactive)
REMARK    1  A    between atoms: N_7  and  C_8 
REMARK    2  A    between atoms: C_14  and  C_15 
REMARK    3  A    between atoms: C_15  and  N_16 
REMARK       I    between atoms: N_16  and  C_17 
REMARK       I    between atoms: C_17  and  N_18 
REMARK    4  A    between atoms: N_18  and  C_19 
ROOT
HETATM    1  C   UNL     1       3.787  26.914  47.675  1.00  0.00     0.186 C 
ENDROOT
BRANCH   1   2
HETATM    2  C   UNL     1       3.113  28.283  47.687  1.00  0.00     0.084 C 
HETATM    3  C   UNL     1       1.744  28.386  47.139  1.00  0.00     0.008 A 
HETATM    4  C   UNL     1       1.071  27.308  46.548  1.00  0.00     0.014 A 
HETATM    5  C   UNL     1       1.117  29.623  47.228  1.00  0.00     0.046 A 
HETATM    6  C   UNL     1      -0.230  27.474  46.065  1.00  0.00     0.001 A 
HETATM    7  C   UNL     1      -0.861  28.712  46.167  1.00  0.00     0.001 A 
HETATM    8  C   UNL     1      -0.190  29.788  46.746  1.00  0.00     0.018 A 
HETATM    9  C   UNL     1       1.839  30.763  47.817  1.00  0.00     0.275 C 
HETATM   10  O   UNL     1       1.253  31.835  47.948  1.00  0.00    -0.266 OA
HETATM   11  N   UNL     1       3.171  30.545  48.170  1.00  0.00    -0.229 N 
HETATM   12  N   UNL     1       3.771  29.304  48.154  1.00  0.00    -0.171 NA
BRANCH  11  13
HETATM   13  C   UNL     1       3.922  31.637  48.787  1.00  0.00     0.114 C 
HETATM   14  C   UNL     1       4.848  31.155  49.906  1.00  0.00     0.027 C 
HETATM   15  C   UNL     1       5.832  32.302  50.048  1.00  0.00     0.002 C 
HETATM   16  C   UNL     1       6.123  32.698  48.608  1.00  0.00     0.002 C 
HETATM   17  C   UNL     1       4.828  32.434  47.835  1.00  0.00     0.027 C 
ENDBRANCH  11  13
ENDBRANCH   1   2
BRANCH   1  18
HETATM   18  N   UNL     1       3.722  26.246  48.956  1.00  0.00    -0.337 N 
HETATM   19  C   UNL     1       4.712  26.483  49.874  1.00  0.00     0.317 C 
HETATM   20  N   UNL     1       4.456  25.855  51.063  1.00  0.00    -0.334 N 
HETATM   21  O   UNL     1       5.696  27.165  49.628  1.00  0.00    -0.247 OA
HETATM   22  H   UNL     1       3.872  25.037  50.961  1.00  0.00     0.165 HD
HETATM   23  H   UNL     1       2.795  26.036  49.304  1.00  0.00     0.164 HD
BRANCH  20  24
HETATM   24  C   UNL     1       5.397  25.842  52.193  1.00  0.00     0.035 C 
HETATM   25  C   UNL     1       6.830  25.435  51.760  1.00  0.00     0.035 C 
HETATM   26  C   UNL     1       7.792  25.472  52.962  1.00  0.00    -0.012 C 
HETATM   27  C   UNL     1       7.284  24.507  54.046  1.00  0.00     0.009 C 
HETATM   28  C   UNL     1       7.838  26.898  53.531  1.00  0.00     0.009 C 
HETATM   29  C   UNL     1       5.880  24.926  54.512  1.00  0.00    -0.012 C 
HETATM   30  C   UNL     1       4.915  24.886  53.314  1.00  0.00     0.035 C 
HETATM   31  C   UNL     1       5.936  26.358  55.070  1.00  0.00     0.009 C 
HETATM   32  C   UNL     1       6.434  27.326  53.986  1.00  0.00    -0.012 C 
HETATM   33  C   UNL     1       5.476  27.275  52.784  1.00  0.00     0.035 C 
ENDBRANCH  20  24
ENDBRANCH   1  18
TORSDOF 4
ENDMDL
MODEL 10
REMARK VINA RESULT:      -8.7      6.064     10.084
REMARK  4 active torsions:
REMARK  status: ('A' for Active; 'I' for Inactive)
REMARK    1  A    between atoms: N_7  and  C_8 
REMARK    2  A    between atoms: C_14  and  C_15 
REMARK    3  A    between atoms: C_15  and  N_16 
REMARK       I    between atoms: N_16  and  C_17 
REMARK       I    between atoms: C_17  and  N_18 
REMARK    4  A    between atoms: N_18  and  C_19 
ROOT
HETATM    1  C   UNL     1       7.940  30.253  58.211  1.00  0.00     0.186 C 
ENDROOT
BRANCH   1   2
HETATM    2  C   UNL     1       6.902  29.672  57.256  1.00  0.00     0.084 C 
HETATM    3  C   UNL     1       6.876  28.205  57.069  1.00  0.00     0.008 A 
HETATM    4  C   UNL     1       7.802  27.340  57.669  1.00  0.00     0.014 A 
HETATM    5  C   UNL     1       5.875  27.687  56.257  1.00  0.00     0.046 A 
HETATM    6  C   UNL     1       7.708  25.961  57.460  1.00  0.00     0.001 A 
HETATM    7  C   UNL     1       6.696  25.443  56.654  1.00  0.00     0.001 A 
HETATM    8  C   UNL     1       5.780  26.303  56.051  1.00  0.00     0.018 A 
HETATM    9  C   UNL     1       4.926  28.601  55.600  1.00  0.00     0.275 C 
HETATM   10  O   UNL     1       4.008  28.128  54.934  1.00  0.00    -0.266 OA
HETATM   11  N   UNL     1       5.157  29.967  55.766  1.00  0.00    -0.229 N 
HETATM   12  N   UNL     1       6.099  30.483  56.629  1.00  0.00    -0.171 NA
BRANCH  11  13
HETATM   13  C   UNL     1       4.224  30.916  55.159  1.00  0.00     0.114 C 
HETATM   14  C   UNL     1       2.926  31.055  55.956  1.00  0.00     0.027 C 
HETATM   15  C   UNL     1       2.362  32.373  55.455  1.00  0.00     0.002 C 
HETATM   16  C   UNL     1       3.587  33.272  55.370  1.00  0.00     0.002 C 
HETATM   17  C   UNL     1       4.752  32.351  55.003  1.00  0.00     0.027 C 
ENDBRANCH  11  13
ENDBRANCH   1   2
BRANCH   1  18
HETATM   18  N   UNL     1       7.437  30.409  59.558  1.00  0.00    -0.337 N 
HETATM   19  C   UNL     1       6.850  31.596  59.910  1.00  0.00     0.317 C 
HETATM   20  N   UNL     1       6.343  31.550  61.181  1.00  0.00    -0.334 N 
HETATM   21  O   UNL     1       6.811  32.564  59.164  1.00  0.00    -0.247 OA
HETATM   22  H   UNL     1       6.816  30.881  61.771  1.00  0.00     0.165 HD
HETATM   23  H   UNL     1       7.108  29.566  60.013  1.00  0.00     0.164 HD
BRANCH  20  24
HETATM   24  C   UNL     1       5.755  32.712  61.863  1.00  0.00     0.035 C 
HETATM   25  C   UNL     1       4.491  33.242  61.137  1.00  0.00     0.035 C 
HETATM   26  C   UNL     1       3.883  34.432  61.903  1.00  0.00    -0.012 C 
HETATM   27  C   UNL     1       4.929  35.554  62.009  1.00  0.00     0.009 C 
HETATM   28  C   UNL     1       3.482  33.975  63.313  1.00  0.00     0.009 C 
HETATM   29  C   UNL     1       6.171  35.050  62.764  1.00  0.00    -0.012 C 
HETATM   30  C   UNL     1       6.783  33.864  61.998  1.00  0.00     0.035 C 
HETATM   31  C   UNL     1       5.757  34.587  64.170  1.00  0.00     0.009 C 
HETATM   32  C   UNL     1       4.718  33.459  64.067  1.00  0.00    -0.012 C 
HETATM   33  C   UNL     1       5.327  32.279  63.291  1.00  0.00     0.035 C 
ENDBRANCH  20  24
ENDBRANCH   1  18
TORSDOF 4
ENDMDL
