MODEL 1
REMARK VINA RESULT:      -8.5      0.000      0.000
REMARK  4 active torsions:
REMARK  status: ('A' for Active; 'I' for Inactive)
REMARK    1  A    between atoms: S_2  and  N_3 
REMARK    2  A    between atoms: N_3  and  N_4 
REMARK    3  A    between atoms: C_10  and  C_11 
REMARK    4  A    between atoms: C_14  and  O_15 
ROOT
HETATM    1  N   UNL     1       7.267  24.684  53.948  1.00  0.00    -0.224 N 
HETATM    2  C   UNL     1       7.739  23.575  53.248  1.00  0.00     0.276 C 
HETATM    3  O   UNL     1       7.854  23.495  52.030  1.00  0.00    -0.266 OA
HETATM    4  C   UNL     1       8.070  22.388  54.074  1.00  0.00     0.055 A 
HETATM    5  C   UNL     1       7.795  22.425  55.448  1.00  0.00     0.026 A 
HETATM    6  N   UNL     1       7.220  23.562  56.042  1.00  0.00    -0.265 NA
HETATM    7  C   UNL     1       7.585  24.806  55.370  1.00  0.00     0.222 C 
HETATM    8  C   UNL     1       8.591  21.235  53.474  1.00  0.00     0.019 A 
HETATM    9  C   UNL     1       8.804  20.092  54.243  1.00  0.00     0.001 A 
HETATM   10  C   UNL     1       8.477  20.099  55.598  1.00  0.00     0.002 A 
HETATM   11  C   UNL     1       7.962  21.254  56.193  1.00  0.00     0.024 A 
HETATM   12  H   UNL     1       7.393  23.605  57.042  1.00  0.00     0.130 HD
ENDROOT
BRANCH   7  13
HETATM   13  C   UNL     1       6.887  25.958  56.081  1.00  0.00    -0.019 A 
HETATM   14  C   UNL     1       7.617  27.100  56.459  1.00  0.00     0.013 A 
HETATM   15  C   UNL     1       6.983  28.183  57.072  1.00  0.00     0.037 A 
HETATM   16  C   UNL     1       5.614  28.128  57.311  1.00  0.00     0.065 A 
HETATM   17  C   UNL     1       4.872  27.011  56.947  1.00  0.00     0.037 A 
HETATM   18  C   UNL     1       5.503  25.930  56.332  1.00  0.00     0.013 A 
BRANCH  16  19
HETATM   19  O   UNL     1       4.953  29.162  57.902  1.00  0.00    -0.361 OA
HETATM   20  H   UNL     1       5.554  29.607  58.523  1.00  0.00     0.217 HD
ENDBRANCH  16  19
ENDBRANCH   7  13
BRANCH   1  21
HETATM   21  N   UNL     1       6.927  25.947  53.243  1.00  0.00    -0.220 N 
HETATM   22  H   UNL     1       7.331  26.815  53.612  1.00  0.00     0.200 HD
BRANCH  21  23
HETATM   23  S   UNL     1       5.433  26.287  52.543  1.00  0.00     0.240 S 
HETATM   24  C   UNL     1       4.979  27.881  53.210  1.00  0.00     0.187 C 
HETATM   25  O   UNL     1       4.467  25.280  52.915  1.00  0.00    -0.205 OA
HETATM   26  O   UNL     1       5.751  26.501  51.143  1.00  0.00    -0.205 OA
ENDBRANCH  21  23
ENDBRANCH   1  21
TORSDOF 4
ENDMDL
MODEL 2
REMARK VINA RESULT:      -8.3      3.004      4.382
REMARK  4 active torsions:
REMARK  status: ('A' for Active; 'I' for Inactive)
REMARK    1  A    between atoms: S_2  and  N_3 
REMARK    2  A    between atoms: N_3  and  N_4 
REMARK    3  A    between atoms: C_10  and  C_11 
REMARK    4  A    between atoms: C_14  and  O_15 
ROOT
HETATM    1  N   UNL     1       7.298  27.894  55.852  1.00  0.00    -0.224 N 
HETATM    2  C   UNL     1       6.886  26.743  55.183  1.00  0.00     0.276 C 
HETATM    3  O   UNL     1       6.090  26.704  54.253  1.00  0.00    -0.266 OA
HETATM    4  C   UNL     1       7.436  25.468  55.704  1.00  0.00     0.055 A 
HETATM    5  C   UNL     1       8.225  25.496  56.863  1.00  0.00     0.026 A 
HETATM    6  N   UNL     1       8.498  26.706  57.524  1.00  0.00    -0.265 NA
HETATM    7  C   UNL     1       8.540  27.854  56.624  1.00  0.00     0.222 C 
HETATM    8  C   UNL     1       7.119  24.255  55.078  1.00  0.00     0.019 A 
HETATM    9  C   UNL     1       7.559  23.055  55.634  1.00  0.00     0.001 A 
HETATM   10  C   UNL     1       8.292  23.068  56.819  1.00  0.00     0.002 A 
HETATM   11  C   UNL     1       8.611  24.281  57.437  1.00  0.00     0.024 A 
HETATM   12  H   UNL     1       9.328  26.649  58.108  1.00  0.00     0.130 HD
ENDROOT
BRANCH   7  13
HETATM   13  C   UNL     1       8.815  29.103  57.451  1.00  0.00    -0.019 A 
HETATM   14  C   UNL     1       9.907  29.933  57.133  1.00  0.00     0.013 A 
HETATM   15  C   UNL     1      10.146  31.105  57.856  1.00  0.00     0.037 A 
HETATM   16  C   UNL     1       9.295  31.451  58.899  1.00  0.00     0.065 A 
HETATM   17  C   UNL     1       8.211  30.648  59.231  1.00  0.00     0.037 A 
HETATM   18  C   UNL     1       7.969  29.479  58.509  1.00  0.00     0.013 A 
BRANCH  16  19
HETATM   19  O   UNL     1       9.488  32.587  59.626  1.00  0.00    -0.361 OA
HETATM   20  H   UNL     1       8.937  32.548  60.425  1.00  0.00     0.217 HD
ENDBRANCH  16  19
ENDBRANCH   7  13
BRANCH   1  21
HETATM   21  N   UNL     1       6.844  29.240  55.414  1.00  0.00    -0.220 N 
HETATM   22  H   UNL     1       7.558  29.968  55.317  1.00  0.00     0.200 HD
BRANCH  21  23
HETATM   23  S   UNL     1       5.382  29.953  55.854  1.00  0.00     0.240 S 
HETATM   24  C   UNL     1       4.367  29.831  54.388  1.00  0.00     0.187 C 
HETATM   25  O   UNL     1       5.590  31.334  56.222  1.00  0.00    -0.205 OA
HETATM   26  O   UNL     1       4.824  29.024  56.820  1.00  0.00    -0.205 OA
ENDBRANCH  21  23
ENDBRANCH   1  21
TORSDOF 4
ENDMDL
MODEL 3
REMARK VINA RESULT:      -8.2      2.362      3.956
REMARK  4 active torsions:
REMARK  status: ('A' for Active; 'I' for Inactive)
REMARK    1  A    between atoms: S_2  and  N_3 
REMARK    2  A    between atoms: N_3  and  N_4 
REMARK    3  A    between atoms: C_10  and  C_11 
REMARK    4  A    between atoms: C_14  and  O_15 
ROOT
HETATM    1  N   UNL     1       7.629  24.690  54.928  1.00  0.00    -0.224 N 
HETATM    2  C   UNL     1       8.363  23.686  55.557  1.00  0.00     0.276 C 
HETATM    3  O   UNL     1       9.008  23.815  56.591  1.00  0.00    -0.266 OA
HETATM    4  C   UNL     1       8.388  22.377  54.859  1.00  0.00     0.055 A 
HETATM    5  C   UNL     1       7.779  22.272  53.601  1.00  0.00     0.026 A 
HETATM    6  N   UNL     1       7.150  23.378  53.006  1.00  0.00    -0.265 NA
HETATM    7  C   UNL     1       6.584  24.308  53.978  1.00  0.00     0.222 C 
HETATM    8  C   UNL     1       9.063  21.289  55.427  1.00  0.00     0.019 A 
HETATM    9  C   UNL     1       9.166  20.093  54.717  1.00  0.00     0.001 A 
HETATM   10  C   UNL     1       8.616  19.997  53.441  1.00  0.00     0.002 A 
HETATM   11  C   UNL     1       7.939  21.084  52.880  1.00  0.00     0.024 A 
HETATM   12  H   UNL     1       6.470  23.104  52.301  1.00  0.00     0.130 HD
ENDROOT
BRANCH   7  13
HETATM   13  C   UNL     1       5.957  25.471  53.222  1.00  0.00    -0.019 A 
HETATM   14  C   UNL     1       6.346  25.744  51.897  1.00  0.00     0.013 A 
HETATM   15  C   UNL     1       5.749  26.780  51.176  1.00  0.00     0.037 A 
HETATM   16  C   UNL     1       4.759  27.549  51.777  1.00  0.00     0.065 A 
HETATM   17  C   UNL     1       4.357  27.300  53.083  1.00  0.00     0.037 A 
HETATM   18  C   UNL     1       4.951  26.263  53.804  1.00  0.00     0.013 A 
BRANCH  16  19
HETATM   19  O   UNL     1       4.145  28.566  51.110  1.00  0.00    -0.361 OA
HETATM   20  H   UNL     1       3.328  28.804  51.578  1.00  0.00     0.217 HD
ENDBRANCH  16  19
ENDBRANCH   7  13
BRANCH   1  21
HETATM   21  N   UNL     1       7.498  26.039  55.536  1.00  0.00    -0.220 N 
HETATM   22  H   UNL     1       8.232  26.723  55.325  1.00  0.00     0.200 HD
BRANCH  21  23
HETATM   23  S   UNL     1       6.882  26.346  57.074  1.00  0.00     0.240 S 
HETATM   24  C   UNL     1       6.002  27.892  56.902  1.00  0.00     0.187 C 
HETATM   25  O   UNL     1       7.959  26.472  58.028  1.00  0.00    -0.205 OA
HETATM   26  O   UNL     1       5.875  25.316  57.253  1.00  0.00    -0.205 OA
ENDBRANCH  21  23
ENDBRANCH   1  21
TORSDOF 4
ENDMDL
MODEL 4
REMARK VINA RESULT:      -7.8      2.330      3.997
REMARK  4 active torsions:
REMARK  status: ('A' for Active; 'I' for Inactive)
REMARK    1  A    between atoms: S_2  and  N_3 
REMARK    2  A    between atoms: N_3  and  N_4 
REMARK    3  A    between atoms: C_10  and  C_11 
REMARK    4  A    between atoms: C_14  and  O_15 
ROOT
HETATM    1  N   UNL     1       6.855  24.935  55.047  1.00  0.00    -0.224 N 
HETATM    2  C   UNL     1       7.490  23.982  55.840  1.00  0.00     0.276 C 
HETATM    3  O   UNL     1       7.854  24.144  56.999  1.00  0.00    -0.266 OA
HETATM    4  C   UNL     1       7.786  22.689  55.175  1.00  0.00     0.055 A 
HETATM    5  C   UNL     1       7.509  22.555  53.808  1.00  0.00     0.026 A 
HETATM    6  N   UNL     1       6.959  23.618  53.072  1.00  0.00    -0.265 NA
HETATM    7  C   UNL     1       6.105  24.488  53.874  1.00  0.00     0.222 C 
HETATM    8  C   UNL     1       8.385  21.647  55.895  1.00  0.00     0.019 A 
HETATM    9  C   UNL     1       8.750  20.473  55.237  1.00  0.00     0.001 A 
HETATM   10  C   UNL     1       8.534  20.353  53.865  1.00  0.00     0.002 A 
HETATM   11  C   UNL     1       7.931  21.394  53.152  1.00  0.00     0.024 A 
HETATM   12  H   UNL     1       6.494  23.303  52.225  1.00  0.00     0.130 HD
ENDROOT
BRANCH   7  13
HETATM   13  C   UNL     1       5.591  25.611  52.983  1.00  0.00    -0.019 A 
HETATM   14  C   UNL     1       4.587  26.480  53.450  1.00  0.00     0.013 A 
HETATM   15  C   UNL     1       4.136  27.541  52.661  1.00  0.00     0.037 A 
HETATM   16  C   UNL     1       4.688  27.737  51.400  1.00  0.00     0.065 A 
HETATM   17  C   UNL     1       5.680  26.893  50.916  1.00  0.00     0.037 A 
HETATM   18  C   UNL     1       6.132  25.834  51.704  1.00  0.00     0.013 A 
BRANCH  16  19
HETATM   19  O   UNL     1       4.282  28.762  50.598  1.00  0.00    -0.361 OA
HETATM   20  H   UNL     1       4.464  29.605  51.046  1.00  0.00     0.217 HD
ENDBRANCH  16  19
ENDBRANCH   7  13
BRANCH   1  21
HETATM   21  N   UNL     1       6.477  26.262  55.599  1.00  0.00    -0.220 N 
HETATM   22  H   UNL     1       5.492  26.538  55.525  1.00  0.00     0.200 HD
BRANCH  21  23
HETATM   23  S   UNL     1       7.444  27.640  55.541  1.00  0.00     0.240 S 
HETATM   24  C   UNL     1       6.340  28.978  55.969  1.00  0.00     0.187 C 
HETATM   25  O   UNL     1       7.978  27.820  54.211  1.00  0.00    -0.205 OA
HETATM   26  O   UNL     1       8.346  27.474  56.666  1.00  0.00    -0.205 OA
ENDBRANCH  21  23
ENDBRANCH   1  21
TORSDOF 4
ENDMDL
MODEL 5
REMARK VINA RESULT:      -7.6      1.743      2.542
REMARK  4 active torsions:
REMARK  status: ('A' for Active; 'I' for Inactive)
REMARK    1  A    between atoms: S_2  and  N_3 
REMARK    2  A    between atoms: N_3  and  N_4 
REMARK    3  A    between atoms: C_10  and  C_11 
REMARK    4  A    between atoms: C_14  and  O_15 
ROOT
HETATM    1  N   UNL     1       6.948  26.818  53.759  1.00  0.00    -0.224 N 
HETATM    2  C   UNL     1       7.156  25.748  52.890  1.00  0.00     0.276 C 
HETATM    3  O   UNL     1       7.064  25.793  51.669  1.00  0.00    -0.266 OA
HETATM    4  C   UNL     1       7.458  24.447  53.535  1.00  0.00     0.055 A 
HETATM    5  C   UNL     1       7.411  24.361  54.934  1.00  0.00     0.026 A 
HETATM    6  N   UNL     1       7.089  25.480  55.719  1.00  0.00    -0.265 NA
HETATM    7  C   UNL     1       7.500  26.743  55.112  1.00  0.00     0.222 C 
HETATM    8  C   UNL     1       7.724  23.317  52.752  1.00  0.00     0.019 A 
HETATM    9  C   UNL     1       7.908  22.079  53.365  1.00  0.00     0.001 A 
HETATM   10  C   UNL     1       7.804  21.970  54.750  1.00  0.00     0.002 A 
HETATM   11  C   UNL     1       7.543  23.102  55.529  1.00  0.00     0.024 A 
HETATM   12  H   UNL     1       7.423  25.392  56.675  1.00  0.00     0.130 HD
ENDROOT
BRANCH   7  13
HETATM   13  C   UNL     1       7.078  27.879  56.034  1.00  0.00    -0.019 A 
HETATM   14  C   UNL     1       5.751  27.958  56.495  1.00  0.00     0.013 A 
HETATM   15  C   UNL     1       5.359  28.969  57.376  1.00  0.00     0.037 A 
HETATM   16  C   UNL     1       6.294  29.907  57.799  1.00  0.00     0.065 A 
HETATM   17  C   UNL     1       7.611  29.850  57.358  1.00  0.00     0.037 A 
HETATM   18  C   UNL     1       8.004  28.839  56.480  1.00  0.00     0.013 A 
BRANCH  16  19
HETATM   19  O   UNL     1       5.958  30.907  58.661  1.00  0.00    -0.361 OA
HETATM   20  H   UNL     1       6.187  30.635  59.566  1.00  0.00     0.217 HD
ENDBRANCH  16  19
ENDBRANCH   7  13
BRANCH   1  21
HETATM   21  N   UNL     1       6.666  28.182  53.242  1.00  0.00    -0.220 N 
HETATM   22  H   UNL     1       7.154  28.965  53.690  1.00  0.00     0.200 HD
BRANCH  21  23
HETATM   23  S   UNL     1       5.165  28.710  52.689  1.00  0.00     0.240 S 
HETATM   24  C   UNL     1       4.030  27.419  53.177  1.00  0.00     0.187 C 
HETATM   25  O   UNL     1       5.186  28.860  51.253  1.00  0.00    -0.205 OA
HETATM   26  O   UNL     1       4.872  29.856  53.530  1.00  0.00    -0.205 OA
ENDBRANCH  21  23
ENDBRANCH   1  21
TORSDOF 4
ENDMDL
MODEL 6
REMARK VINA RESULT:      -7.6      2.690      5.000
REMARK  4 active torsions:
REMARK  status: ('A' for Active; 'I' for Inactive)
REMARK    1  A    between atoms: S_2  and  N_3 
REMARK    2  A    between atoms: N_3  and  N_4 
REMARK    3  A    between atoms: C_10  and  C_11 
REMARK    4  A    between atoms: C_14  and  O_15 
ROOT
HETATM    1  N   UNL     1       5.329  25.955  53.639  1.00  0.00    -0.224 N 
HETATM    2  C   UNL     1       5.728  25.207  54.745  1.00  0.00     0.276 C 
HETATM    3  O   UNL     1       5.373  25.398  55.903  1.00  0.00    -0.266 OA
HETATM    4  C   UNL     1       6.709  24.129  54.470  1.00  0.00     0.055 A 
HETATM    5  C   UNL     1       7.232  24.008  53.175  1.00  0.00     0.026 A 
HETATM    6  N   UNL     1       6.838  24.883  52.149  1.00  0.00    -0.265 NA
HETATM    7  C   UNL     1       5.471  25.371  52.306  1.00  0.00     0.222 C 
HETATM    8  C   UNL     1       7.145  23.291  55.505  1.00  0.00     0.019 A 
HETATM    9  C   UNL     1       8.141  22.348  55.257  1.00  0.00     0.001 A 
HETATM   10  C   UNL     1       8.710  22.260  53.988  1.00  0.00     0.002 A 
HETATM   11  C   UNL     1       8.269  23.095  52.958  1.00  0.00     0.024 A 
HETATM   12  H   UNL     1       7.000  24.493  51.225  1.00  0.00     0.130 HD
ENDROOT
BRANCH   7  13
HETATM   13  C   UNL     1       5.167  26.325  51.159  1.00  0.00    -0.019 A 
HETATM   14  C   UNL     1       5.666  27.640  51.184  1.00  0.00     0.013 A 
HETATM   15  C   UNL     1       5.432  28.514  50.118  1.00  0.00     0.037 A 
HETATM   16  C   UNL     1       4.697  28.074  49.023  1.00  0.00     0.065 A 
HETATM   17  C   UNL     1       4.194  26.780  48.975  1.00  0.00     0.037 A 
HETATM   18  C   UNL     1       4.429  25.906  50.037  1.00  0.00     0.013 A 
BRANCH  16  19
HETATM   19  O   UNL     1       4.449  28.890  47.960  1.00  0.00    -0.361 OA
HETATM   20  H   UNL     1       5.157  29.552  47.897  1.00  0.00     0.217 HD
ENDBRANCH  16  19
ENDBRANCH   7  13
BRANCH   1  21
HETATM   21  N   UNL     1       4.328  27.046  53.773  1.00  0.00    -0.220 N 
HETATM   22  H   UNL     1       3.697  27.204  52.980  1.00  0.00     0.200 HD
BRANCH  21  23
HETATM   23  S   UNL     1       4.597  28.507  54.566  1.00  0.00     0.240 S 
HETATM   24  C   UNL     1       3.698  29.712  53.600  1.00  0.00     0.187 C 
HETATM   25  O   UNL     1       6.009  28.813  54.584  1.00  0.00    -0.205 OA
HETATM   26  O   UNL     1       3.874  28.358  55.815  1.00  0.00    -0.205 OA
ENDBRANCH  21  23
ENDBRANCH   1  21
TORSDOF 4
ENDMDL
MODEL 7
REMARK VINA RESULT:      -7.5      6.956     10.276
REMARK  4 active torsions:
REMARK  status: ('A' for Active; 'I' for Inactive)
REMARK    1  A    between atoms: S_2  and  N_3 
REMARK    2  A    between atoms: N_3  and  N_4 
REMARK    3  A    between atoms: C_10  and  C_11 
REMARK    4  A    between atoms: C_14  and  O_15 
ROOT
HETATM    1  N   UNL     1       6.544  32.506  59.786  1.00  0.00    -0.224 N 
HETATM    2  C   UNL     1       5.723  33.146  60.713  1.00  0.00     0.276 C 
HETATM    3  O   UNL     1       4.686  33.745  60.455  1.00  0.00    -0.266 OA
HETATM    4  C   UNL     1       6.205  33.127  62.117  1.00  0.00     0.055 A 
HETATM    5  C   UNL     1       7.464  32.576  62.390  1.00  0.00     0.026 A 
HETATM    6  N   UNL     1       8.262  32.046  61.362  1.00  0.00    -0.265 NA
HETATM    7  C   UNL     1       7.482  31.490  60.260  1.00  0.00     0.222 C 
HETATM    8  C   UNL     1       5.435  33.705  63.134  1.00  0.00     0.019 A 
HETATM    9  C   UNL     1       5.941  33.771  64.431  1.00  0.00     0.001 A 
HETATM   10  C   UNL     1       7.217  33.281  64.701  1.00  0.00     0.002 A 
HETATM   11  C   UNL     1       7.980  32.700  63.684  1.00  0.00     0.024 A 
HETATM   12  H   UNL     1       8.954  31.388  61.709  1.00  0.00     0.130 HD
ENDROOT
BRANCH   7  13
HETATM   13  C   UNL     1       8.447  30.973  59.202  1.00  0.00    -0.019 A 
HETATM   14  C   UNL     1       9.611  31.700  58.892  1.00  0.00     0.013 A 
HETATM   15  C   UNL     1      10.528  31.217  57.955  1.00  0.00     0.037 A 
HETATM   16  C   UNL     1      10.284  30.004  57.323  1.00  0.00     0.065 A 
HETATM   17  C   UNL     1       9.142  29.267  57.611  1.00  0.00     0.037 A 
HETATM   18  C   UNL     1       8.227  29.747  58.549  1.00  0.00     0.013 A 
BRANCH  16  19
HETATM   19  O   UNL     1      11.152  29.492  56.406  1.00  0.00    -0.361 OA
HETATM   20  H   UNL     1      10.724  29.488  55.533  1.00  0.00     0.217 HD
ENDBRANCH  16  19
ENDBRANCH   7  13
BRANCH   1  21
HETATM   21  N   UNL     1       6.163  32.427  58.352  1.00  0.00    -0.220 N 
HETATM   22  H   UNL     1       6.303  33.268  57.781  1.00  0.00     0.200 HD
BRANCH  21  23
HETATM   23  S   UNL     1       4.847  31.564  57.752  1.00  0.00     0.240 S 
HETATM   24  C   UNL     1       3.793  32.808  57.021  1.00  0.00     0.187 C 
HETATM   25  O   UNL     1       4.166  30.880  58.827  1.00  0.00    -0.205 OA
HETATM   26  O   UNL     1       5.408  30.802  56.652  1.00  0.00    -0.205 OA
ENDBRANCH  21  23
ENDBRANCH   1  21
TORSDOF 4
ENDMDL
MODEL 8
REMARK VINA RESULT:      -7.3      9.482     11.862
REMARK  4 active torsions:
REMARK  status: ('A' for Active; 'I' for Inactive)
REMARK    1  A    between atoms: S_2  and  N_3 
REMARK    2  A    between atoms: N_3  and  N_4 
REMARK    3  A    between atoms: C_10  and  C_11 
REMARK    4  A    between atoms: C_14  and  O_15 
ROOT
HETATM    1  N   UNL     1       5.444  33.659  61.507  1.00  0.00    -0.224 N 
HETATM    2  C   UNL     1       6.075  32.990  60.460  1.00  0.00     0.276 C 
HETATM    3  O   UNL     1       5.720  33.003  59.287  1.00  0.00    -0.266 OA
HETATM    4  C   UNL     1       7.242  32.156  60.842  1.00  0.00     0.055 A 
HETATM    5  C   UNL     1       7.556  32.018  62.201  1.00  0.00     0.026 A 
HETATM    6  N   UNL     1       6.789  32.656  63.191  1.00  0.00    -0.265 NA
HETATM    7  C   UNL     1       6.196  33.910  62.736  1.00  0.00     0.222 C 
HETATM    8  C   UNL     1       7.973  31.475  59.861  1.00  0.00     0.019 A 
HETATM    9  C   UNL     1       9.003  30.616  60.239  1.00  0.00     0.001 A 
HETATM   10  C   UNL     1       9.284  30.424  61.590  1.00  0.00     0.002 A 
HETATM   11  C   UNL     1       8.555  31.110  62.566  1.00  0.00     0.024 A 
HETATM   12  H   UNL     1       7.299  32.770  64.062  1.00  0.00     0.130 HD
ENDROOT
BRANCH   7  13
HETATM   13  C   UNL     1       5.372  34.493  63.877  1.00  0.00    -0.019 A 
HETATM   14  C   UNL     1       4.792  33.642  64.835  1.00  0.00     0.013 A 
HETATM   15  C   UNL     1       4.070  34.164  65.911  1.00  0.00     0.037 A 
HETATM   16  C   UNL     1       3.926  35.541  66.034  1.00  0.00     0.065 A 
HETATM   17  C   UNL     1       4.490  36.402  65.100  1.00  0.00     0.037 A 
HETATM   18  C   UNL     1       5.213  35.882  64.026  1.00  0.00     0.013 A 
BRANCH  16  19
HETATM   19  O   UNL     1       3.235  36.095  67.069  1.00  0.00    -0.361 OA
HETATM   20  H   UNL     1       3.509  37.021  67.173  1.00  0.00     0.217 HD
ENDBRANCH  16  19
ENDBRANCH   7  13
BRANCH   1  21
HETATM   21  N   UNL     1       4.282  34.550  61.257  1.00  0.00    -0.220 N 
HETATM   22  H   UNL     1       4.337  35.507  61.620  1.00  0.00     0.200 HD
BRANCH  21  23
HETATM   23  S   UNL     1       2.672  34.053  61.250  1.00  0.00     0.240 S 
HETATM   24  C   UNL     1       1.793  35.399  60.471  1.00  0.00     0.187 C 
HETATM   25  O   UNL     1       2.206  33.849  62.602  1.00  0.00    -0.205 OA
HETATM   26  O   UNL     1       2.657  32.950  60.307  1.00  0.00    -0.205 OA
ENDBRANCH  21  23
ENDBRANCH   1  21
TORSDOF 4
ENDMDL
MODEL 9
REMARK VINA RESULT:      -7.2      2.821      5.343
REMARK  4 active torsions:
REMARK  status: ('A' for Active; 'I' for Inactive)
REMARK    1  A    between atoms: S_2  and  N_3 
REMARK    2  A    between atoms: N_3  and  N_4 
REMARK    3  A    between atoms: C_10  and  C_11 
REMARK    4  A    between atoms: C_14  and  O_15 
ROOT
HETATM    1  N   UNL     1       7.449  26.476  54.676  1.00  0.00    -0.224 N 
HETATM    2  C   UNL     1       6.901  25.774  53.604  1.00  0.00     0.276 C 
HETATM    3  O   UNL     1       7.020  24.572  53.402  1.00  0.00    -0.266 OA
HETATM    4  C   UNL     1       6.164  26.594  52.611  1.00  0.00     0.055 A 
HETATM    5  C   UNL     1       6.157  27.988  52.759  1.00  0.00     0.026 A 
HETATM    6  N   UNL     1       6.830  28.607  53.826  1.00  0.00    -0.265 NA
HETATM    7  C   UNL     1       6.884  27.779  55.027  1.00  0.00     0.222 C 
HETATM    8  C   UNL     1       5.540  25.982  51.516  1.00  0.00     0.019 A 
HETATM    9  C   UNL     1       4.936  26.769  50.537  1.00  0.00     0.001 A 
HETATM   10  C   UNL     1       4.976  28.158  50.643  1.00  0.00     0.002 A 
HETATM   11  C   UNL     1       5.596  28.764  51.740  1.00  0.00     0.024 A 
HETATM   12  H   UNL     1       6.472  29.538  54.021  1.00  0.00     0.130 HD
ENDROOT
BRANCH   7  13
HETATM   13  C   UNL     1       7.654  28.538  56.099  1.00  0.00    -0.019 A 
HETATM   14  C   UNL     1       8.920  29.079  55.809  1.00  0.00     0.013 A 
HETATM   15  C   UNL     1       9.620  29.815  56.769  1.00  0.00     0.037 A 
HETATM   16  C   UNL     1       9.056  30.012  58.024  1.00  0.00     0.065 A 
HETATM   17  C   UNL     1       7.808  29.487  58.334  1.00  0.00     0.037 A 
HETATM   18  C   UNL     1       7.107  28.754  57.376  1.00  0.00     0.013 A 
BRANCH  16  19
HETATM   19  O   UNL     1       9.700  30.726  58.988  1.00  0.00    -0.361 OA
HETATM   20  H   UNL     1       9.042  31.099  59.598  1.00  0.00     0.217 HD
ENDBRANCH  16  19
ENDBRANCH   7  13
BRANCH   1  21
HETATM   21  N   UNL     1       8.187  25.771  55.756  1.00  0.00    -0.220 N 
HETATM   22  H   UNL     1       9.063  25.305  55.500  1.00  0.00     0.200 HD
BRANCH  21  23
HETATM   23  S   UNL     1       7.464  24.931  57.026  1.00  0.00     0.240 S 
HETATM   24  C   UNL     1       8.158  23.288  56.926  1.00  0.00     0.187 C 
HETATM   25  O   UNL     1       6.031  24.895  56.850  1.00  0.00    -0.205 OA
HETATM   26  O   UNL     1       8.031  25.547  58.212  1.00  0.00    -0.205 OA
ENDBRANCH  21  23
ENDBRANCH   1  21
TORSDOF 4
ENDMDL
MODEL 10
REMARK VINA RESULT:      -7.2      2.137      6.179
REMARK  4 active torsions:
REMARK  status: ('A' for Active; 'I' for Inactive)
REMARK    1  A    between atoms: S_2  and  N_3 
REMARK    2  A    between atoms: N_3  and  N_4 
REMARK    3  A    between atoms: C_10  and  C_11 
REMARK    4  A    between atoms: C_14  and  O_15 
ROOT
HETATM    1  N   UNL     1       5.753  27.701  55.278  1.00  0.00    -0.224 N 
HETATM    2  C   UNL     1       5.501  28.899  55.944  1.00  0.00     0.276 C 
HETATM    3  O   UNL     1       4.536  29.631  55.756  1.00  0.00    -0.266 OA
HETATM    4  C   UNL     1       6.537  29.322  56.918  1.00  0.00     0.055 A 
HETATM    5  C   UNL     1       7.713  28.566  57.023  1.00  0.00     0.026 A 
HETATM    6  N   UNL     1       7.914  27.425  56.227  1.00  0.00    -0.265 NA
HETATM    7  C   UNL     1       6.672  26.739  55.885  1.00  0.00     0.222 C 
HETATM    8  C   UNL     1       6.362  30.490  57.671  1.00  0.00     0.019 A 
HETATM    9  C   UNL     1       7.385  30.932  58.509  1.00  0.00     0.001 A 
HETATM   10  C   UNL     1       8.581  30.221  58.574  1.00  0.00     0.002 A 
HETATM   11  C   UNL     1       8.750  29.053  57.825  1.00  0.00     0.024 A 
HETATM   12  H   UNL     1       8.602  26.792  56.626  1.00  0.00     0.130 HD
ENDROOT
BRANCH   7  13
HETATM   13  C   UNL     1       7.011  25.542  55.006  1.00  0.00    -0.019 A 
HETATM   14  C   UNL     1       7.609  25.738  53.747  1.00  0.00     0.013 A 
HETATM   15  C   UNL     1       7.965  24.649  52.948  1.00  0.00     0.037 A 
HETATM   16  C   UNL     1       7.725  23.358  53.405  1.00  0.00     0.065 A 
HETATM   17  C   UNL     1       7.135  23.139  54.644  1.00  0.00     0.037 A 
HETATM   18  C   UNL     1       6.781  24.226  55.444  1.00  0.00     0.013 A 
BRANCH  16  19
HETATM   19  O   UNL     1       8.060  22.267  52.661  1.00  0.00    -0.361 OA
HETATM   20  H   UNL     1       8.990  22.043  52.830  1.00  0.00     0.217 HD
ENDBRANCH  16  19
ENDBRANCH   7  13
BRANCH   1  21
HETATM   21  N   UNL     1       4.781  27.150  54.299  1.00  0.00    -0.220 N 
HETATM   22  H   UNL     1       4.552  26.153  54.374  1.00  0.00     0.200 HD
BRANCH  21  23
HETATM   23  S   UNL     1       4.667  27.623  52.686  1.00  0.00     0.240 S 
HETATM   24  C   UNL     1       3.160  28.580  52.608  1.00  0.00     0.187 C 
HETATM   25  O   UNL     1       4.584  26.464  51.829  1.00  0.00    -0.205 OA
HETATM   26  O   UNL     1       5.761  28.563  52.526  1.00  0.00    -0.205 OA
ENDBRANCH  21  23
ENDBRANCH   1  21
TORSDOF 4
ENDMDL
