MODEL 1
REMARK VINA RESULT:      -9.6      0.000      0.000
REMARK  8 active torsions:
REMARK  status: ('A' for Active; 'I' for Inactive)
REMARK    1  A    between atoms: C_2  and  C_3 
REMARK    2  A    between atoms: C_3  and  C_4 
REMARK       I    between atoms: C_4  and  N_5 
REMARK    3  A    between atoms: N_8  and  C_9 
REMARK    4  A    between atoms: C_13  and  N_14 
REMARK    5  A    between atoms: N_14  and  C_15 
REMARK    6  A    between atoms: C_15  and  N_16 
REMARK       I    between atoms: N_16  and  C_17 
REMARK    7  A    between atoms: C_17  and  C_18 
REMARK    8  A    between atoms: C_20  and  O_21 
ROOT
HETATM    1  C   UNL     1       7.892  30.152  57.766  1.00  0.00     0.052 A 
HETATM    2  C   UNL     1       9.115  29.986  57.072  1.00  0.00     0.062 A 
HETATM    3 CL   UNL     1      10.572  30.783  57.577  1.00  0.00    -0.082 Cl
HETATM    4  C   UNL     1       9.192  29.244  55.877  1.00  0.00     0.055 A 
HETATM    5  C   UNL     1       8.039  28.701  55.312  1.00  0.00     0.036 A 
HETATM    6  C   UNL     1       6.846  28.788  56.020  1.00  0.00     0.032 A 
HETATM    7  C   UNL     1       6.776  29.496  57.224  1.00  0.00     0.033 A 
ENDROOT
BRANCH   5   8
HETATM    8  N   UNL     1       8.131  28.058  54.059  1.00  0.00    -0.333 N 
HETATM    9  H   UNL     1       8.867  28.383  53.430  1.00  0.00     0.168 HD
BRANCH   8  10
HETATM   10  C   UNL     1       7.236  27.191  53.475  1.00  0.00     0.179 C 
HETATM   11  S   UNL     1       5.872  27.542  52.566  1.00  0.00    -0.040 SA
BRANCH  10  12
HETATM   12  N   UNL     1       7.505  25.848  53.637  1.00  0.00    -0.299 N 
HETATM   13  C   UNL     1       7.117  24.979  54.645  1.00  0.00     0.257 C 
HETATM   14  O   UNL     1       6.571  25.331  55.686  1.00  0.00    -0.267 OA
HETATM   15  H   UNL     1       7.955  25.458  52.820  1.00  0.00     0.171 HD
BRANCH  13  16
HETATM   16  C   UNL     1       7.389  23.540  54.373  1.00  0.00     0.035 A 
HETATM   17  C   UNL     1       7.485  22.600  55.410  1.00  0.00     0.053 A 
HETATM   18  C   UNL     1       7.842  21.277  55.136  1.00  0.00     0.069 A 
HETATM   19  C   UNL     1       8.069  20.885  53.817  1.00  0.00     0.037 A 
HETATM   20  C   UNL     1       7.936  21.811  52.777  1.00  0.00     0.004 A 
HETATM   21  C   UNL     1       7.596  23.136  53.053  1.00  0.00     0.017 A 
BRANCH  18  22
HETATM   22  O   UNL     1       7.934  20.478  56.242  1.00  0.00    -0.356 OA
HETATM   23  C   UNL     1       8.409  21.085  57.438  1.00  0.00     0.210 C 
ENDBRANCH  18  22
ENDBRANCH  13  16
ENDBRANCH  10  12
ENDBRANCH   8  10
ENDBRANCH   5   8
BRANCH   1  24
HETATM   24  N   UNL     1       7.768  30.982  58.897  1.00  0.00    -0.376 N 
HETATM   25  C   UNL     1       8.319  30.437  60.156  1.00  0.00     0.143 C 
HETATM   26  C   UNL     1       8.473  31.570  61.198  1.00  0.00     0.145 C 
HETATM   27  N   UNL     1       7.239  32.356  61.377  1.00  0.00    -0.349 N 
HETATM   28  C   UNL     1       6.906  33.062  62.528  1.00  0.00     0.219 C 
HETATM   29  C   UNL     1       6.584  32.773  60.131  1.00  0.00     0.145 C 
HETATM   30  O   UNL     1       5.907  33.780  62.579  1.00  0.00    -0.273 OA
HETATM   31  C   UNL     1       6.457  31.636  59.110  1.00  0.00     0.143 C 
BRANCH  28  32
HETATM   32  C   UNL     1       7.825  32.897  63.730  1.00  0.00     0.103 C 
BRANCH  32  33
HETATM   33  C   UNL     1       7.641  33.983  64.794  1.00  0.00     0.005 C 
HETATM   34  C   UNL     1       6.470  33.711  65.729  1.00  0.00     0.005 C 
ENDBRANCH  32  33
ENDBRANCH  28  32
ENDBRANCH   1  24
TORSDOF 8
ENDMDL
MODEL 2
REMARK VINA RESULT:      -9.6      2.649     11.180
REMARK  8 active torsions:
REMARK  status: ('A' for Active; 'I' for Inactive)
REMARK    1  A    between atoms: C_2  and  C_3 
REMARK    2  A    between atoms: C_3  and  C_4 
REMARK       I    between atoms: C_4  and  N_5 
REMARK    3  A    between atoms: N_8  and  C_9 
REMARK    4  A    between atoms: C_13  and  N_14 
REMARK    5  A    between atoms: N_14  and  C_15 
REMARK    6  A    between atoms: C_15  and  N_16 
REMARK       I    between atoms: N_16  and  C_17 
REMARK    7  A    between atoms: C_17  and  C_18 
REMARK    8  A    between atoms: C_20  and  O_21 
ROOT
HETATM    1  C   UNL     1       6.953  27.759  56.941  1.00  0.00     0.052 A 
HETATM    2  C   UNL     1       5.736  28.483  56.914  1.00  0.00     0.062 A 
HETATM    3 CL   UNL     1       4.361  27.932  56.009  1.00  0.00    -0.082 Cl
HETATM    4  C   UNL     1       5.609  29.739  57.538  1.00  0.00     0.055 A 
HETATM    5  C   UNL     1       6.710  30.333  58.153  1.00  0.00     0.036 A 
HETATM    6  C   UNL     1       7.889  29.602  58.257  1.00  0.00     0.032 A 
HETATM    7  C   UNL     1       8.004  28.339  57.666  1.00  0.00     0.033 A 
ENDROOT
BRANCH   5   8
HETATM    8  N   UNL     1       6.581  31.639  58.672  1.00  0.00    -0.333 N 
HETATM    9  H   UNL     1       7.435  32.193  58.736  1.00  0.00     0.168 HD
BRANCH   8  10
HETATM   10  C   UNL     1       5.496  32.204  59.304  1.00  0.00     0.179 C 
HETATM   11  S   UNL     1       4.036  32.697  58.646  1.00  0.00    -0.040 SA
BRANCH  10  12
HETATM   12  N   UNL     1       5.612  32.369  60.668  1.00  0.00    -0.299 N 
HETATM   13  C   UNL     1       6.688  32.121  61.506  1.00  0.00     0.257 C 
HETATM   14  O   UNL     1       7.712  31.539  61.159  1.00  0.00    -0.267 OA
HETATM   15  H   UNL     1       4.810  32.850  61.053  1.00  0.00     0.171 HD
BRANCH  13  16
HETATM   16  C   UNL     1       6.537  32.641  62.894  1.00  0.00     0.035 A 
HETATM   17  C   UNL     1       5.275  32.863  63.463  1.00  0.00     0.053 A 
HETATM   18  C   UNL     1       5.161  33.448  64.727  1.00  0.00     0.069 A 
HETATM   19  C   UNL     1       6.314  33.779  65.438  1.00  0.00     0.037 A 
HETATM   20  C   UNL     1       7.575  33.524  64.889  1.00  0.00     0.004 A 
HETATM   21  C   UNL     1       7.688  32.955  63.620  1.00  0.00     0.017 A 
BRANCH  18  22
HETATM   22  O   UNL     1       3.873  33.640  65.145  1.00  0.00    -0.356 OA
HETATM   23  C   UNL     1       3.604  34.829  65.879  1.00  0.00     0.210 C 
ENDBRANCH  18  22
ENDBRANCH  13  16
ENDBRANCH  10  12
ENDBRANCH   8  10
ENDBRANCH   5   8
BRANCH   1  24
HETATM   24  N   UNL     1       7.137  26.558  56.229  1.00  0.00    -0.376 N 
HETATM   25  C   UNL     1       8.184  25.656  56.754  1.00  0.00     0.143 C 
HETATM   26  C   UNL     1       8.019  24.245  56.143  1.00  0.00     0.145 C 
HETATM   27  N   UNL     1       7.930  24.263  54.672  1.00  0.00    -0.349 N 
HETATM   28  C   UNL     1       8.274  23.203  53.841  1.00  0.00     0.219 C 
HETATM   29  C   UNL     1       7.012  25.267  54.121  1.00  0.00     0.145 C 
HETATM   30  O   UNL     1       8.084  23.247  52.626  1.00  0.00    -0.273 OA
HETATM   31  C   UNL     1       7.186  26.653  54.752  1.00  0.00     0.143 C 
BRANCH  28  32
HETATM   32  C   UNL     1       8.912  21.988  54.499  1.00  0.00     0.103 C 
BRANCH  32  33
HETATM   33  C   UNL     1       7.972  20.784  54.603  1.00  0.00     0.005 C 
HETATM   34  C   UNL     1       7.695  20.364  56.041  1.00  0.00     0.005 C 
ENDBRANCH  32  33
ENDBRANCH  28  32
ENDBRANCH   1  24
TORSDOF 8
ENDMDL
MODEL 3
REMARK VINA RESULT:      -9.5      2.333     11.169
REMARK  8 active torsions:
REMARK  status: ('A' for Active; 'I' for Inactive)
REMARK    1  A    between atoms: C_2  and  C_3 
REMARK    2  A    between atoms: C_3  and  C_4 
REMARK       I    between atoms: C_4  and  N_5 
REMARK    3  A    between atoms: N_8  and  C_9 
REMARK    4  A    between atoms: C_13  and  N_14 
REMARK    5  A    between atoms: N_14  and  C_15 
REMARK    6  A    between atoms: C_15  and  N_16 
REMARK       I    between atoms: N_16  and  C_17 
REMARK    7  A    between atoms: C_17  and  C_18 
REMARK    8  A    between atoms: C_20  and  O_21 
ROOT
HETATM    1  C   UNL     1       7.269  28.426  56.969  1.00  0.00     0.052 A 
HETATM    2  C   UNL     1       8.286  29.353  57.308  1.00  0.00     0.062 A 
HETATM    3 CL   UNL     1       9.970  28.952  57.181  1.00  0.00    -0.082 Cl
HETATM    4  C   UNL     1       7.984  30.613  57.859  1.00  0.00     0.055 A 
HETATM    5  C   UNL     1       6.664  30.958  58.143  1.00  0.00     0.036 A 
HETATM    6  C   UNL     1       5.650  30.093  57.745  1.00  0.00     0.032 A 
HETATM    7  C   UNL     1       5.948  28.855  57.167  1.00  0.00     0.033 A 
ENDROOT
BRANCH   5   8
HETATM    8  N   UNL     1       6.403  32.182  58.796  1.00  0.00    -0.333 N 
HETATM    9  H   UNL     1       7.191  32.822  58.900  1.00  0.00     0.168 HD
BRANCH   8  10
HETATM   10  C   UNL     1       5.281  32.552  59.502  1.00  0.00     0.179 C 
HETATM   11  S   UNL     1       3.737  32.868  58.932  1.00  0.00    -0.040 SA
BRANCH  10  12
HETATM   12  N   UNL     1       5.437  32.659  60.868  1.00  0.00    -0.299 N 
HETATM   13  C   UNL     1       6.521  32.332  61.668  1.00  0.00     0.257 C 
HETATM   14  O   UNL     1       7.509  31.720  61.273  1.00  0.00    -0.267 OA
HETATM   15  H   UNL     1       4.667  33.159  61.291  1.00  0.00     0.171 HD
BRANCH  13  16
HETATM   16  C   UNL     1       6.427  32.804  63.078  1.00  0.00     0.035 A 
HETATM   17  C   UNL     1       5.189  32.992  63.709  1.00  0.00     0.053 A 
HETATM   18  C   UNL     1       5.125  33.533  64.996  1.00  0.00     0.069 A 
HETATM   19  C   UNL     1       6.305  33.854  65.667  1.00  0.00     0.037 A 
HETATM   20  C   UNL     1       7.543  33.632  65.054  1.00  0.00     0.004 A 
HETATM   21  C   UNL     1       7.605  33.107  63.762  1.00  0.00     0.017 A 
BRANCH  18  22
HETATM   22  O   UNL     1       3.855  33.696  65.477  1.00  0.00    -0.356 OA
HETATM   23  C   UNL     1       3.568  34.923  66.138  1.00  0.00     0.210 C 
ENDBRANCH  18  22
ENDBRANCH  13  16
ENDBRANCH  10  12
ENDBRANCH   8  10
ENDBRANCH   5   8
BRANCH   1  24
HETATM   24  N   UNL     1       7.550  27.120  56.526  1.00  0.00    -0.376 N 
HETATM   25  C   UNL     1       6.821  26.683  55.316  1.00  0.00     0.143 C 
HETATM   26  C   UNL     1       7.492  25.422  54.723  1.00  0.00     0.145 C 
HETATM   27  N   UNL     1       7.688  24.354  55.719  1.00  0.00    -0.349 N 
HETATM   28  C   UNL     1       7.783  22.998  55.424  1.00  0.00     0.219 C 
HETATM   29  C   UNL     1       8.266  24.797  56.995  1.00  0.00     0.145 C 
HETATM   30  O   UNL     1       8.045  22.166  56.292  1.00  0.00    -0.273 OA
HETATM   31  C   UNL     1       7.593  26.055  57.554  1.00  0.00     0.143 C 
BRANCH  28  32
HETATM   32  C   UNL     1       7.531  22.586  53.981  1.00  0.00     0.103 C 
BRANCH  32  33
HETATM   33  C   UNL     1       8.693  21.811  53.355  1.00  0.00     0.005 C 
HETATM   34  C   UNL     1       8.304  20.407  52.909  1.00  0.00     0.005 C 
ENDBRANCH  32  33
ENDBRANCH  28  32
ENDBRANCH   1  24
TORSDOF 8
ENDMDL
MODEL 4
REMARK VINA RESULT:      -9.4      2.266      2.872
REMARK  8 active torsions:
REMARK  status: ('A' for Active; 'I' for Inactive)
REMARK    1  A    between atoms: C_2  and  C_3 
REMARK    2  A    between atoms: C_3  and  C_4 
REMARK       I    between atoms: C_4  and  N_5 
REMARK    3  A    between atoms: N_8  and  C_9 
REMARK    4  A    between atoms: C_13  and  N_14 
REMARK    5  A    between atoms: N_14  and  C_15 
REMARK    6  A    between atoms: C_15  and  N_16 
REMARK       I    between atoms: N_16  and  C_17 
REMARK    7  A    between atoms: C_17  and  C_18 
REMARK    8  A    between atoms: C_20  and  O_21 
ROOT
HETATM    1  C   UNL     1       5.616  29.401  56.085  1.00  0.00     0.052 A 
HETATM    2  C   UNL     1       4.940  29.786  54.902  1.00  0.00     0.062 A 
HETATM    3 CL   UNL     1       4.444  31.427  54.623  1.00  0.00    -0.082 Cl
HETATM    4  C   UNL     1       4.545  28.843  53.934  1.00  0.00     0.055 A 
HETATM    5  C   UNL     1       4.761  27.483  54.150  1.00  0.00     0.036 A 
HETATM    6  C   UNL     1       5.493  27.094  55.267  1.00  0.00     0.032 A 
HETATM    7  C   UNL     1       5.915  28.035  56.211  1.00  0.00     0.033 A 
ENDROOT
BRANCH   5   8
HETATM    8  N   UNL     1       4.257  26.554  53.214  1.00  0.00    -0.333 N 
HETATM    9  H   UNL     1       3.294  26.244  53.350  1.00  0.00     0.168 HD
BRANCH   8  10
HETATM   10  C   UNL     1       4.946  25.843  52.258  1.00  0.00     0.179 C 
HETATM   11  S   UNL     1       5.041  26.119  50.608  1.00  0.00    -0.040 SA
BRANCH  10  12
HETATM   12  N   UNL     1       5.678  24.769  52.718  1.00  0.00    -0.299 N 
HETATM   13  C   UNL     1       7.052  24.583  52.764  1.00  0.00     0.257 C 
HETATM   14  O   UNL     1       7.866  25.330  52.232  1.00  0.00    -0.267 OA
HETATM   15  H   UNL     1       5.090  24.091  53.184  1.00  0.00     0.171 HD
BRANCH  13  16
HETATM   16  C   UNL     1       7.499  23.397  53.547  1.00  0.00     0.035 A 
HETATM   17  C   UNL     1       7.667  23.454  54.937  1.00  0.00     0.053 A 
HETATM   18  C   UNL     1       8.186  22.358  55.634  1.00  0.00     0.069 A 
HETATM   19  C   UNL     1       8.503  21.190  54.941  1.00  0.00     0.037 A 
HETATM   20  C   UNL     1       8.300  21.117  53.559  1.00  0.00     0.004 A 
HETATM   21  C   UNL     1       7.798  22.217  52.862  1.00  0.00     0.017 A 
BRANCH  18  22
HETATM   22  O   UNL     1       8.332  22.563  56.978  1.00  0.00    -0.356 OA
HETATM   23  C   UNL     1       8.678  23.879  57.396  1.00  0.00     0.210 C 
ENDBRANCH  18  22
ENDBRANCH  13  16
ENDBRANCH  10  12
ENDBRANCH   8  10
ENDBRANCH   5   8
BRANCH   1  24
HETATM   24  N   UNL     1       5.918  30.309  57.117  1.00  0.00    -0.376 N 
HETATM   25  C   UNL     1       7.125  29.997  57.914  1.00  0.00     0.143 C 
HETATM   26  C   UNL     1       7.555  31.240  58.727  1.00  0.00     0.145 C 
HETATM   27  N   UNL     1       6.453  31.819  59.516  1.00  0.00    -0.349 N 
HETATM   28  C   UNL     1       6.614  32.573  60.673  1.00  0.00     0.219 C 
HETATM   29  C   UNL     1       5.191  31.989  58.784  1.00  0.00     0.145 C 
HETATM   30  O   UNL     1       5.658  33.112  61.231  1.00  0.00    -0.273 OA
HETATM   31  C   UNL     1       4.794  30.749  57.976  1.00  0.00     0.143 C 
BRANCH  28  32
HETATM   32  C   UNL     1       8.025  32.690  61.231  1.00  0.00     0.103 C 
BRANCH  32  33
HETATM   33  C   UNL     1       8.218  31.964  62.565  1.00  0.00     0.005 C 
HETATM   34  C   UNL     1       7.862  32.825  63.771  1.00  0.00     0.005 C 
ENDBRANCH  32  33
ENDBRANCH  28  32
ENDBRANCH   1  24
TORSDOF 8
ENDMDL
MODEL 5
REMARK VINA RESULT:      -9.3      2.673      4.300
REMARK  8 active torsions:
REMARK  status: ('A' for Active; 'I' for Inactive)
REMARK    1  A    between atoms: C_2  and  C_3 
REMARK    2  A    between atoms: C_3  and  C_4 
REMARK       I    between atoms: C_4  and  N_5 
REMARK    3  A    between atoms: N_8  and  C_9 
REMARK    4  A    between atoms: C_13  and  N_14 
REMARK    5  A    between atoms: N_14  and  C_15 
REMARK    6  A    between atoms: C_15  and  N_16 
REMARK       I    between atoms: N_16  and  C_17 
REMARK    7  A    between atoms: C_17  and  C_18 
REMARK    8  A    between atoms: C_20  and  O_21 
ROOT
HETATM    1  C   UNL     1       7.108  32.079  61.035  1.00  0.00     0.052 A 
HETATM    2  C   UNL     1       6.424  32.371  59.830  1.00  0.00     0.062 A 
HETATM    3 CL   UNL     1       5.117  33.513  59.771  1.00  0.00    -0.082 Cl
HETATM    4  C   UNL     1       6.702  31.679  58.635  1.00  0.00     0.055 A 
HETATM    5  C   UNL     1       7.626  30.635  58.626  1.00  0.00     0.036 A 
HETATM    6  C   UNL     1       8.362  30.388  59.780  1.00  0.00     0.032 A 
HETATM    7  C   UNL     1       8.109  31.099  60.958  1.00  0.00     0.033 A 
ENDROOT
BRANCH   5   8
HETATM    8  N   UNL     1       7.801  29.889  57.441  1.00  0.00    -0.333 N 
HETATM    9  H   UNL     1       6.961  29.691  56.896  1.00  0.00     0.168 HD
BRANCH   8  10
HETATM   10  C   UNL     1       8.919  29.208  57.018  1.00  0.00     0.179 C 
HETATM   11  S   UNL     1      10.518  29.710  57.013  1.00  0.00    -0.040 SA
BRANCH  10  12
HETATM   12  N   UNL     1       8.704  27.927  56.553  1.00  0.00    -0.299 N 
HETATM   13  C   UNL     1       8.094  26.847  57.172  1.00  0.00     0.257 C 
HETATM   14  O   UNL     1       7.768  26.825  58.355  1.00  0.00    -0.267 OA
HETATM   15  H   UNL     1       8.940  27.843  55.574  1.00  0.00     0.171 HD
BRANCH  13  16
HETATM   16  C   UNL     1       7.822  25.684  56.282  1.00  0.00     0.035 A 
HETATM   17  C   UNL     1       7.266  25.848  55.006  1.00  0.00     0.053 A 
HETATM   18  C   UNL     1       6.927  24.735  54.232  1.00  0.00     0.069 A 
HETATM   19  C   UNL     1       7.177  23.454  54.723  1.00  0.00     0.037 A 
HETATM   20  C   UNL     1       7.767  23.287  55.980  1.00  0.00     0.004 A 
HETATM   21  C   UNL     1       8.091  24.399  56.759  1.00  0.00     0.017 A 
BRANCH  18  22
HETATM   22  O   UNL     1       6.359  25.039  53.025  1.00  0.00    -0.356 OA
HETATM   23  C   UNL     1       4.952  24.863  52.912  1.00  0.00     0.210 C 
ENDBRANCH  18  22
ENDBRANCH  13  16
ENDBRANCH  10  12
ENDBRANCH   8  10
ENDBRANCH   5   8
BRANCH   1  24
HETATM   24  N   UNL     1       6.769  32.676  62.264  1.00  0.00    -0.376 N 
HETATM   25  C   UNL     1       7.800  32.598  63.321  1.00  0.00     0.143 C 
HETATM   26  C   UNL     1       7.474  33.604  64.450  1.00  0.00     0.145 C 
HETATM   27  N   UNL     1       6.095  33.474  64.953  1.00  0.00    -0.349 N 
HETATM   28  C   UNL     1       5.673  33.846  66.225  1.00  0.00     0.219 C 
HETATM   29  C   UNL     1       5.063  33.386  63.912  1.00  0.00     0.145 C 
HETATM   30  O   UNL     1       4.487  33.804  66.550  1.00  0.00    -0.273 OA
HETATM   31  C   UNL     1       5.416  32.395  62.798  1.00  0.00     0.143 C 
BRANCH  28  32
HETATM   32  C   UNL     1       6.748  34.293  67.205  1.00  0.00     0.103 C 
BRANCH  32  33
HETATM   33  C   UNL     1       6.207  34.614  68.601  1.00  0.00     0.005 C 
HETATM   34  C   UNL     1       7.150  35.484  69.423  1.00  0.00     0.005 C 
ENDBRANCH  32  33
ENDBRANCH  28  32
ENDBRANCH   1  24
TORSDOF 8
ENDMDL
MODEL 6
REMARK VINA RESULT:      -9.1      2.234      2.905
REMARK  8 active torsions:
REMARK  status: ('A' for Active; 'I' for Inactive)
REMARK    1  A    between atoms: C_2  and  C_3 
REMARK    2  A    between atoms: C_3  and  C_4 
REMARK       I    between atoms: C_4  and  N_5 
REMARK    3  A    between atoms: N_8  and  C_9 
REMARK    4  A    between atoms: C_13  and  N_14 
REMARK    5  A    between atoms: N_14  and  C_15 
REMARK    6  A    between atoms: C_15  and  N_16 
REMARK       I    between atoms: N_16  and  C_17 
REMARK    7  A    between atoms: C_17  and  C_18 
REMARK    8  A    between atoms: C_20  and  O_21 
ROOT
HETATM    1  C   UNL     1       5.304  29.878  56.556  1.00  0.00     0.052 A 
HETATM    2  C   UNL     1       4.861  30.274  55.270  1.00  0.00     0.062 A 
HETATM    3 CL   UNL     1       4.544  31.937  54.882  1.00  0.00    -0.082 Cl
HETATM    4  C   UNL     1       4.560  29.332  54.268  1.00  0.00     0.055 A 
HETATM    5  C   UNL     1       4.633  27.967  54.542  1.00  0.00     0.036 A 
HETATM    6  C   UNL     1       5.141  27.562  55.772  1.00  0.00     0.032 A 
HETATM    7  C   UNL     1       5.472  28.499  56.756  1.00  0.00     0.033 A 
ENDROOT
BRANCH   5   8
HETATM    8  N   UNL     1       4.220  27.049  53.553  1.00  0.00    -0.333 N 
HETATM    9  H   UNL     1       3.238  26.771  53.568  1.00  0.00     0.168 HD
BRANCH   8  10
HETATM   10  C   UNL     1       5.000  26.309  52.694  1.00  0.00     0.179 C 
HETATM   11  S   UNL     1       5.180  26.470  51.036  1.00  0.00    -0.040 SA
BRANCH  10  12
HETATM   12  N   UNL     1       5.755  25.311  53.274  1.00  0.00    -0.299 N 
HETATM   13  C   UNL     1       7.102  25.293  53.604  1.00  0.00     0.257 C 
HETATM   14  O   UNL     1       7.904  26.159  53.271  1.00  0.00    -0.267 OA
HETATM   15  H   UNL     1       5.177  24.545  53.591  1.00  0.00     0.171 HD
BRANCH  13  16
HETATM   16  C   UNL     1       7.529  24.134  54.436  1.00  0.00     0.035 A 
HETATM   17  C   UNL     1       7.541  22.827  53.927  1.00  0.00     0.053 A 
HETATM   18  C   UNL     1       7.847  21.746  54.759  1.00  0.00     0.069 A 
HETATM   19  C   UNL     1       8.176  21.977  56.094  1.00  0.00     0.037 A 
HETATM   20  C   UNL     1       8.202  23.282  56.595  1.00  0.00     0.004 A 
HETATM   21  C   UNL     1       7.880  24.360  55.768  1.00  0.00     0.017 A 
BRANCH  18  22
HETATM   22  O   UNL     1       7.785  20.527  54.142  1.00  0.00    -0.356 OA
HETATM   23  C   UNL     1       8.323  20.441  52.828  1.00  0.00     0.210 C 
ENDBRANCH  18  22
ENDBRANCH  13  16
ENDBRANCH  10  12
ENDBRANCH   8  10
ENDBRANCH   5   8
BRANCH   1  24
HETATM   24  N   UNL     1       5.500  30.793  57.607  1.00  0.00    -0.376 N 
HETATM   25  C   UNL     1       6.714  30.581  58.424  1.00  0.00     0.143 C 
HETATM   26  C   UNL     1       7.013  31.846  59.263  1.00  0.00     0.145 C 
HETATM   27  N   UNL     1       5.847  32.309  60.037  1.00  0.00    -0.349 N 
HETATM   28  C   UNL     1       5.915  33.056  61.207  1.00  0.00     0.219 C 
HETATM   29  C   UNL     1       4.589  32.373  59.281  1.00  0.00     0.145 C 
HETATM   30  O   UNL     1       4.903  33.496  61.752  1.00  0.00    -0.273 OA
HETATM   31  C   UNL     1       4.324  31.115  58.447  1.00  0.00     0.143 C 
BRANCH  28  32
HETATM   32  C   UNL     1       7.299  33.293  61.796  1.00  0.00     0.103 C 
BRANCH  32  33
HETATM   33  C   UNL     1       7.607  32.411  63.009  1.00  0.00     0.005 C 
HETATM   34  C   UNL     1       7.597  33.180  64.324  1.00  0.00     0.005 C 
ENDBRANCH  32  33
ENDBRANCH  28  32
ENDBRANCH   1  24
TORSDOF 8
ENDMDL
MODEL 7
REMARK VINA RESULT:      -9.0      2.293      3.045
REMARK  8 active torsions:
REMARK  status: ('A' for Active; 'I' for Inactive)
REMARK    1  A    between atoms: C_2  and  C_3 
REMARK    2  A    between atoms: C_3  and  C_4 
REMARK       I    between atoms: C_4  and  N_5 
REMARK    3  A    between atoms: N_8  and  C_9 
REMARK    4  A    between atoms: C_13  and  N_14 
REMARK    5  A    between atoms: N_14  and  C_15 
REMARK    6  A    between atoms: C_15  and  N_16 
REMARK       I    between atoms: N_16  and  C_17 
REMARK    7  A    between atoms: C_17  and  C_18 
REMARK    8  A    between atoms: C_20  and  O_21 
ROOT
HETATM    1  C   UNL     1       6.011  29.132  56.406  1.00  0.00     0.052 A 
HETATM    2  C   UNL     1       4.640  29.180  56.054  1.00  0.00     0.062 A 
HETATM    3 CL   UNL     1       3.478  30.049  57.010  1.00  0.00    -0.082 Cl
HETATM    4  C   UNL     1       4.129  28.445  54.968  1.00  0.00     0.055 A 
HETATM    5  C   UNL     1       4.961  27.594  54.241  1.00  0.00     0.036 A 
HETATM    6  C   UNL     1       6.323  27.596  54.523  1.00  0.00     0.032 A 
HETATM    7  C   UNL     1       6.836  28.353  55.581  1.00  0.00     0.033 A 
ENDROOT
BRANCH   5   8
HETATM    8  N   UNL     1       4.397  26.788  53.229  1.00  0.00    -0.333 N 
HETATM    9  H   UNL     1       3.393  26.612  53.290  1.00  0.00     0.168 HD
BRANCH   8  10
HETATM   10  C   UNL     1       5.044  26.028  52.282  1.00  0.00     0.179 C 
HETATM   11  S   UNL     1       5.134  26.266  50.625  1.00  0.00    -0.040 SA
BRANCH  10  12
HETATM   12  N   UNL     1       5.733  24.932  52.757  1.00  0.00    -0.299 N 
HETATM   13  C   UNL     1       7.095  24.672  52.763  1.00  0.00     0.257 C 
HETATM   14  O   UNL     1       7.929  25.353  52.176  1.00  0.00    -0.267 OA
HETATM   15  H   UNL     1       5.126  24.305  53.268  1.00  0.00     0.171 HD
BRANCH  13  16
HETATM   16  C   UNL     1       7.505  23.491  53.574  1.00  0.00     0.035 A 
HETATM   17  C   UNL     1       7.721  23.587  54.956  1.00  0.00     0.053 A 
HETATM   18  C   UNL     1       8.204  22.491  55.676  1.00  0.00     0.069 A 
HETATM   19  C   UNL     1       8.438  21.285  55.016  1.00  0.00     0.037 A 
HETATM   20  C   UNL     1       8.187  21.174  53.645  1.00  0.00     0.004 A 
HETATM   21  C   UNL     1       7.720  22.275  52.924  1.00  0.00     0.017 A 
BRANCH  18  22
HETATM   22  O   UNL     1       8.404  22.734  57.007  1.00  0.00    -0.356 OA
HETATM   23  C   UNL     1       8.703  24.075  57.379  1.00  0.00     0.210 C 
ENDBRANCH  18  22
ENDBRANCH  13  16
ENDBRANCH  10  12
ENDBRANCH   8  10
ENDBRANCH   5   8
BRANCH   1  24
HETATM   24  N   UNL     1       6.523  29.766  57.554  1.00  0.00    -0.376 N 
HETATM   25  C   UNL     1       6.080  31.161  57.768  1.00  0.00     0.143 C 
HETATM   26  C   UNL     1       6.385  31.593  59.222  1.00  0.00     0.145 C 
HETATM   27  N   UNL     1       7.784  31.344  59.613  1.00  0.00    -0.349 N 
HETATM   28  C   UNL     1       8.469  32.041  60.602  1.00  0.00     0.219 C 
HETATM   29  C   UNL     1       8.297  30.014  59.264  1.00  0.00     0.145 C 
HETATM   30  O   UNL     1       9.605  31.720  60.950  1.00  0.00    -0.273 OA
HETATM   31  C   UNL     1       7.970  29.603  57.824  1.00  0.00     0.143 C 
BRANCH  28  32
HETATM   32  C   UNL     1       7.757  33.233  61.227  1.00  0.00     0.103 C 
BRANCH  32  33
HETATM   33  C   UNL     1       7.001  32.888  62.514  1.00  0.00     0.005 C 
HETATM   34  C   UNL     1       7.896  32.877  63.747  1.00  0.00     0.005 C 
ENDBRANCH  32  33
ENDBRANCH  28  32
ENDBRANCH   1  24
TORSDOF 8
ENDMDL
MODEL 8
REMARK VINA RESULT:      -9.0      2.523     10.601
REMARK  8 active torsions:
REMARK  status: ('A' for Active; 'I' for Inactive)
REMARK    1  A    between atoms: C_2  and  C_3 
REMARK    2  A    between atoms: C_3  and  C_4 
REMARK       I    between atoms: C_4  and  N_5 
REMARK    3  A    between atoms: N_8  and  C_9 
REMARK    4  A    between atoms: C_13  and  N_14 
REMARK    5  A    between atoms: N_14  and  C_15 
REMARK    6  A    between atoms: C_15  and  N_16 
REMARK       I    between atoms: N_16  and  C_17 
REMARK    7  A    between atoms: C_17  and  C_18 
REMARK    8  A    between atoms: C_20  and  O_21 
ROOT
HETATM    1  C   UNL     1       5.869  28.247  56.593  1.00  0.00     0.052 A 
HETATM    2  C   UNL     1       6.578  29.153  57.420  1.00  0.00     0.062 A 
HETATM    3 CL   UNL     1       8.180  28.808  57.993  1.00  0.00    -0.082 Cl
HETATM    4  C   UNL     1       5.984  30.335  57.902  1.00  0.00     0.055 A 
HETATM    5  C   UNL     1       4.647  30.614  57.621  1.00  0.00     0.036 A 
HETATM    6  C   UNL     1       3.961  29.777  56.748  1.00  0.00     0.032 A 
HETATM    7  C   UNL     1       4.563  28.620  56.242  1.00  0.00     0.033 A 
ENDROOT
BRANCH   5   8
HETATM    8  N   UNL     1       4.049  31.750  58.209  1.00  0.00    -0.333 N 
HETATM    9  H   UNL     1       3.040  31.710  58.358  1.00  0.00     0.168 HD
BRANCH   8  10
HETATM   10  C   UNL     1       4.600  32.993  58.421  1.00  0.00     0.179 C 
HETATM   11  S   UNL     1       4.457  34.379  57.490  1.00  0.00    -0.040 SA
BRANCH  10  12
HETATM   12  N   UNL     1       5.357  33.130  59.566  1.00  0.00    -0.299 N 
HETATM   13  C   UNL     1       4.962  33.419  60.863  1.00  0.00     0.257 C 
HETATM   14  O   UNL     1       3.828  33.767  61.177  1.00  0.00    -0.267 OA
HETATM   15  H   UNL     1       6.318  32.858  59.410  1.00  0.00     0.171 HD
BRANCH  13  16
HETATM   16  C   UNL     1       6.024  33.253  61.894  1.00  0.00     0.035 A 
HETATM   17  C   UNL     1       7.035  32.290  61.761  1.00  0.00     0.053 A 
HETATM   18  C   UNL     1       7.958  32.086  62.790  1.00  0.00     0.069 A 
HETATM   19  C   UNL     1       7.892  32.871  63.940  1.00  0.00     0.037 A 
HETATM   20  C   UNL     1       6.909  33.859  64.060  1.00  0.00     0.004 A 
HETATM   21  C   UNL     1       5.977  34.051  63.039  1.00  0.00     0.017 A 
BRANCH  18  22
HETATM   22  O   UNL     1       8.865  31.092  62.544  1.00  0.00    -0.356 OA
HETATM   23  C   UNL     1       8.968  30.631  61.201  1.00  0.00     0.210 C 
ENDBRANCH  18  22
ENDBRANCH  13  16
ENDBRANCH  10  12
ENDBRANCH   8  10
ENDBRANCH   5   8
BRANCH   1  24
HETATM   24  N   UNL     1       6.402  27.007  56.194  1.00  0.00    -0.376 N 
HETATM   25  C   UNL     1       6.232  26.664  54.766  1.00  0.00     0.143 C 
HETATM   26  C   UNL     1       7.178  25.501  54.386  1.00  0.00     0.145 C 
HETATM   27  N   UNL     1       7.060  24.346  55.294  1.00  0.00    -0.349 N 
HETATM   28  C   UNL     1       7.368  23.034  54.955  1.00  0.00     0.219 C 
HETATM   29  C   UNL     1       7.065  24.681  56.724  1.00  0.00     0.145 C 
HETATM   30  O   UNL     1       7.343  22.128  55.789  1.00  0.00    -0.273 OA
HETATM   31  C   UNL     1       6.131  25.845  57.072  1.00  0.00     0.143 C 
BRANCH  28  32
HETATM   32  C   UNL     1       7.725  22.761  53.501  1.00  0.00     0.103 C 
BRANCH  32  33
HETATM   33  C   UNL     1       8.840  21.726  53.328  1.00  0.00     0.005 C 
HETATM   34  C   UNL     1       8.326  20.360  52.891  1.00  0.00     0.005 C 
ENDBRANCH  32  33
ENDBRANCH  28  32
ENDBRANCH   1  24
TORSDOF 8
ENDMDL
MODEL 9
REMARK VINA RESULT:      -8.8      1.720      2.447
REMARK  8 active torsions:
REMARK  status: ('A' for Active; 'I' for Inactive)
REMARK    1  A    between atoms: C_2  and  C_3 
REMARK    2  A    between atoms: C_3  and  C_4 
REMARK       I    between atoms: C_4  and  N_5 
REMARK    3  A    between atoms: N_8  and  C_9 
REMARK    4  A    between atoms: C_13  and  N_14 
REMARK    5  A    between atoms: N_14  and  C_15 
REMARK    6  A    between atoms: C_15  and  N_16 
REMARK       I    between atoms: N_16  and  C_17 
REMARK    7  A    between atoms: C_17  and  C_18 
REMARK    8  A    between atoms: C_20  and  O_21 
ROOT
HETATM    1  C   UNL     1       7.072  30.404  57.991  1.00  0.00     0.052 A 
HETATM    2  C   UNL     1       5.945  30.333  57.136  1.00  0.00     0.062 A 
HETATM    3 CL   UNL     1       4.390  30.937  57.617  1.00  0.00    -0.082 Cl
HETATM    4  C   UNL     1       6.003  29.680  55.890  1.00  0.00     0.055 A 
HETATM    5  C   UNL     1       7.168  29.027  55.492  1.00  0.00     0.036 A 
HETATM    6  C   UNL     1       8.305  29.154  56.282  1.00  0.00     0.032 A 
HETATM    7  C   UNL     1       8.257  29.832  57.505  1.00  0.00     0.033 A 
ENDROOT
BRANCH   5   8
HETATM    8  N   UNL     1       7.161  28.289  54.289  1.00  0.00    -0.333 N 
HETATM    9  H   UNL     1       7.723  28.659  53.521  1.00  0.00     0.168 HD
BRANCH   8  10
HETATM   10  C   UNL     1       6.336  27.248  53.930  1.00  0.00     0.179 C 
HETATM   11  S   UNL     1       4.920  27.288  53.034  1.00  0.00    -0.040 SA
BRANCH  10  12
HETATM   12  N   UNL     1       6.734  25.994  54.343  1.00  0.00    -0.299 N 
HETATM   13  C   UNL     1       7.657  25.124  53.780  1.00  0.00     0.257 C 
HETATM   14  O   UNL     1       8.176  25.287  52.681  1.00  0.00    -0.267 OA
HETATM   15  H   UNL     1       6.358  25.766  55.253  1.00  0.00     0.171 HD
BRANCH  13  16
HETATM   16  C   UNL     1       8.012  23.952  54.628  1.00  0.00     0.035 A 
HETATM   17  C   UNL     1       8.198  22.675  54.078  1.00  0.00     0.053 A 
HETATM   18  C   UNL     1       8.429  21.574  54.906  1.00  0.00     0.069 A 
HETATM   19  C   UNL     1       8.510  21.755  56.286  1.00  0.00     0.037 A 
HETATM   20  C   UNL     1       8.363  23.034  56.835  1.00  0.00     0.004 A 
HETATM   21  C   UNL     1       8.115  24.130  56.009  1.00  0.00     0.017 A 
BRANCH  18  22
HETATM   22  O   UNL     1       8.555  20.385  54.241  1.00  0.00    -0.356 OA
HETATM   23  C   UNL     1       8.294  20.398  52.842  1.00  0.00     0.210 C 
ENDBRANCH  18  22
ENDBRANCH  13  16
ENDBRANCH  10  12
ENDBRANCH   8  10
ENDBRANCH   5   8
BRANCH   1  24
HETATM   24  N   UNL     1       7.008  30.950  59.288  1.00  0.00    -0.376 N 
HETATM   25  C   UNL     1       6.400  32.294  59.389  1.00  0.00     0.143 C 
HETATM   26  C   UNL     1       6.038  32.599  60.861  1.00  0.00     0.145 C 
HETATM   27  N   UNL     1       7.166  32.384  61.785  1.00  0.00    -0.349 N 
HETATM   28  C   UNL     1       7.320  33.016  63.014  1.00  0.00     0.219 C 
HETATM   29  C   UNL     1       7.889  31.120  61.595  1.00  0.00     0.145 C 
HETATM   30  O   UNL     1       8.233  32.720  63.783  1.00  0.00    -0.273 OA
HETATM   31  C   UNL     1       8.223  30.834  60.127  1.00  0.00     0.143 C 
BRANCH  28  32
HETATM   32  C   UNL     1       6.315  34.105  63.361  1.00  0.00     0.103 C 
BRANCH  32  33
HETATM   33  C   UNL     1       6.105  34.287  64.867  1.00  0.00     0.005 C 
HETATM   34  C   UNL     1       4.783  33.712  65.360  1.00  0.00     0.005 C 
ENDBRANCH  32  33
ENDBRANCH  28  32
ENDBRANCH   1  24
TORSDOF 8
ENDMDL
MODEL 10
REMARK VINA RESULT:      -8.7      3.263     10.200
REMARK  8 active torsions:
REMARK  status: ('A' for Active; 'I' for Inactive)
REMARK    1  A    between atoms: C_2  and  C_3 
REMARK    2  A    between atoms: C_3  and  C_4 
REMARK       I    between atoms: C_4  and  N_5 
REMARK    3  A    between atoms: N_8  and  C_9 
REMARK    4  A    between atoms: C_13  and  N_14 
REMARK    5  A    between atoms: N_14  and  C_15 
REMARK    6  A    between atoms: C_15  and  N_16 
REMARK       I    between atoms: N_16  and  C_17 
REMARK    7  A    between atoms: C_17  and  C_18 
REMARK    8  A    between atoms: C_20  and  O_21 
ROOT
HETATM    1  C   UNL     1       4.723  28.893  55.899  1.00  0.00     0.052 A 
HETATM    2  C   UNL     1       3.897  29.899  55.341  1.00  0.00     0.062 A 
HETATM    3 CL   UNL     1       3.453  29.894  53.663  1.00  0.00    -0.082 Cl
HETATM    4  C   UNL     1       3.474  31.011  56.095  1.00  0.00     0.055 A 
HETATM    5  C   UNL     1       3.914  31.178  57.408  1.00  0.00     0.036 A 
HETATM    6  C   UNL     1       4.660  30.162  57.994  1.00  0.00     0.032 A 
HETATM    7  C   UNL     1       5.052  29.041  57.255  1.00  0.00     0.033 A 
ENDROOT
BRANCH   5   8
HETATM    8  N   UNL     1       3.562  32.357  58.100  1.00  0.00    -0.333 N 
HETATM    9  H   UNL     1       2.574  32.476  58.328  1.00  0.00     0.168 HD
BRANCH   8  10
HETATM   10  C   UNL     1       4.331  33.474  58.332  1.00  0.00     0.179 C 
HETATM   11  S   UNL     1       4.055  35.057  57.858  1.00  0.00    -0.040 SA
BRANCH  10  12
HETATM   12  N   UNL     1       5.475  33.274  59.076  1.00  0.00    -0.299 N 
HETATM   13  C   UNL     1       5.642  32.646  60.301  1.00  0.00     0.257 C 
HETATM   14  O   UNL     1       4.717  32.286  61.022  1.00  0.00    -0.267 OA
HETATM   15  H   UNL     1       6.304  33.538  58.560  1.00  0.00     0.171 HD
BRANCH  13  16
HETATM   16  C   UNL     1       7.058  32.403  60.695  1.00  0.00     0.035 A 
HETATM   17  C   UNL     1       8.099  32.444  59.757  1.00  0.00     0.053 A 
HETATM   18  C   UNL     1       9.404  32.111  60.132  1.00  0.00     0.069 A 
HETATM   19  C   UNL     1       9.673  31.770  61.457  1.00  0.00     0.037 A 
HETATM   20  C   UNL     1       8.642  31.765  62.403  1.00  0.00     0.004 A 
HETATM   21  C   UNL     1       7.337  32.082  62.024  1.00  0.00     0.017 A 
BRANCH  18  22
HETATM   22  O   UNL     1      10.313  32.157  59.111  1.00  0.00    -0.356 OA
HETATM   23  C   UNL     1      10.191  31.170  58.094  1.00  0.00     0.210 C 
ENDBRANCH  18  22
ENDBRANCH  13  16
ENDBRANCH  10  12
ENDBRANCH   8  10
ENDBRANCH   5   8
BRANCH   1  24
HETATM   24  N   UNL     1       5.252  27.835  55.135  1.00  0.00    -0.376 N 
HETATM   25  C   UNL     1       5.412  26.548  55.845  1.00  0.00     0.143 C 
HETATM   26  C   UNL     1       5.619  25.405  54.824  1.00  0.00     0.145 C 
HETATM   27  N   UNL     1       6.692  25.689  53.855  1.00  0.00    -0.349 N 
HETATM   28  C   UNL     1       7.429  24.723  53.179  1.00  0.00     0.219 C 
HETATM   29  C   UNL     1       6.645  27.028  53.254  1.00  0.00     0.145 C 
HETATM   30  O   UNL     1       8.245  25.025  52.308  1.00  0.00    -0.273 OA
HETATM   31  C   UNL     1       6.425  28.141  54.285  1.00  0.00     0.143 C 
BRANCH  28  32
HETATM   32  C   UNL     1       7.193  23.272  53.574  1.00  0.00     0.103 C 
BRANCH  32  33
HETATM   33  C   UNL     1       8.089  22.281  52.826  1.00  0.00     0.005 C 
HETATM   34  C   UNL     1       9.117  21.608  53.726  1.00  0.00     0.005 C 
ENDBRANCH  32  33
ENDBRANCH  28  32
ENDBRANCH   1  24
TORSDOF 8
ENDMDL
