MODEL 1
REMARK VINA RESULT:     -12.1      0.000      0.000
REMARK  7 active torsions:
REMARK  status: ('A' for Active; 'I' for Inactive)
REMARK    1  A    between atoms: C_3  and  S_4 
REMARK    2  A    between atoms: S_4  and  N_5 
REMARK    3  A    between atoms: N_5  and  C_6 
REMARK    4  A    between atoms: C_6  and  C_7 
REMARK    5  A    between atoms: C_20  and  C_21 
REMARK    6  A    between atoms: C_25  and  N_26 
REMARK    7  A    between atoms: N_26  and  C_27 
ROOT
HETATM    1  C   UNL     1       5.933  32.214  58.617  1.00  0.00     0.050 C 
HETATM    2  C   UNL     1       6.205  30.810  58.156  1.00  0.00    -0.039 A 
HETATM    3  C   UNL     1       7.439  30.155  58.313  1.00  0.00     0.081 A 
HETATM    4  C   UNL     1       7.617  28.851  57.815  1.00  0.00     0.039 A 
HETATM    5  C   UNL     1       6.566  28.147  57.208  1.00  0.00    -0.003 A 
HETATM    6  C   UNL     1       5.343  28.808  57.044  1.00  0.00     0.014 A 
HETATM    7  C   UNL     1       5.170  30.118  57.503  1.00  0.00     0.009 A 
ENDROOT
BRANCH   5   8
HETATM    8  C   UNL     1       6.758  26.767  56.736  1.00  0.00     0.098 A 
HETATM    9  N   UNL     1       7.306  25.957  57.662  1.00  0.00    -0.172 NA
HETATM   10  N   UNL     1       7.442  24.674  57.385  1.00  0.00    -0.262 N 
HETATM   11  H   UNL     1       7.846  24.082  58.102  1.00  0.00     0.191 HD
HETATM   12  C   UNL     1       7.080  24.102  56.223  1.00  0.00     0.129 A 
HETATM   13  C   UNL     1       6.498  24.926  55.223  1.00  0.00     0.022 A 
HETATM   14  C   UNL     1       6.356  26.306  55.473  1.00  0.00     0.009 A 
HETATM   15  C   UNL     1       6.033  24.422  53.982  1.00  0.00     0.016 A 
HETATM   16  C   UNL     1       5.819  27.137  54.457  1.00  0.00     0.015 A 
HETATM   17  C   UNL     1       5.384  26.616  53.241  1.00  0.00     0.001 A 
HETATM   18  C   UNL     1       5.482  25.254  53.006  1.00  0.00     0.001 A 
BRANCH  12  19
HETATM   19  N   UNL     1       7.217  22.728  56.031  1.00  0.00    -0.370 N 
HETATM   20  H   UNL     1       6.531  22.378  55.357  1.00  0.00     0.161 HD
BRANCH  19  21
HETATM   21  C   UNL     1       8.494  22.006  55.966  1.00  0.00     0.083 C 
HETATM   22  C   UNL     1       8.264  20.510  55.700  1.00  0.00     0.025 C 
HETATM   23  C   UNL     1       7.712  20.236  54.301  1.00  0.00     0.002 C 
HETATM   24  C   UNL     1       8.596  20.848  53.219  1.00  0.00     0.000 C 
HETATM   25  C   UNL     1       8.824  22.337  53.453  1.00  0.00     0.002 C 
HETATM   26  C   UNL     1       9.368  22.614  54.856  1.00  0.00     0.025 C 
ENDBRANCH  19  21
ENDBRANCH  12  19
ENDBRANCH   5   8
BRANCH   3  27
HETATM   27  S   UNL     1       8.851  30.904  59.129  1.00  0.00     0.242 S 
HETATM   28  O   UNL     1      10.043  30.417  58.468  1.00  0.00    -0.206 OA
HETATM   29  O   UNL     1       8.600  32.315  59.292  1.00  0.00    -0.206 OA
BRANCH  27  30
HETATM   30  N   UNL     1       8.767  30.187  60.662  1.00  0.00    -0.208 NA
HETATM   31  H   UNL     1       9.177  29.249  60.645  1.00  0.00     0.140 HD
BRANCH  30  32
HETATM   32  C   UNL     1       9.310  31.010  61.755  1.00  0.00     0.182 C 
BRANCH  32  33
HETATM   33  C   UNL     1       8.184  31.726  62.415  1.00  0.00     0.119 A 
HETATM   34  N   UNL     1       8.272  32.563  63.431  1.00  0.00    -0.232 NA
HETATM   35  C   UNL     1       6.986  32.997  63.658  1.00  0.00     0.085 A 
HETATM   36  C   UNL     1       6.094  32.386  62.782  1.00  0.00     0.062 A 
HETATM   37  C   UNL     1       6.498  33.919  64.597  1.00  0.00     0.034 A 
HETATM   38  N   UNL     1       6.881  31.573  62.009  1.00  0.00    -0.342 N 
HETATM   39  C   UNL     1       4.721  32.635  62.787  1.00  0.00     0.032 A 
HETATM   40  H   UNL     1       6.560  30.966  61.267  1.00  0.00     0.167 HD
HETATM   41  C   UNL     1       4.253  33.558  63.729  1.00  0.00     0.002 A 
HETATM   42  C   UNL     1       5.125  34.193  64.618  1.00  0.00     0.002 A 
ENDBRANCH  32  33
ENDBRANCH  30  32
ENDBRANCH  27  30
ENDBRANCH   3  27
TORSDOF 7
ENDMDL
MODEL 2
REMARK VINA RESULT:     -11.9      2.170     11.316
REMARK  7 active torsions:
REMARK  status: ('A' for Active; 'I' for Inactive)
REMARK    1  A    between atoms: C_3  and  S_4 
REMARK    2  A    between atoms: S_4  and  N_5 
REMARK    3  A    between atoms: N_5  and  C_6 
REMARK    4  A    between atoms: C_6  and  C_7 
REMARK    5  A    between atoms: C_20  and  C_21 
REMARK    6  A    between atoms: C_25  and  N_26 
REMARK    7  A    between atoms: N_26  and  C_27 
ROOT
HETATM    1  C   UNL     1      10.608  29.693  56.516  1.00  0.00     0.050 C 
HETATM    2  C   UNL     1       9.705  30.179  57.616  1.00  0.00    -0.039 A 
HETATM    3  C   UNL     1       8.400  29.702  57.831  1.00  0.00     0.081 A 
HETATM    4  C   UNL     1       7.610  30.242  58.862  1.00  0.00     0.039 A 
HETATM    5  C   UNL     1       8.111  31.219  59.737  1.00  0.00    -0.003 A 
HETATM    6  C   UNL     1       9.406  31.698  59.510  1.00  0.00     0.014 A 
HETATM    7  C   UNL     1      10.184  31.192  58.464  1.00  0.00     0.009 A 
ENDROOT
BRANCH   5   8
HETATM    8  C   UNL     1       7.285  31.737  60.837  1.00  0.00     0.098 A 
HETATM    9  N   UNL     1       7.791  31.473  62.057  1.00  0.00    -0.172 NA
HETATM   10  N   UNL     1       7.186  31.968  63.119  1.00  0.00    -0.262 N 
HETATM   11  H   UNL     1       7.593  31.764  64.025  1.00  0.00     0.191 HD
HETATM   12  C   UNL     1       6.074  32.722  63.081  1.00  0.00     0.129 A 
HETATM   13  C   UNL     1       5.511  33.023  61.810  1.00  0.00     0.022 A 
HETATM   14  C   UNL     1       6.116  32.494  60.654  1.00  0.00     0.009 A 
HETATM   15  C   UNL     1       4.370  33.850  61.648  1.00  0.00     0.016 A 
HETATM   16  C   UNL     1       5.528  32.754  59.389  1.00  0.00     0.015 A 
HETATM   17  C   UNL     1       4.398  33.558  59.261  1.00  0.00     0.001 A 
HETATM   18  C   UNL     1       3.824  34.115  60.392  1.00  0.00     0.001 A 
BRANCH  12  19
HETATM   19  N   UNL     1       5.524  33.244  64.250  1.00  0.00    -0.370 N 
HETATM   20  H   UNL     1       5.198  32.500  64.871  1.00  0.00     0.161 HD
BRANCH  19  21
HETATM   21  C   UNL     1       6.044  34.405  64.984  1.00  0.00     0.083 C 
HETATM   22  C   UNL     1       5.359  35.700  64.518  1.00  0.00     0.025 C 
HETATM   23  C   UNL     1       3.882  35.759  64.904  1.00  0.00     0.002 C 
HETATM   24  C   UNL     1       3.683  35.553  66.402  1.00  0.00     0.000 C 
HETATM   25  C   UNL     1       4.341  34.265  66.885  1.00  0.00     0.002 C 
HETATM   26  C   UNL     1       5.818  34.200  66.492  1.00  0.00     0.025 C 
ENDBRANCH  19  21
ENDBRANCH  12  19
ENDBRANCH   5   8
BRANCH   3  27
HETATM   27  S   UNL     1       7.651  28.409  56.837  1.00  0.00     0.242 S 
HETATM   28  O   UNL     1       6.267  28.296  57.243  1.00  0.00    -0.206 OA
HETATM   29  O   UNL     1       8.020  28.610  55.457  1.00  0.00    -0.206 OA
BRANCH  27  30
HETATM   30  N   UNL     1       8.479  27.040  57.396  1.00  0.00    -0.208 NA
HETATM   31  H   UNL     1       9.132  27.292  58.142  1.00  0.00     0.140 HD
BRANCH  30  32
HETATM   32  C   UNL     1       7.612  25.911  57.774  1.00  0.00     0.182 C 
BRANCH  32  33
HETATM   33  C   UNL     1       7.678  24.881  56.702  1.00  0.00     0.119 A 
HETATM   34  N   UNL     1       7.662  25.098  55.401  1.00  0.00    -0.232 NA
HETATM   35  C   UNL     1       7.788  23.855  54.823  1.00  0.00     0.085 A 
HETATM   36  C   UNL     1       7.848  22.860  55.793  1.00  0.00     0.062 A 
HETATM   37  C   UNL     1       7.860  23.494  53.469  1.00  0.00     0.034 A 
HETATM   38  N   UNL     1       7.765  23.538  56.981  1.00  0.00    -0.342 N 
HETATM   39  C   UNL     1       7.972  21.502  55.494  1.00  0.00     0.032 A 
HETATM   40  H   UNL     1       7.768  23.125  57.904  1.00  0.00     0.167 HD
HETATM   41  C   UNL     1       8.044  21.161  54.139  1.00  0.00     0.002 A 
HETATM   42  C   UNL     1       7.992  22.139  53.141  1.00  0.00     0.002 A 
ENDBRANCH  32  33
ENDBRANCH  30  32
ENDBRANCH  27  30
ENDBRANCH   3  27
TORSDOF 7
ENDMDL
MODEL 3
REMARK VINA RESULT:     -11.9      3.394      6.768
REMARK  7 active torsions:
REMARK  status: ('A' for Active; 'I' for Inactive)
REMARK    1  A    between atoms: C_3  and  S_4 
REMARK    2  A    between atoms: S_4  and  N_5 
REMARK    3  A    between atoms: N_5  and  C_6 
REMARK    4  A    between atoms: C_6  and  C_7 
REMARK    5  A    between atoms: C_20  and  C_21 
REMARK    6  A    between atoms: C_25  and  N_26 
REMARK    7  A    between atoms: N_26  and  C_27 
ROOT
HETATM    1  C   UNL     1       6.332  32.436  59.006  1.00  0.00     0.050 C 
HETATM    2  C   UNL     1       6.535  31.048  58.463  1.00  0.00    -0.039 A 
HETATM    3  C   UNL     1       5.588  30.363  57.683  1.00  0.00     0.081 A 
HETATM    4  C   UNL     1       5.845  29.049  57.249  1.00  0.00     0.039 A 
HETATM    5  C   UNL     1       7.063  28.410  57.526  1.00  0.00    -0.003 A 
HETATM    6  C   UNL     1       7.997  29.093  58.313  1.00  0.00     0.014 A 
HETATM    7  C   UNL     1       7.733  30.385  58.779  1.00  0.00     0.009 A 
ENDROOT
BRANCH   5   8
HETATM    8  C   UNL     1       7.331  27.054  57.024  1.00  0.00     0.098 A 
HETATM    9  N   UNL     1       7.276  26.108  57.981  1.00  0.00    -0.172 NA
HETATM   10  N   UNL     1       7.408  24.843  57.635  1.00  0.00    -0.262 N 
HETATM   11  H   UNL     1       7.351  24.149  58.373  1.00  0.00     0.191 HD
HETATM   12  C   UNL     1       7.610  24.413  56.377  1.00  0.00     0.129 A 
HETATM   13  C   UNL     1       7.674  25.383  55.340  1.00  0.00     0.022 A 
HETATM   14  C   UNL     1       7.558  26.746  55.673  1.00  0.00     0.009 A 
HETATM   15  C   UNL     1       7.832  25.040  53.972  1.00  0.00     0.016 A 
HETATM   16  C   UNL     1       7.669  27.718  54.644  1.00  0.00     0.015 A 
HETATM   17  C   UNL     1       7.840  27.353  53.311  1.00  0.00     0.001 A 
HETATM   18  C   UNL     1       7.911  26.011  52.973  1.00  0.00     0.001 A 
BRANCH  12  19
HETATM   19  N   UNL     1       7.694  23.051  56.093  1.00  0.00    -0.370 N 
HETATM   20  H   UNL     1       7.101  22.802  55.297  1.00  0.00     0.161 HD
BRANCH  19  21
HETATM   21  C   UNL     1       8.920  22.246  56.159  1.00  0.00     0.083 C 
HETATM   22  C   UNL     1       8.607  20.805  56.590  1.00  0.00     0.025 C 
HETATM   23  C   UNL     1       7.817  20.031  55.535  1.00  0.00     0.002 C 
HETATM   24  C   UNL     1       8.519  20.049  54.182  1.00  0.00     0.000 C 
HETATM   25  C   UNL     1       8.825  21.471  53.725  1.00  0.00     0.002 C 
HETATM   26  C   UNL     1       9.608  22.250  54.783  1.00  0.00     0.025 C 
ENDBRANCH  19  21
ENDBRANCH  12  19
ENDBRANCH   5   8
BRANCH   3  27
HETATM   27  S   UNL     1       4.016  31.078  57.193  1.00  0.00     0.242 S 
HETATM   28  O   UNL     1       3.126  30.990  58.330  1.00  0.00    -0.206 OA
HETATM   29  O   UNL     1       4.264  32.331  56.522  1.00  0.00    -0.206 OA
BRANCH  27  30
HETATM   30  N   UNL     1       3.494  29.966  56.027  1.00  0.00    -0.208 NA
HETATM   31  H   UNL     1       2.538  29.657  56.224  1.00  0.00     0.140 HD
BRANCH  30  32
HETATM   32  C   UNL     1       3.657  30.415  54.634  1.00  0.00     0.182 C 
BRANCH  32  33
HETATM   33  C   UNL     1       3.946  29.229  53.783  1.00  0.00     0.119 A 
HETATM   34  N   UNL     1       4.253  29.238  52.500  1.00  0.00    -0.232 NA
HETATM   35  C   UNL     1       4.474  27.919  52.169  1.00  0.00     0.085 A 
HETATM   36  C   UNL     1       4.264  27.091  53.267  1.00  0.00     0.062 A 
HETATM   37  C   UNL     1       4.859  27.350  50.946  1.00  0.00     0.034 A 
HETATM   38  N   UNL     1       3.919  27.947  54.278  1.00  0.00    -0.342 N 
HETATM   39  C   UNL     1       4.411  25.704  53.220  1.00  0.00     0.032 A 
HETATM   40  H   UNL     1       3.684  27.685  55.226  1.00  0.00     0.167 HD
HETATM   41  C   UNL     1       4.798  25.153  51.993  1.00  0.00     0.002 A 
HETATM   42  C   UNL     1       5.021  25.960  50.874  1.00  0.00     0.002 A 
ENDBRANCH  32  33
ENDBRANCH  30  32
ENDBRANCH  27  30
ENDBRANCH   3  27
TORSDOF 7
ENDMDL
MODEL 4
REMARK VINA RESULT:     -11.8      2.491     11.456
REMARK  7 active torsions:
REMARK  status: ('A' for Active; 'I' for Inactive)
REMARK    1  A    between atoms: C_3  and  S_4 
REMARK    2  A    between atoms: S_4  and  N_5 
REMARK    3  A    between atoms: N_5  and  C_6 
REMARK    4  A    between atoms: C_6  and  C_7 
REMARK    5  A    between atoms: C_20  and  C_21 
REMARK    6  A    between atoms: C_25  and  N_26 
REMARK    7  A    between atoms: N_26  and  C_27 
ROOT
HETATM    1  C   UNL     1      10.801  29.272  56.753  1.00  0.00     0.050 C 
HETATM    2  C   UNL     1       9.786  30.043  57.550  1.00  0.00    -0.039 A 
HETATM    3  C   UNL     1       8.415  29.733  57.588  1.00  0.00     0.081 A 
HETATM    4  C   UNL     1       7.528  30.534  58.331  1.00  0.00     0.039 A 
HETATM    5  C   UNL     1       7.984  31.617  59.098  1.00  0.00    -0.003 A 
HETATM    6  C   UNL     1       9.348  31.928  59.047  1.00  0.00     0.014 A 
HETATM    7  C   UNL     1      10.230  31.159  58.280  1.00  0.00     0.009 A 
ENDROOT
BRANCH   5   8
HETATM    8  C   UNL     1       7.048  32.414  59.905  1.00  0.00     0.098 A 
HETATM    9  N   UNL     1       6.002  32.885  59.201  1.00  0.00    -0.172 NA
HETATM   10  N   UNL     1       5.048  33.537  59.837  1.00  0.00    -0.262 N 
HETATM   11  H   UNL     1       4.264  33.872  59.287  1.00  0.00     0.191 HD
HETATM   12  C   UNL     1       5.042  33.783  61.159  1.00  0.00     0.129 A 
HETATM   13  C   UNL     1       6.130  33.300  61.935  1.00  0.00     0.022 A 
HETATM   14  C   UNL     1       7.180  32.618  61.288  1.00  0.00     0.009 A 
HETATM   15  C   UNL     1       6.204  33.456  63.343  1.00  0.00     0.016 A 
HETATM   16  C   UNL     1       8.290  32.177  62.054  1.00  0.00     0.015 A 
HETATM   17  C   UNL     1       8.342  32.359  63.434  1.00  0.00     0.001 A 
HETATM   18  C   UNL     1       7.292  32.990  64.081  1.00  0.00     0.001 A 
BRANCH  12  19
HETATM   19  N   UNL     1       3.969  34.439  61.759  1.00  0.00    -0.370 N 
HETATM   20  H   UNL     1       3.856  34.152  62.734  1.00  0.00     0.161 HD
BRANCH  19  21
HETATM   21  C   UNL     1       3.607  35.845  61.538  1.00  0.00     0.083 C 
HETATM   22  C   UNL     1       2.942  36.443  62.788  1.00  0.00     0.025 C 
HETATM   23  C   UNL     1       3.908  36.580  63.964  1.00  0.00     0.002 C 
HETATM   24  C   UNL     1       5.150  37.377  63.581  1.00  0.00     0.000 C 
HETATM   25  C   UNL     1       5.837  36.793  62.352  1.00  0.00     0.002 C 
HETATM   26  C   UNL     1       4.870  36.647  61.176  1.00  0.00     0.025 C 
ENDBRANCH  19  21
ENDBRANCH  12  19
ENDBRANCH   5   8
BRANCH   3  27
HETATM   27  S   UNL     1       7.699  28.338  56.714  1.00  0.00     0.242 S 
HETATM   28  O   UNL     1       6.294  28.287  57.057  1.00  0.00    -0.206 OA
HETATM   29  O   UNL     1       8.142  28.372  55.342  1.00  0.00    -0.206 OA
BRANCH  27  30
HETATM   30  N   UNL     1       8.475  27.038  57.473  1.00  0.00    -0.208 NA
HETATM   31  H   UNL     1       8.977  27.354  58.308  1.00  0.00     0.140 HD
BRANCH  30  32
HETATM   32  C   UNL     1       7.606  25.882  57.752  1.00  0.00     0.182 C 
BRANCH  32  33
HETATM   33  C   UNL     1       7.808  24.867  56.682  1.00  0.00     0.119 A 
HETATM   34  N   UNL     1       8.299  23.652  56.834  1.00  0.00    -0.232 NA
HETATM   35  C   UNL     1       8.251  23.081  55.582  1.00  0.00     0.085 A 
HETATM   36  C   UNL     1       7.751  23.980  54.646  1.00  0.00     0.062 A 
HETATM   37  C   UNL     1       8.617  21.792  55.165  1.00  0.00     0.034 A 
HETATM   38  N   UNL     1       7.488  25.113  55.369  1.00  0.00    -0.342 N 
HETATM   39  C   UNL     1       7.597  23.673  53.293  1.00  0.00     0.032 A 
HETATM   40  H   UNL     1       7.120  25.981  55.003  1.00  0.00     0.167 HD
HETATM   41  C   UNL     1       7.964  22.382  52.895  1.00  0.00     0.002 A 
HETATM   42  C   UNL     1       8.465  21.455  53.814  1.00  0.00     0.002 A 
ENDBRANCH  32  33
ENDBRANCH  30  32
ENDBRANCH  27  30
ENDBRANCH   3  27
TORSDOF 7
ENDMDL
MODEL 5
REMARK VINA RESULT:     -11.3      2.037      2.720
REMARK  7 active torsions:
REMARK  status: ('A' for Active; 'I' for Inactive)
REMARK    1  A    between atoms: C_3  and  S_4 
REMARK    2  A    between atoms: S_4  and  N_5 
REMARK    3  A    between atoms: N_5  and  C_6 
REMARK    4  A    between atoms: C_6  and  C_7 
REMARK    5  A    between atoms: C_20  and  C_21 
REMARK    6  A    between atoms: C_25  and  N_26 
REMARK    7  A    between atoms: N_26  and  C_27 
ROOT
HETATM    1  C   UNL     1       6.952  32.699  59.257  1.00  0.00     0.050 C 
HETATM    2  C   UNL     1       7.023  31.306  58.696  1.00  0.00    -0.039 A 
HETATM    3  C   UNL     1       5.908  30.588  58.228  1.00  0.00     0.081 A 
HETATM    4  C   UNL     1       6.061  29.272  57.755  1.00  0.00     0.039 A 
HETATM    5  C   UNL     1       7.322  28.661  57.678  1.00  0.00    -0.003 A 
HETATM    6  C   UNL     1       8.427  29.376  58.156  1.00  0.00     0.014 A 
HETATM    7  C   UNL     1       8.277  30.671  58.663  1.00  0.00     0.009 A 
ENDROOT
BRANCH   5   8
HETATM    8  C   UNL     1       7.467  27.301  57.137  1.00  0.00     0.098 A 
HETATM    9  N   UNL     1       7.605  26.359  58.089  1.00  0.00    -0.172 NA
HETATM   10  N   UNL     1       7.651  25.091  57.727  1.00  0.00    -0.262 N 
HETATM   11  H   UNL     1       7.743  24.399  58.464  1.00  0.00     0.191 HD
HETATM   12  C   UNL     1       7.581  24.656  56.457  1.00  0.00     0.129 A 
HETATM   13  C   UNL     1       7.434  25.623  55.425  1.00  0.00     0.022 A 
HETATM   14  C   UNL     1       7.403  26.989  55.770  1.00  0.00     0.009 A 
HETATM   15  C   UNL     1       7.299  25.276  54.057  1.00  0.00     0.016 A 
HETATM   16  C   UNL     1       7.305  27.957  54.737  1.00  0.00     0.015 A 
HETATM   17  C   UNL     1       7.189  27.587  53.399  1.00  0.00     0.001 A 
HETATM   18  C   UNL     1       7.176  26.244  53.059  1.00  0.00     0.001 A 
BRANCH  12  19
HETATM   19  N   UNL     1       7.590  23.293  56.167  1.00  0.00    -0.370 N 
HETATM   20  H   UNL     1       6.976  23.078  55.378  1.00  0.00     0.161 HD
BRANCH  19  21
HETATM   21  C   UNL     1       8.774  22.426  56.215  1.00  0.00     0.083 C 
HETATM   22  C   UNL     1       8.384  20.985  56.579  1.00  0.00     0.025 C 
HETATM   23  C   UNL     1       7.574  20.297  55.481  1.00  0.00     0.002 C 
HETATM   24  C   UNL     1       8.297  20.338  54.140  1.00  0.00     0.000 C 
HETATM   25  C   UNL     1       8.680  21.761  53.749  1.00  0.00     0.002 C 
HETATM   26  C   UNL     1       9.484  22.454  54.851  1.00  0.00     0.025 C 
ENDBRANCH  19  21
ENDBRANCH  12  19
ENDBRANCH   5   8
BRANCH   3  27
HETATM   27  S   UNL     1       4.246  31.265  58.201  1.00  0.00     0.242 S 
HETATM   28  O   UNL     1       4.350  32.657  57.823  1.00  0.00    -0.206 OA
HETATM   29  O   UNL     1       3.383  30.351  57.493  1.00  0.00    -0.206 OA
BRANCH  27  30
HETATM   30  N   UNL     1       3.832  31.193  59.843  1.00  0.00    -0.208 NA
HETATM   31  H   UNL     1       4.579  30.749  60.384  1.00  0.00     0.140 HD
BRANCH  30  32
HETATM   32  C   UNL     1       3.411  32.478  60.427  1.00  0.00     0.182 C 
BRANCH  32  33
HETATM   33  C   UNL     1       4.205  32.721  61.662  1.00  0.00     0.119 A 
HETATM   34  N   UNL     1       5.496  32.500  61.823  1.00  0.00    -0.232 NA
HETATM   35  C   UNL     1       5.778  32.916  63.105  1.00  0.00     0.085 A 
HETATM   36  C   UNL     1       4.629  33.367  63.745  1.00  0.00     0.062 A 
HETATM   37  C   UNL     1       7.000  32.940  63.795  1.00  0.00     0.034 A 
HETATM   38  N   UNL     1       3.639  33.222  62.809  1.00  0.00    -0.342 N 
HETATM   39  C   UNL     1       4.618  33.844  65.057  1.00  0.00     0.032 A 
HETATM   40  H   UNL     1       2.662  33.446  62.937  1.00  0.00     0.167 HD
HETATM   41  C   UNL     1       5.846  33.863  65.729  1.00  0.00     0.002 A 
HETATM   42  C   UNL     1       7.018  33.421  65.111  1.00  0.00     0.002 A 
ENDBRANCH  32  33
ENDBRANCH  30  32
ENDBRANCH  27  30
ENDBRANCH   3  27
TORSDOF 7
ENDMDL
MODEL 6
REMARK VINA RESULT:     -11.3      1.979      2.505
REMARK  7 active torsions:
REMARK  status: ('A' for Active; 'I' for Inactive)
REMARK    1  A    between atoms: C_3  and  S_4 
REMARK    2  A    between atoms: S_4  and  N_5 
REMARK    3  A    between atoms: N_5  and  C_6 
REMARK    4  A    between atoms: C_6  and  C_7 
REMARK    5  A    between atoms: C_20  and  C_21 
REMARK    6  A    between atoms: C_25  and  N_26 
REMARK    7  A    between atoms: N_26  and  C_27 
ROOT
HETATM    1  C   UNL     1       3.052  32.698  55.704  1.00  0.00     0.050 C 
HETATM    2  C   UNL     1       3.686  31.336  55.642  1.00  0.00    -0.039 A 
HETATM    3  C   UNL     1       4.580  30.840  56.607  1.00  0.00     0.081 A 
HETATM    4  C   UNL     1       5.157  29.566  56.449  1.00  0.00     0.039 A 
HETATM    5  C   UNL     1       4.818  28.735  55.370  1.00  0.00    -0.003 A 
HETATM    6  C   UNL     1       3.936  29.239  54.407  1.00  0.00     0.014 A 
HETATM    7  C   UNL     1       3.387  30.519  54.538  1.00  0.00     0.009 A 
ENDROOT
BRANCH   5   8
HETATM    8  C   UNL     1       5.396  27.388  55.247  1.00  0.00     0.098 A 
HETATM    9  N   UNL     1       5.824  26.881  56.419  1.00  0.00    -0.172 NA
HETATM   10  N   UNL     1       6.277  25.643  56.449  1.00  0.00    -0.262 N 
HETATM   11  H   UNL     1       6.583  25.280  57.345  1.00  0.00     0.191 HD
HETATM   12  C   UNL     1       6.359  24.834  55.378  1.00  0.00     0.129 A 
HETATM   13  C   UNL     1       5.916  25.335  54.124  1.00  0.00     0.022 A 
HETATM   14  C   UNL     1       5.445  26.661  54.048  1.00  0.00     0.009 A 
HETATM   15  C   UNL     1       5.908  24.554  52.940  1.00  0.00     0.016 A 
HETATM   16  C   UNL     1       5.047  27.178  52.787  1.00  0.00     0.015 A 
HETATM   17  C   UNL     1       5.065  26.392  51.638  1.00  0.00     0.001 A 
HETATM   18  C   UNL     1       5.487  25.075  51.716  1.00  0.00     0.001 A 
BRANCH  12  19
HETATM   19  N   UNL     1       6.808  23.521  55.508  1.00  0.00    -0.370 N 
HETATM   20  H   UNL     1       6.211  22.872  54.990  1.00  0.00     0.161 HD
BRANCH  19  21
HETATM   21  C   UNL     1       8.217  23.106  55.520  1.00  0.00     0.083 C 
HETATM   22  C   UNL     1       8.423  21.892  56.439  1.00  0.00     0.025 C 
HETATM   23  C   UNL     1       7.759  20.624  55.902  1.00  0.00     0.002 C 
HETATM   24  C   UNL     1       8.216  20.310  54.481  1.00  0.00     0.000 C 
HETATM   25  C   UNL     1       8.006  21.496  53.546  1.00  0.00     0.002 C 
HETATM   26  C   UNL     1       8.662  22.768  54.087  1.00  0.00     0.025 C 
ENDBRANCH  19  21
ENDBRANCH  12  19
ENDBRANCH   5   8
BRANCH   3  27
HETATM   27  S   UNL     1       5.054  31.761  58.073  1.00  0.00     0.242 S 
HETATM   28  O   UNL     1       5.734  32.959  57.632  1.00  0.00    -0.206 OA
HETATM   29  O   UNL     1       3.926  31.818  58.971  1.00  0.00    -0.206 OA
BRANCH  27  30
HETATM   30  N   UNL     1       6.204  30.723  58.759  1.00  0.00    -0.208 NA
HETATM   31  H   UNL     1       6.345  29.899  58.169  1.00  0.00     0.140 HD
BRANCH  30  32
HETATM   32  C   UNL     1       7.477  31.370  59.120  1.00  0.00     0.182 C 
BRANCH  32  33
HETATM   33  C   UNL     1       7.330  31.988  60.466  1.00  0.00     0.119 A 
HETATM   34  N   UNL     1       8.003  31.669  61.555  1.00  0.00    -0.232 NA
HETATM   35  C   UNL     1       7.554  32.535  62.527  1.00  0.00     0.085 A 
HETATM   36  C   UNL     1       6.565  33.375  62.025  1.00  0.00     0.062 A 
HETATM   37  C   UNL     1       7.947  32.667  63.868  1.00  0.00     0.034 A 
HETATM   38  N   UNL     1       6.433  32.999  60.715  1.00  0.00    -0.342 N 
HETATM   39  C   UNL     1       5.926  34.351  62.791  1.00  0.00     0.032 A 
HETATM   40  H   UNL     1       5.789  33.395  60.044  1.00  0.00     0.167 HD
HETATM   41  C   UNL     1       6.332  34.470  64.125  1.00  0.00     0.002 A 
HETATM   42  C   UNL     1       7.327  33.644  64.657  1.00  0.00     0.002 A 
ENDBRANCH  32  33
ENDBRANCH  30  32
ENDBRANCH  27  30
ENDBRANCH   3  27
TORSDOF 7
ENDMDL
MODEL 7
REMARK VINA RESULT:     -11.3      3.378     10.116
REMARK  7 active torsions:
REMARK  status: ('A' for Active; 'I' for Inactive)
REMARK    1  A    between atoms: C_3  and  S_4 
REMARK    2  A    between atoms: S_4  and  N_5 
REMARK    3  A    between atoms: N_5  and  C_6 
REMARK    4  A    between atoms: C_6  and  C_7 
REMARK    5  A    between atoms: C_20  and  C_21 
REMARK    6  A    between atoms: C_25  and  N_26 
REMARK    7  A    between atoms: N_26  and  C_27 
ROOT
HETATM    1  C   UNL     1       3.186  28.557  51.593  1.00  0.00     0.050 C 
HETATM    2  C   UNL     1       4.040  28.811  52.804  1.00  0.00    -0.039 A 
HETATM    3  C   UNL     1       5.089  27.971  53.218  1.00  0.00     0.081 A 
HETATM    4  C   UNL     1       5.812  28.265  54.388  1.00  0.00     0.039 A 
HETATM    5  C   UNL     1       5.556  29.424  55.138  1.00  0.00    -0.003 A 
HETATM    6  C   UNL     1       4.504  30.251  54.727  1.00  0.00     0.014 A 
HETATM    7  C   UNL     1       3.756  29.944  53.586  1.00  0.00     0.009 A 
ENDROOT
BRANCH   5   8
HETATM    8  C   UNL     1       6.355  29.739  56.332  1.00  0.00     0.098 A 
HETATM    9  N   UNL     1       5.608  30.079  57.400  1.00  0.00    -0.172 NA
HETATM   10  N   UNL     1       6.209  30.293  58.554  1.00  0.00    -0.262 N 
HETATM   11  H   UNL     1       5.624  30.536  59.347  1.00  0.00     0.191 HD
HETATM   12  C   UNL     1       7.536  30.209  58.751  1.00  0.00     0.129 A 
HETATM   13  C   UNL     1       8.357  29.852  57.646  1.00  0.00     0.022 A 
HETATM   14  C   UNL     1       7.754  29.636  56.391  1.00  0.00     0.009 A 
HETATM   15  C   UNL     1       9.761  29.683  57.750  1.00  0.00     0.016 A 
HETATM   16  C   UNL     1       8.576  29.326  55.277  1.00  0.00     0.015 A 
HETATM   17  C   UNL     1       9.955  29.183  55.406  1.00  0.00     0.001 A 
HETATM   18  C   UNL     1      10.548  29.352  56.646  1.00  0.00     0.001 A 
BRANCH  12  19
HETATM   19  N   UNL     1       8.085  30.406  60.017  1.00  0.00    -0.370 N 
HETATM   20  H   UNL     1       8.451  29.533  60.403  1.00  0.00     0.161 HD
BRANCH  19  21
HETATM   21  C   UNL     1       8.870  31.578  60.425  1.00  0.00     0.083 C 
HETATM   22  C   UNL     1       8.011  32.852  60.392  1.00  0.00     0.025 C 
HETATM   23  C   UNL     1       6.918  32.857  61.460  1.00  0.00     0.002 C 
HETATM   24  C   UNL     1       7.493  32.631  62.854  1.00  0.00     0.000 C 
HETATM   25  C   UNL     1       8.337  31.362  62.916  1.00  0.00     0.002 C 
HETATM   26  C   UNL     1       9.426  31.352  61.842  1.00  0.00     0.025 C 
ENDBRANCH  19  21
ENDBRANCH  12  19
ENDBRANCH   5   8
BRANCH   3  27
HETATM   27  S   UNL     1       5.575  26.493  52.323  1.00  0.00     0.242 S 
HETATM   28  O   UNL     1       4.711  25.417  52.760  1.00  0.00    -0.206 OA
HETATM   29  O   UNL     1       5.724  26.823  50.927  1.00  0.00    -0.206 OA
BRANCH  27  30
HETATM   30  N   UNL     1       7.123  26.217  52.954  1.00  0.00    -0.208 NA
HETATM   31  H   UNL     1       7.079  26.070  53.966  1.00  0.00     0.140 HD
BRANCH  30  32
HETATM   32  C   UNL     1       7.884  25.157  52.271  1.00  0.00     0.182 C 
BRANCH  32  33
HETATM   33  C   UNL     1       7.961  23.974  53.169  1.00  0.00     0.119 A 
HETATM   34  N   UNL     1       7.859  22.708  52.812  1.00  0.00    -0.232 NA
HETATM   35  C   UNL     1       8.037  21.987  53.972  1.00  0.00     0.085 A 
HETATM   36  C   UNL     1       8.218  22.834  55.060  1.00  0.00     0.062 A 
HETATM   37  C   UNL     1       8.059  20.599  54.176  1.00  0.00     0.034 A 
HETATM   38  N   UNL     1       8.155  24.093  54.524  1.00  0.00    -0.342 N 
HETATM   39  C   UNL     1       8.417  22.378  56.364  1.00  0.00     0.032 A 
HETATM   40  H   UNL     1       8.236  24.962  55.035  1.00  0.00     0.167 HD
HETATM   41  C   UNL     1       8.438  20.990  56.548  1.00  0.00     0.002 A 
HETATM   42  C   UNL     1       8.264  20.113  55.473  1.00  0.00     0.002 A 
ENDBRANCH  32  33
ENDBRANCH  30  32
ENDBRANCH  27  30
ENDBRANCH   3  27
TORSDOF 7
ENDMDL
MODEL 8
REMARK VINA RESULT:     -11.2      2.564     10.661
REMARK  7 active torsions:
REMARK  status: ('A' for Active; 'I' for Inactive)
REMARK    1  A    between atoms: C_3  and  S_4 
REMARK    2  A    between atoms: S_4  and  N_5 
REMARK    3  A    between atoms: N_5  and  C_6 
REMARK    4  A    between atoms: C_6  and  C_7 
REMARK    5  A    between atoms: C_20  and  C_21 
REMARK    6  A    between atoms: C_25  and  N_26 
REMARK    7  A    between atoms: N_26  and  C_27 
ROOT
HETATM    1  C   UNL     1       4.401  27.631  53.429  1.00  0.00     0.050 C 
HETATM    2  C   UNL     1       4.728  28.447  54.648  1.00  0.00    -0.039 A 
HETATM    3  C   UNL     1       5.263  27.911  55.833  1.00  0.00     0.081 A 
HETATM    4  C   UNL     1       5.503  28.744  56.941  1.00  0.00     0.039 A 
HETATM    5  C   UNL     1       5.277  30.128  56.883  1.00  0.00    -0.003 A 
HETATM    6  C   UNL     1       4.733  30.654  55.705  1.00  0.00     0.014 A 
HETATM    7  C   UNL     1       4.457  29.826  54.612  1.00  0.00     0.009 A 
ENDROOT
BRANCH   5   8
HETATM    8  C   UNL     1       5.577  30.989  58.037  1.00  0.00     0.098 A 
HETATM    9  N   UNL     1       4.477  31.461  58.653  1.00  0.00    -0.172 NA
HETATM   10  N   UNL     1       4.619  32.170  59.756  1.00  0.00    -0.262 N 
HETATM   11  H   UNL     1       3.775  32.505  60.208  1.00  0.00     0.191 HD
HETATM   12  C   UNL     1       5.801  32.473  60.320  1.00  0.00     0.129 A 
HETATM   13  C   UNL     1       6.985  31.991  59.699  1.00  0.00     0.022 A 
HETATM   14  C   UNL     1       6.874  31.248  58.506  1.00  0.00     0.009 A 
HETATM   15  C   UNL     1       8.280  32.207  60.233  1.00  0.00     0.016 A 
HETATM   16  C   UNL     1       8.057  30.807  57.859  1.00  0.00     0.015 A 
HETATM   17  C   UNL     1       9.318  31.047  58.400  1.00  0.00     0.001 A 
HETATM   18  C   UNL     1       9.430  31.740  59.594  1.00  0.00     0.001 A 
BRANCH  12  19
HETATM   19  N   UNL     1       5.859  33.189  61.515  1.00  0.00    -0.370 N 
HETATM   20  H   UNL     1       5.582  34.164  61.377  1.00  0.00     0.161 HD
BRANCH  19  21
HETATM   21  C   UNL     1       5.467  32.671  62.832  1.00  0.00     0.083 C 
HETATM   22  C   UNL     1       6.609  31.859  63.463  1.00  0.00     0.025 C 
HETATM   23  C   UNL     1       7.809  32.724  63.845  1.00  0.00     0.002 C 
HETATM   24  C   UNL     1       7.404  33.879  64.753  1.00  0.00     0.000 C 
HETATM   25  C   UNL     1       6.282  34.711  64.140  1.00  0.00     0.002 C 
HETATM   26  C   UNL     1       5.083  33.845  63.749  1.00  0.00     0.025 C 
ENDBRANCH  19  21
ENDBRANCH  12  19
ENDBRANCH   5   8
BRANCH   3  27
HETATM   27  S   UNL     1       5.668  26.174  56.030  1.00  0.00     0.242 S 
HETATM   28  O   UNL     1       5.050  25.721  57.257  1.00  0.00    -0.206 OA
HETATM   29  O   UNL     1       5.443  25.498  54.776  1.00  0.00    -0.206 OA
BRANCH  27  30
HETATM   30  N   UNL     1       7.342  26.249  56.279  1.00  0.00    -0.208 NA
HETATM   31  H   UNL     1       7.626  27.197  56.542  1.00  0.00     0.140 HD
BRANCH  30  32
HETATM   32  C   UNL     1       7.872  25.234  57.205  1.00  0.00     0.182 C 
BRANCH  32  33
HETATM   33  C   UNL     1       8.112  23.977  56.445  1.00  0.00     0.119 A 
HETATM   34  N   UNL     1       8.349  22.783  56.954  1.00  0.00    -0.232 NA
HETATM   35  C   UNL     1       8.462  21.941  55.870  1.00  0.00     0.085 A 
HETATM   36  C   UNL     1       8.323  22.645  54.679  1.00  0.00     0.062 A 
HETATM   37  C   UNL     1       8.682  20.556  55.825  1.00  0.00     0.034 A 
HETATM   38  N   UNL     1       8.112  23.940  55.071  1.00  0.00    -0.342 N 
HETATM   39  C   UNL     1       8.397  22.046  53.420  1.00  0.00     0.032 A 
HETATM   40  H   UNL     1       7.979  24.734  54.459  1.00  0.00     0.167 HD
HETATM   41  C   UNL     1       8.614  20.663  53.394  1.00  0.00     0.002 A 
HETATM   42  C   UNL     1       8.753  19.928  54.575  1.00  0.00     0.002 A 
ENDBRANCH  32  33
ENDBRANCH  30  32
ENDBRANCH  27  30
ENDBRANCH   3  27
TORSDOF 7
ENDMDL
MODEL 9
REMARK VINA RESULT:     -11.0      2.579     10.984
REMARK  7 active torsions:
REMARK  status: ('A' for Active; 'I' for Inactive)
REMARK    1  A    between atoms: C_3  and  S_4 
REMARK    2  A    between atoms: S_4  and  N_5 
REMARK    3  A    between atoms: N_5  and  C_6 
REMARK    4  A    between atoms: C_6  and  C_7 
REMARK    5  A    between atoms: C_20  and  C_21 
REMARK    6  A    between atoms: C_25  and  N_26 
REMARK    7  A    between atoms: N_26  and  C_27 
ROOT
HETATM    1  C   UNL     1      11.027  30.070  57.196  1.00  0.00     0.050 C 
HETATM    2  C   UNL     1       9.844  30.543  57.994  1.00  0.00    -0.039 A 
HETATM    3  C   UNL     1       8.555  29.991  57.894  1.00  0.00     0.081 A 
HETATM    4  C   UNL     1       7.496  30.524  58.651  1.00  0.00     0.039 A 
HETATM    5  C   UNL     1       7.699  31.569  59.565  1.00  0.00    -0.003 A 
HETATM    6  C   UNL     1       8.982  32.123  59.651  1.00  0.00     0.014 A 
HETATM    7  C   UNL     1      10.032  31.624  58.874  1.00  0.00     0.009 A 
ENDROOT
BRANCH   5   8
HETATM    8  C   UNL     1       6.588  32.081  60.381  1.00  0.00     0.098 A 
HETATM    9  N   UNL     1       5.412  32.108  59.727  1.00  0.00    -0.172 NA
HETATM   10  N   UNL     1       4.325  32.462  60.386  1.00  0.00    -0.262 N 
HETATM   11  H   UNL     1       3.449  32.463  59.874  1.00  0.00     0.191 HD
HETATM   12  C   UNL     1       4.300  32.815  61.682  1.00  0.00     0.129 A 
HETATM   13  C   UNL     1       5.523  32.797  62.406  1.00  0.00     0.022 A 
HETATM   14  C   UNL     1       6.709  32.446  61.731  1.00  0.00     0.009 A 
HETATM   15  C   UNL     1       5.607  33.101  63.789  1.00  0.00     0.016 A 
HETATM   16  C   UNL     1       7.938  32.475  62.440  1.00  0.00     0.015 A 
HETATM   17  C   UNL     1       7.992  32.793  63.795  1.00  0.00     0.001 A 
HETATM   18  C   UNL     1       6.823  33.097  64.473  1.00  0.00     0.001 A 
BRANCH  12  19
HETATM   19  N   UNL     1       3.098  33.130  62.313  1.00  0.00    -0.370 N 
HETATM   20  H   UNL     1       2.869  32.447  63.039  1.00  0.00     0.161 HD
BRANCH  19  21
HETATM   21  C   UNL     1       2.652  34.487  62.654  1.00  0.00     0.083 C 
HETATM   22  C   UNL     1       3.382  35.535  61.799  1.00  0.00     0.025 C 
HETATM   23  C   UNL     1       2.990  35.471  60.323  1.00  0.00     0.002 C 
HETATM   24  C   UNL     1       1.481  35.579  60.137  1.00  0.00     0.000 C 
HETATM   25  C   UNL     1       0.735  34.537  60.964  1.00  0.00     0.002 C 
HETATM   26  C   UNL     1       1.132  34.594  62.440  1.00  0.00     0.025 C 
ENDBRANCH  19  21
ENDBRANCH  12  19
ENDBRANCH   5   8
BRANCH   3  27
HETATM   27  S   UNL     1       8.161  28.607  56.820  1.00  0.00     0.242 S 
HETATM   28  O   UNL     1       8.710  28.901  55.514  1.00  0.00    -0.206 OA
HETATM   29  O   UNL     1       8.469  27.380  57.512  1.00  0.00    -0.206 OA
BRANCH  27  30
HETATM   30  N   UNL     1       6.474  28.733  56.724  1.00  0.00    -0.208 NA
HETATM   31  H   UNL     1       6.198  29.264  55.893  1.00  0.00     0.140 HD
BRANCH  30  32
HETATM   32  C   UNL     1       5.756  27.452  56.829  1.00  0.00     0.182 C 
BRANCH  32  33
HETATM   33  C   UNL     1       6.245  26.544  55.756  1.00  0.00     0.119 A 
HETATM   34  N   UNL     1       6.305  26.813  54.465  1.00  0.00    -0.232 NA
HETATM   35  C   UNL     1       6.861  25.695  53.886  1.00  0.00     0.085 A 
HETATM   36  C   UNL     1       7.114  24.715  54.841  1.00  0.00     0.062 A 
HETATM   37  C   UNL     1       7.184  25.442  52.544  1.00  0.00     0.034 A 
HETATM   38  N   UNL     1       6.702  25.276  56.020  1.00  0.00    -0.342 N 
HETATM   39  C   UNL     1       7.672  23.473  54.536  1.00  0.00     0.032 A 
HETATM   40  H   UNL     1       6.729  24.836  56.930  1.00  0.00     0.167 HD
HETATM   41  C   UNL     1       7.990  23.239  53.193  1.00  0.00     0.002 A 
HETATM   42  C   UNL     1       7.753  24.205  52.212  1.00  0.00     0.002 A 
ENDBRANCH  32  33
ENDBRANCH  30  32
ENDBRANCH  27  30
ENDBRANCH   3  27
TORSDOF 7
ENDMDL
MODEL 10
REMARK VINA RESULT:     -10.8      4.353     11.207
REMARK  7 active torsions:
REMARK  status: ('A' for Active; 'I' for Inactive)
REMARK    1  A    between atoms: C_3  and  S_4 
REMARK    2  A    between atoms: S_4  and  N_5 
REMARK    3  A    between atoms: N_5  and  C_6 
REMARK    4  A    between atoms: C_6  and  C_7 
REMARK    5  A    between atoms: C_20  and  C_21 
REMARK    6  A    between atoms: C_25  and  N_26 
REMARK    7  A    between atoms: N_26  and  C_27 
ROOT
HETATM    1  C   UNL     1       7.623  23.652  54.739  1.00  0.00     0.050 C 
HETATM    2  C   UNL     1       7.382  25.010  55.338  1.00  0.00    -0.039 A 
HETATM    3  C   UNL     1       6.676  26.040  54.692  1.00  0.00     0.081 A 
HETATM    4  C   UNL     1       6.531  27.295  55.312  1.00  0.00     0.039 A 
HETATM    5  C   UNL     1       7.026  27.538  56.603  1.00  0.00    -0.003 A 
HETATM    6  C   UNL     1       7.738  26.513  57.236  1.00  0.00     0.014 A 
HETATM    7  C   UNL     1       7.918  25.274  56.610  1.00  0.00     0.009 A 
ENDROOT
BRANCH   5   8
HETATM    8  C   UNL     1       6.824  28.842  57.252  1.00  0.00     0.098 A 
HETATM    9  N   UNL     1       5.527  29.134  57.473  1.00  0.00    -0.172 NA
HETATM   10  N   UNL     1       5.227  30.236  58.133  1.00  0.00    -0.262 N 
HETATM   11  H   UNL     1       4.244  30.428  58.297  1.00  0.00     0.191 HD
HETATM   12  C   UNL     1       6.129  31.114  58.603  1.00  0.00     0.129 A 
HETATM   13  C   UNL     1       7.507  30.838  58.390  1.00  0.00     0.022 A 
HETATM   14  C   UNL     1       7.868  29.682  57.670  1.00  0.00     0.009 A 
HETATM   15  C   UNL     1       8.546  31.668  58.885  1.00  0.00     0.016 A 
HETATM   16  C   UNL     1       9.241  29.431  57.415  1.00  0.00     0.015 A 
HETATM   17  C   UNL     1      10.239  30.272  57.901  1.00  0.00     0.001 A 
HETATM   18  C   UNL     1       9.892  31.387  58.646  1.00  0.00     0.001 A 
BRANCH  12  19
HETATM   19  N   UNL     1       5.726  32.232  59.332  1.00  0.00    -0.370 N 
HETATM   20  H   UNL     1       5.394  32.977  58.715  1.00  0.00     0.161 HD
BRANCH  19  21
HETATM   21  C   UNL     1       5.004  32.192  60.610  1.00  0.00     0.083 C 
HETATM   22  C   UNL     1       5.982  32.258  61.794  1.00  0.00     0.025 C 
HETATM   23  C   UNL     1       6.684  33.610  61.907  1.00  0.00     0.002 C 
HETATM   24  C   UNL     1       5.684  34.760  61.969  1.00  0.00     0.000 C 
HETATM   25  C   UNL     1       4.713  34.725  60.795  1.00  0.00     0.002 C 
HETATM   26  C   UNL     1       4.015  33.369  60.675  1.00  0.00     0.025 C 
ENDBRANCH  19  21
ENDBRANCH  12  19
ENDBRANCH   5   8
BRANCH   3  27
HETATM   27  S   UNL     1       5.929  25.853  53.071  1.00  0.00     0.242 S 
HETATM   28  O   UNL     1       7.002  25.815  52.101  1.00  0.00    -0.206 OA
HETATM   29  O   UNL     1       4.931  24.813  53.136  1.00  0.00    -0.206 OA
BRANCH  27  30
HETATM   30  N   UNL     1       5.119  27.332  52.906  1.00  0.00    -0.208 NA
HETATM   31  H   UNL     1       5.171  27.871  53.775  1.00  0.00     0.140 HD
BRANCH  30  32
HETATM   32  C   UNL     1       5.526  28.127  51.735  1.00  0.00     0.182 C 
BRANCH  32  33
HETATM   33  C   UNL     1       4.675  27.737  50.578  1.00  0.00     0.119 A 
HETATM   34  N   UNL     1       4.993  26.888  49.619  1.00  0.00    -0.232 NA
HETATM   35  C   UNL     1       3.882  26.821  48.809  1.00  0.00     0.085 A 
HETATM   36  C   UNL     1       2.882  27.672  49.268  1.00  0.00     0.062 A 
HETATM   37  C   UNL     1       3.650  26.052  47.659  1.00  0.00     0.034 A 
HETATM   38  N   UNL     1       3.416  28.252  50.388  1.00  0.00    -0.342 N 
HETATM   39  C   UNL     1       1.644  27.813  48.637  1.00  0.00     0.032 A 
HETATM   40  H   UNL     1       2.964  28.939  50.976  1.00  0.00     0.167 HD
HETATM   41  C   UNL     1       1.430  27.035  47.493  1.00  0.00     0.002 A 
HETATM   42  C   UNL     1       2.414  26.167  47.011  1.00  0.00     0.002 A 
ENDBRANCH  32  33
ENDBRANCH  30  32
ENDBRANCH  27  30
ENDBRANCH   3  27
TORSDOF 7
ENDMDL
