MODEL 1
REMARK VINA RESULT:      -9.7      0.000      0.000
REMARK  4 active torsions:
REMARK  status: ('A' for Active; 'I' for Inactive)
REMARK    1  A    between atoms: C_3  and  C_4 
REMARK       I    between atoms: C_4  and  N_5 
REMARK    2  A    between atoms: N_5  and  C_6 
REMARK    3  A    between atoms: C_13  and  C_14 
REMARK       I    between atoms: C_14  and  N_15 
REMARK    4  A    between atoms: C_23  and  O_24 
ROOT
HETATM    1  C   UNL     1       7.265  26.945  54.695  1.00  0.00     0.280 C 
HETATM    2  N   UNL     1       6.841  27.149  55.997  1.00  0.00    -0.321 N 
HETATM    3  O   UNL     1       7.466  27.830  53.871  1.00  0.00    -0.265 OA
HETATM    4  H   UNL     1       6.761  26.300  56.547  1.00  0.00     0.169 HD
ENDROOT
BRANCH   2   5
HETATM    5  C   UNL     1       6.534  28.366  56.638  1.00  0.00     0.036 A 
HETATM    6  C   UNL     1       7.473  29.137  57.335  1.00  0.00     0.046 A 
HETATM    7  C   UNL     1       7.071  30.348  57.941  1.00  0.00     0.030 A 
HETATM    8  C   UNL     1       5.743  30.741  57.837  1.00  0.00     0.063 A 
HETATM    9  C   UNL     1       7.703  31.381  58.699  1.00  0.00     0.156 A 
HETATM   10  N   UNL     1       5.660  31.924  58.516  1.00  0.00    -0.277 N 
HETATM   11  C   UNL     1       4.781  29.999  57.150  1.00  0.00     0.034 A 
HETATM   12  H   UNL     1       4.836  32.499  58.650  1.00  0.00     0.189 HD
HETATM   13  N   UNL     1       6.820  32.344  59.048  1.00  0.00    -0.168 NA
HETATM   14  C   UNL     1       5.207  28.807  56.549  1.00  0.00     0.032 A 
BRANCH   9  15
HETATM   15  C   UNL     1       9.118  31.468  59.088  1.00  0.00     0.270 C 
HETATM   16  N   UNL     1       9.441  30.719  60.188  1.00  0.00    -0.365 N 
HETATM   17  H   UNL     1       8.710  30.186  60.644  1.00  0.00     0.159 HD
HETATM   18  H   UNL     1      10.386  30.728  60.536  1.00  0.00     0.159 HD
HETATM   19  O   UNL     1       9.963  32.141  58.510  1.00  0.00    -0.266 OA
ENDBRANCH   9  15
ENDBRANCH   2   5
BRANCH   1  20
HETATM   20  C   UNL     1       7.470  25.535  54.391  1.00  0.00     0.150 A 
HETATM   21  C   UNL     1       7.410  24.817  53.203  1.00  0.00    -0.009 A 
HETATM   22  C   UNL     1       7.116  25.328  51.839  1.00  0.00     0.052 C 
HETATM   23  C   UNL     1       7.684  23.456  53.549  1.00  0.00     0.009 A 
HETATM   24  C   UNL     1       7.902  23.433  54.920  1.00  0.00     0.120 A 
HETATM   25  C   UNL     1       7.766  22.246  52.838  1.00  0.00     0.015 A 
HETATM   26  O   UNL     1       7.781  24.692  55.428  1.00  0.00    -0.301 OA
HETATM   27  C   UNL     1       8.195  22.281  55.662  1.00  0.00     0.102 A 
HETATM   28  C   UNL     1       8.271  21.090  54.924  1.00  0.00     0.040 A 
HETATM   29  C   UNL     1       8.060  21.071  53.540  1.00  0.00     0.004 A 
BRANCH  27  30
HETATM   30  O   UNL     1       8.383  22.407  57.009  1.00  0.00    -0.353 OA
HETATM   31  C   UNL     1       8.414  21.205  57.767  1.00  0.00     0.210 C 
ENDBRANCH  27  30
ENDBRANCH   1  20
TORSDOF 4
ENDMDL
MODEL 2
REMARK VINA RESULT:      -9.7      4.461      6.927
REMARK  4 active torsions:
REMARK  status: ('A' for Active; 'I' for Inactive)
REMARK    1  A    between atoms: C_3  and  C_4 
REMARK       I    between atoms: C_4  and  N_5 
REMARK    2  A    between atoms: N_5  and  C_6 
REMARK    3  A    between atoms: C_13  and  C_14 
REMARK       I    between atoms: C_14  and  N_15 
REMARK    4  A    between atoms: C_23  and  O_24 
ROOT
HETATM    1  C   UNL     1       7.089  25.748  53.606  1.00  0.00     0.280 C 
HETATM    2  N   UNL     1       5.775  25.736  53.168  1.00  0.00    -0.321 N 
HETATM    3  O   UNL     1       7.916  26.609  53.331  1.00  0.00    -0.265 OA
HETATM    4  H   UNL     1       5.224  24.961  53.525  1.00  0.00     0.169 HD
ENDROOT
BRANCH   2   5
HETATM    5  C   UNL     1       5.124  26.658  52.326  1.00  0.00     0.036 A 
HETATM    6  C   UNL     1       5.156  26.592  50.926  1.00  0.00     0.046 A 
HETATM    7  C   UNL     1       4.465  27.561  50.165  1.00  0.00     0.030 A 
HETATM    8  C   UNL     1       3.773  28.566  50.829  1.00  0.00     0.063 A 
HETATM    9  C   UNL     1       4.253  27.822  48.777  1.00  0.00     0.156 A 
HETATM   10  N   UNL     1       3.224  29.340  49.845  1.00  0.00    -0.277 N 
HETATM   11  C   UNL     1       3.719  28.664  52.220  1.00  0.00     0.034 A 
HETATM   12  H   UNL     1       2.653  30.169  49.962  1.00  0.00     0.189 HD
HETATM   13  N   UNL     1       3.489  28.923  48.595  1.00  0.00    -0.168 NA
HETATM   14  C   UNL     1       4.405  27.685  52.952  1.00  0.00     0.032 A 
BRANCH   9  15
HETATM   15  C   UNL     1       4.756  27.047  47.634  1.00  0.00     0.270 C 
HETATM   16  N   UNL     1       6.025  27.384  47.245  1.00  0.00    -0.365 N 
HETATM   17  H   UNL     1       6.505  28.120  47.748  1.00  0.00     0.159 HD
HETATM   18  H   UNL     1       6.447  26.915  46.461  1.00  0.00     0.159 HD
HETATM   19  O   UNL     1       4.127  26.172  47.049  1.00  0.00    -0.266 OA
ENDBRANCH   9  15
ENDBRANCH   2   5
BRANCH   1  20
HETATM   20  C   UNL     1       7.401  24.611  54.462  1.00  0.00     0.150 A 
HETATM   21  C   UNL     1       7.760  24.521  55.801  1.00  0.00    -0.009 A 
HETATM   22  C   UNL     1       7.919  25.626  56.781  1.00  0.00     0.052 C 
HETATM   23  C   UNL     1       7.961  23.129  56.064  1.00  0.00     0.009 A 
HETATM   24  C   UNL     1       7.704  22.461  54.874  1.00  0.00     0.120 A 
HETATM   25  C   UNL     1       8.338  22.373  57.188  1.00  0.00     0.015 A 
HETATM   26  O   UNL     1       7.356  23.356  53.907  1.00  0.00    -0.301 OA
HETATM   27  C   UNL     1       7.797  21.073  54.702  1.00  0.00     0.102 A 
HETATM   28  C   UNL     1       8.173  20.347  55.842  1.00  0.00     0.040 A 
HETATM   29  C   UNL     1       8.439  20.982  57.060  1.00  0.00     0.004 A 
BRANCH  27  30
HETATM   30  O   UNL     1       7.517  20.552  53.470  1.00  0.00    -0.353 OA
HETATM   31  C   UNL     1       8.624  20.293  52.617  1.00  0.00     0.210 C 
ENDBRANCH  27  30
ENDBRANCH   1  20
TORSDOF 4
ENDMDL
MODEL 3
REMARK VINA RESULT:      -9.5      4.406      9.979
REMARK  4 active torsions:
REMARK  status: ('A' for Active; 'I' for Inactive)
REMARK    1  A    between atoms: C_3  and  C_4 
REMARK       I    between atoms: C_4  and  N_5 
REMARK    2  A    between atoms: N_5  and  C_6 
REMARK    3  A    between atoms: C_13  and  C_14 
REMARK       I    between atoms: C_14  and  N_15 
REMARK    4  A    between atoms: C_23  and  O_24 
ROOT
HETATM    1  C   UNL     1       6.868  31.948  59.438  1.00  0.00     0.280 C 
HETATM    2  N   UNL     1       7.428  30.704  59.204  1.00  0.00    -0.321 N 
HETATM    3  O   UNL     1       6.379  32.674  58.580  1.00  0.00    -0.265 OA
HETATM    4  H   UNL     1       7.754  30.229  60.040  1.00  0.00     0.169 HD
ENDROOT
BRANCH   2   5
HETATM    5  C   UNL     1       7.576  30.026  57.978  1.00  0.00     0.036 A 
HETATM    6  C   UNL     1       6.502  29.531  57.226  1.00  0.00     0.046 A 
HETATM    7  C   UNL     1       6.752  28.869  56.003  1.00  0.00     0.030 A 
HETATM    8  C   UNL     1       8.065  28.717  55.579  1.00  0.00     0.063 A 
HETATM    9  C   UNL     1       5.961  28.258  54.983  1.00  0.00     0.156 A 
HETATM   10  N   UNL     1       7.988  28.045  54.392  1.00  0.00    -0.277 N 
HETATM   11  C   UNL     1       9.159  29.197  56.301  1.00  0.00     0.034 A 
HETATM   12  H   UNL     1       8.757  27.758  53.797  1.00  0.00     0.189 HD
HETATM   13  N   UNL     1       6.737  27.753  53.997  1.00  0.00    -0.168 NA
HETATM   14  C   UNL     1       8.885  29.858  57.505  1.00  0.00     0.032 A 
BRANCH   9  15
HETATM   15  C   UNL     1       4.496  28.152  54.928  1.00  0.00     0.270 C 
HETATM   16  N   UNL     1       3.910  27.881  56.136  1.00  0.00    -0.365 N 
HETATM   17  H   UNL     1       4.505  27.769  56.948  1.00  0.00     0.159 HD
HETATM   18  H   UNL     1       2.910  27.778  56.192  1.00  0.00     0.159 HD
HETATM   19  O   UNL     1       3.822  28.283  53.913  1.00  0.00    -0.266 OA
ENDBRANCH   9  15
ENDBRANCH   2   5
BRANCH   1  20
HETATM   20  C   UNL     1       6.906  32.320  60.846  1.00  0.00     0.150 A 
HETATM   21  C   UNL     1       7.951  32.438  61.754  1.00  0.00    -0.009 A 
HETATM   22  C   UNL     1       9.400  32.217  61.513  1.00  0.00     0.052 C 
HETATM   23  C   UNL     1       7.354  32.815  62.998  1.00  0.00     0.009 A 
HETATM   24  C   UNL     1       5.988  32.910  62.768  1.00  0.00     0.120 A 
HETATM   25  C   UNL     1       7.835  33.080  64.292  1.00  0.00     0.015 A 
HETATM   26  O   UNL     1       5.718  32.620  61.464  1.00  0.00    -0.301 OA
HETATM   27  C   UNL     1       5.037  33.250  63.740  1.00  0.00     0.102 A 
HETATM   28  C   UNL     1       5.548  33.510  65.020  1.00  0.00     0.040 A 
HETATM   29  C   UNL     1       6.919  33.426  65.293  1.00  0.00     0.004 A 
BRANCH  27  30
HETATM   30  O   UNL     1       3.723  33.303  63.371  1.00  0.00    -0.353 OA
HETATM   31  C   UNL     1       3.165  34.595  63.173  1.00  0.00     0.210 C 
ENDBRANCH  27  30
ENDBRANCH   1  20
TORSDOF 4
ENDMDL
MODEL 4
REMARK VINA RESULT:      -9.5      2.127      2.833
REMARK  4 active torsions:
REMARK  status: ('A' for Active; 'I' for Inactive)
REMARK    1  A    between atoms: C_3  and  C_4 
REMARK       I    between atoms: C_4  and  N_5 
REMARK    2  A    between atoms: N_5  and  C_6 
REMARK    3  A    between atoms: C_13  and  C_14 
REMARK       I    between atoms: C_14  and  N_15 
REMARK    4  A    between atoms: C_23  and  O_24 
ROOT
HETATM    1  C   UNL     1       8.137  26.581  57.049  1.00  0.00     0.280 C 
HETATM    2  N   UNL     1       8.743  27.722  56.554  1.00  0.00    -0.321 N 
HETATM    3  O   UNL     1       7.764  26.425  58.206  1.00  0.00    -0.265 OA
HETATM    4  H   UNL     1       8.953  27.686  55.561  1.00  0.00     0.169 HD
ENDROOT
BRANCH   2   5
HETATM    5  C   UNL     1       9.076  28.906  57.240  1.00  0.00     0.036 A 
HETATM    6  C   UNL     1       8.188  29.600  58.074  1.00  0.00     0.046 A 
HETATM    7  C   UNL     1       8.618  30.777  58.726  1.00  0.00     0.030 A 
HETATM    8  C   UNL     1       9.916  31.225  58.516  1.00  0.00     0.063 A 
HETATM    9  C   UNL     1       8.042  31.724  59.627  1.00  0.00     0.156 A 
HETATM   10  N   UNL     1      10.031  32.365  59.259  1.00  0.00    -0.277 N 
HETATM   11  C   UNL     1      10.827  30.560  57.694  1.00  0.00     0.034 A 
HETATM   12  H   UNL     1      10.844  32.964  59.344  1.00  0.00     0.189 HD
HETATM   13  N   UNL     1       8.925  32.698  59.945  1.00  0.00    -0.168 NA
HETATM   14  C   UNL     1      10.380  29.390  57.066  1.00  0.00     0.032 A 
BRANCH   9  15
HETATM   15  C   UNL     1       6.684  31.714  60.189  1.00  0.00     0.270 C 
HETATM   16  N   UNL     1       6.621  31.295  61.491  1.00  0.00    -0.365 N 
HETATM   17  H   UNL     1       7.480  31.024  61.954  1.00  0.00     0.159 HD
HETATM   18  H   UNL     1       5.729  31.243  61.955  1.00  0.00     0.159 HD
HETATM   19  O   UNL     1       5.671  32.039  59.580  1.00  0.00    -0.266 OA
ENDBRANCH   9  15
ENDBRANCH   2   5
BRANCH   1  20
HETATM   20  C   UNL     1       7.966  25.554  56.030  1.00  0.00     0.150 A 
HETATM   21  C   UNL     1       7.355  25.569  54.782  1.00  0.00    -0.009 A 
HETATM   22  C   UNL     1       6.684  26.709  54.106  1.00  0.00     0.052 C 
HETATM   23  C   UNL     1       7.490  24.244  54.260  1.00  0.00     0.009 A 
HETATM   24  C   UNL     1       8.180  23.510  55.216  1.00  0.00     0.120 A 
HETATM   25  C   UNL     1       7.095  23.596  53.076  1.00  0.00     0.015 A 
HETATM   26  O   UNL     1       8.475  24.305  56.283  1.00  0.00    -0.301 OA
HETATM   27  C   UNL     1       8.512  22.154  55.094  1.00  0.00     0.102 A 
HETATM   28  C   UNL     1       8.106  21.537  53.902  1.00  0.00     0.040 A 
HETATM   29  C   UNL     1       7.410  22.241  52.913  1.00  0.00     0.004 A 
BRANCH  27  30
HETATM   30  O   UNL     1       9.192  21.559  56.119  1.00  0.00    -0.353 OA
HETATM   31  C   UNL     1       8.970  20.169  56.313  1.00  0.00     0.210 C 
ENDBRANCH  27  30
ENDBRANCH   1  20
TORSDOF 4
ENDMDL
MODEL 5
REMARK VINA RESULT:      -9.4      1.847      2.637
REMARK  4 active torsions:
REMARK  status: ('A' for Active; 'I' for Inactive)
REMARK    1  A    between atoms: C_3  and  C_4 
REMARK       I    between atoms: C_4  and  N_5 
REMARK    2  A    between atoms: N_5  and  C_6 
REMARK    3  A    between atoms: C_13  and  C_14 
REMARK       I    between atoms: C_14  and  N_15 
REMARK    4  A    between atoms: C_23  and  O_24 
ROOT
HETATM    1  C   UNL     1       6.684  25.861  56.131  1.00  0.00     0.280 C 
HETATM    2  N   UNL     1       7.662  26.841  56.154  1.00  0.00    -0.321 N 
HETATM    3  O   UNL     1       5.601  25.932  56.701  1.00  0.00    -0.265 OA
HETATM    4  H   UNL     1       8.482  26.624  55.596  1.00  0.00     0.169 HD
ENDROOT
BRANCH   2   5
HETATM    5  C   UNL     1       7.647  28.079  56.825  1.00  0.00     0.036 A 
HETATM    6  C   UNL     1       6.488  28.839  57.031  1.00  0.00     0.046 A 
HETATM    7  C   UNL     1       6.572  30.068  57.723  1.00  0.00     0.030 A 
HETATM    8  C   UNL     1       7.813  30.499  58.176  1.00  0.00     0.063 A 
HETATM    9  C   UNL     1       5.657  31.087  58.129  1.00  0.00     0.156 A 
HETATM   10  N   UNL     1       7.580  31.698  58.787  1.00  0.00    -0.277 N 
HETATM   11  C   UNL     1       8.987  29.769  57.989  1.00  0.00     0.034 A 
HETATM   12  H   UNL     1       8.260  32.304  59.232  1.00  0.00     0.189 HD
HETATM   13  N   UNL     1       6.293  32.086  58.781  1.00  0.00    -0.168 NA
HETATM   14  C   UNL     1       8.876  28.548  57.309  1.00  0.00     0.032 A 
BRANCH   9  15
HETATM   15  C   UNL     1       4.204  31.122  57.913  1.00  0.00     0.270 C 
HETATM   16  N   UNL     1       3.483  30.436  58.853  1.00  0.00    -0.365 N 
HETATM   17  H   UNL     1       3.983  29.963  59.597  1.00  0.00     0.159 HD
HETATM   18  H   UNL     1       2.480  30.394  58.779  1.00  0.00     0.159 HD
HETATM   19  O   UNL     1       3.646  31.699  56.986  1.00  0.00    -0.266 OA
ENDBRANCH   9  15
ENDBRANCH   2   5
BRANCH   1  20
HETATM   20  C   UNL     1       7.070  24.707  55.331  1.00  0.00     0.150 A 
HETATM   21  C   UNL     1       7.366  24.563  53.981  1.00  0.00    -0.009 A 
HETATM   22  C   UNL     1       7.383  25.615  52.931  1.00  0.00     0.052 C 
HETATM   23  C   UNL     1       7.652  23.176  53.784  1.00  0.00     0.009 A 
HETATM   24  C   UNL     1       7.522  22.565  55.024  1.00  0.00     0.120 A 
HETATM   25  C   UNL     1       8.005  22.379  52.680  1.00  0.00     0.015 A 
HETATM   26  O   UNL     1       7.178  23.493  55.961  1.00  0.00    -0.301 OA
HETATM   27  C   UNL     1       7.710  21.197  55.264  1.00  0.00     0.102 A 
HETATM   28  C   UNL     1       8.063  20.430  54.144  1.00  0.00     0.040 A 
HETATM   29  C   UNL     1       8.207  21.008  52.877  1.00  0.00     0.004 A 
BRANCH  27  30
HETATM   30  O   UNL     1       7.544  20.733  56.539  1.00  0.00    -0.353 OA
HETATM   31  C   UNL     1       8.641  20.895  57.427  1.00  0.00     0.210 C 
ENDBRANCH  27  30
ENDBRANCH   1  20
TORSDOF 4
ENDMDL
MODEL 6
REMARK VINA RESULT:      -9.3      4.826      8.411
REMARK  4 active torsions:
REMARK  status: ('A' for Active; 'I' for Inactive)
REMARK    1  A    between atoms: C_3  and  C_4 
REMARK       I    between atoms: C_4  and  N_5 
REMARK    2  A    between atoms: N_5  and  C_6 
REMARK    3  A    between atoms: C_13  and  C_14 
REMARK       I    between atoms: C_14  and  N_15 
REMARK    4  A    between atoms: C_23  and  O_24 
ROOT
HETATM    1  C   UNL     1       5.241  25.713  52.561  1.00  0.00     0.280 C 
HETATM    2  N   UNL     1       6.472  25.776  53.193  1.00  0.00    -0.321 N 
HETATM    3  O   UNL     1       4.323  24.967  52.879  1.00  0.00    -0.265 OA
HETATM    4  H   UNL     1       7.099  26.479  52.815  1.00  0.00     0.169 HD
ENDROOT
BRANCH   2   5
HETATM    5  C   UNL     1       6.937  25.015  54.282  1.00  0.00     0.036 A 
HETATM    6  C   UNL     1       7.270  23.656  54.198  1.00  0.00     0.046 A 
HETATM    7  C   UNL     1       7.735  22.978  55.347  1.00  0.00     0.030 A 
HETATM    8  C   UNL     1       7.843  23.679  56.541  1.00  0.00     0.063 A 
HETATM    9  C   UNL     1       8.170  21.653  55.656  1.00  0.00     0.156 A 
HETATM   10  N   UNL     1       8.302  22.772  57.454  1.00  0.00    -0.277 N 
HETATM   11  C   UNL     1       7.521  25.031  56.663  1.00  0.00     0.034 A 
HETATM   12  H   UNL     1       8.496  22.932  58.436  1.00  0.00     0.189 HD
HETATM   13  N   UNL     1       8.514  21.541  56.959  1.00  0.00    -0.168 NA
HETATM   14  C   UNL     1       7.071  25.684  55.507  1.00  0.00     0.032 A 
BRANCH   9  15
HETATM   15  C   UNL     1       8.267  20.506  54.741  1.00  0.00     0.270 C 
HETATM   16  N   UNL     1       9.116  19.521  55.170  1.00  0.00    -0.365 N 
HETATM   17  H   UNL     1       9.604  19.651  56.048  1.00  0.00     0.159 HD
HETATM   18  H   UNL     1       9.256  18.703  54.600  1.00  0.00     0.159 HD
HETATM   19  O   UNL     1       7.663  20.404  53.679  1.00  0.00    -0.266 OA
ENDBRANCH   9  15
ENDBRANCH   2   5
BRANCH   1  20
HETATM   20  C   UNL     1       5.134  26.657  51.457  1.00  0.00     0.150 A 
HETATM   21  C   UNL     1       5.236  28.041  51.397  1.00  0.00    -0.009 A 
HETATM   22  C   UNL     1       5.512  28.987  52.510  1.00  0.00     0.052 C 
HETATM   23  C   UNL     1       5.011  28.397  50.030  1.00  0.00     0.009 A 
HETATM   24  C   UNL     1       4.796  27.210  49.343  1.00  0.00     0.120 A 
HETATM   25  C   UNL     1       4.966  29.604  49.310  1.00  0.00     0.015 A 
HETATM   26  O   UNL     1       4.878  26.157  50.204  1.00  0.00    -0.301 OA
HETATM   27  C   UNL     1       4.527  27.119  47.971  1.00  0.00     0.102 A 
HETATM   28  C   UNL     1       4.491  28.339  47.280  1.00  0.00     0.040 A 
HETATM   29  C   UNL     1       4.705  29.558  47.935  1.00  0.00     0.004 A 
BRANCH  27  30
HETATM   30  O   UNL     1       4.332  25.880  47.428  1.00  0.00    -0.353 OA
HETATM   31  C   UNL     1       2.990  25.421  47.346  1.00  0.00     0.210 C 
ENDBRANCH  27  30
ENDBRANCH   1  20
TORSDOF 4
ENDMDL
MODEL 7
REMARK VINA RESULT:      -9.2      2.813      8.544
REMARK  4 active torsions:
REMARK  status: ('A' for Active; 'I' for Inactive)
REMARK    1  A    between atoms: C_3  and  C_4 
REMARK       I    between atoms: C_4  and  N_5 
REMARK    2  A    between atoms: N_5  and  C_6 
REMARK    3  A    between atoms: C_13  and  C_14 
REMARK       I    between atoms: C_14  and  N_15 
REMARK    4  A    between atoms: C_23  and  O_24 
ROOT
HETATM    1  C   UNL     1       6.021  26.435  56.509  1.00  0.00     0.280 C 
HETATM    2  N   UNL     1       6.905  26.209  55.468  1.00  0.00    -0.321 N 
HETATM    3  O   UNL     1       5.335  25.577  57.050  1.00  0.00    -0.265 OA
HETATM    4  H   UNL     1       7.415  27.034  55.167  1.00  0.00     0.169 HD
ENDROOT
BRANCH   2   5
HETATM    5  C   UNL     1       7.189  24.998  54.807  1.00  0.00     0.036 A 
HETATM    6  C   UNL     1       7.690  23.858  55.450  1.00  0.00     0.046 A 
HETATM    7  C   UNL     1       7.937  22.686  54.701  1.00  0.00     0.030 A 
HETATM    8  C   UNL     1       7.685  22.697  53.335  1.00  0.00     0.063 A 
HETATM    9  C   UNL     1       8.416  21.369  54.978  1.00  0.00     0.156 A 
HETATM   10  N   UNL     1       8.023  21.449  52.894  1.00  0.00    -0.277 N 
HETATM   11  C   UNL     1       7.187  23.813  52.661  1.00  0.00     0.034 A 
HETATM   12  H   UNL     1       7.971  21.098  51.944  1.00  0.00     0.189 HD
HETATM   13  N   UNL     1       8.465  20.619  53.853  1.00  0.00    -0.168 NA
HETATM   14  C   UNL     1       6.940  24.960  53.428  1.00  0.00     0.032 A 
BRANCH   9  15
HETATM   15  C   UNL     1       8.817  20.817  56.280  1.00  0.00     0.270 C 
HETATM   16  N   UNL     1       9.810  19.877  56.205  1.00  0.00    -0.365 N 
HETATM   17  H   UNL     1      10.177  19.632  55.293  1.00  0.00     0.159 HD
HETATM   18  H   UNL     1      10.140  19.434  57.047  1.00  0.00     0.159 HD
HETATM   19  O   UNL     1       8.329  21.138  57.357  1.00  0.00    -0.266 OA
ENDBRANCH   9  15
ENDBRANCH   2   5
BRANCH   1  20
HETATM   20  C   UNL     1       5.993  27.832  56.922  1.00  0.00     0.150 A 
HETATM   21  C   UNL     1       5.149  28.886  56.595  1.00  0.00    -0.009 A 
HETATM   22  C   UNL     1       3.970  28.867  55.691  1.00  0.00     0.052 C 
HETATM   23  C   UNL     1       5.646  30.026  57.303  1.00  0.00     0.009 A 
HETATM   24  C   UNL     1       6.753  29.593  58.021  1.00  0.00     0.120 A 
HETATM   25  C   UNL     1       5.271  31.377  57.403  1.00  0.00     0.015 A 
HETATM   26  O   UNL     1       6.957  28.264  57.798  1.00  0.00    -0.301 OA
HETATM   27  C   UNL     1       7.539  30.409  58.845  1.00  0.00     0.102 A 
HETATM   28  C   UNL     1       7.138  31.751  58.926  1.00  0.00     0.040 A 
HETATM   29  C   UNL     1       6.027  32.227  58.219  1.00  0.00     0.004 A 
BRANCH  27  30
HETATM   30  O   UNL     1       8.603  29.847  59.491  1.00  0.00    -0.353 OA
HETATM   31  C   UNL     1       9.092  30.532  60.636  1.00  0.00     0.210 C 
ENDBRANCH  27  30
ENDBRANCH   1  20
TORSDOF 4
ENDMDL
MODEL 8
REMARK VINA RESULT:      -9.1      4.421      7.443
REMARK  4 active torsions:
REMARK  status: ('A' for Active; 'I' for Inactive)
REMARK    1  A    between atoms: C_3  and  C_4 
REMARK       I    between atoms: C_4  and  N_5 
REMARK    2  A    between atoms: N_5  and  C_6 
REMARK    3  A    between atoms: C_13  and  C_14 
REMARK       I    between atoms: C_14  and  N_15 
REMARK    4  A    between atoms: C_23  and  O_24 
ROOT
HETATM    1  C   UNL     1       8.027  31.784  59.648  1.00  0.00     0.280 C 
HETATM    2  N   UNL     1       7.148  31.493  60.677  1.00  0.00    -0.321 N 
HETATM    3  O   UNL     1       8.819  32.719  59.640  1.00  0.00    -0.265 OA
HETATM    4  H   UNL     1       6.590  30.658  60.525  1.00  0.00     0.169 HD
ENDROOT
BRANCH   2   5
HETATM    5  C   UNL     1       6.956  32.187  61.888  1.00  0.00     0.036 A 
HETATM    6  C   UNL     1       5.754  32.813  62.244  1.00  0.00     0.046 A 
HETATM    7  C   UNL     1       5.655  33.480  63.485  1.00  0.00     0.030 A 
HETATM    8  C   UNL     1       6.763  33.506  64.322  1.00  0.00     0.063 A 
HETATM    9  C   UNL     1       4.642  34.200  64.190  1.00  0.00     0.156 A 
HETATM   10  N   UNL     1       6.371  34.217  65.422  1.00  0.00    -0.277 N 
HETATM   11  C   UNL     1       7.975  32.894  64.001  1.00  0.00     0.034 A 
HETATM   12  H   UNL     1       6.926  34.439  66.240  1.00  0.00     0.189 HD
HETATM   13  N   UNL     1       5.099  34.650  65.381  1.00  0.00    -0.168 NA
HETATM   14  C   UNL     1       8.045  32.230  62.769  1.00  0.00     0.032 A 
BRANCH   9  15
HETATM   15  C   UNL     1       3.262  34.459  63.757  1.00  0.00     0.270 C 
HETATM   16  N   UNL     1       3.014  35.768  63.439  1.00  0.00    -0.365 N 
HETATM   17  H   UNL     1       3.767  36.440  63.529  1.00  0.00     0.159 HD
HETATM   18  H   UNL     1       2.091  36.042  63.145  1.00  0.00     0.159 HD
HETATM   19  O   UNL     1       2.381  33.611  63.679  1.00  0.00    -0.266 OA
ENDBRANCH   9  15
ENDBRANCH   2   5
BRANCH   1  20
HETATM   20  C   UNL     1       7.928  30.836  58.546  1.00  0.00     0.150 A 
HETATM   21  C   UNL     1       8.887  30.236  57.740  1.00  0.00    -0.009 A 
HETATM   22  C   UNL     1      10.363  30.400  57.798  1.00  0.00     0.052 C 
HETATM   23  C   UNL     1       8.169  29.416  56.814  1.00  0.00     0.009 A 
HETATM   24  C   UNL     1       6.822  29.560  57.119  1.00  0.00     0.120 A 
HETATM   25  C   UNL     1       8.527  28.570  55.749  1.00  0.00     0.015 A 
HETATM   26  O   UNL     1       6.677  30.413  58.172  1.00  0.00    -0.301 OA
HETATM   27  C   UNL     1       5.777  28.925  56.435  1.00  0.00     0.102 A 
HETATM   28  C   UNL     1       6.166  28.087  55.380  1.00  0.00     0.040 A 
HETATM   29  C   UNL     1       7.513  27.913  55.042  1.00  0.00     0.004 A 
BRANCH  27  30
HETATM   30  O   UNL     1       4.495  29.164  56.844  1.00  0.00    -0.353 OA
HETATM   31  C   UNL     1       3.784  30.186  56.160  1.00  0.00     0.210 C 
ENDBRANCH  27  30
ENDBRANCH   1  20
TORSDOF 4
ENDMDL
MODEL 9
REMARK VINA RESULT:      -9.1      3.327      9.604
REMARK  4 active torsions:
REMARK  status: ('A' for Active; 'I' for Inactive)
REMARK    1  A    between atoms: C_3  and  C_4 
REMARK       I    between atoms: C_4  and  N_5 
REMARK    2  A    between atoms: N_5  and  C_6 
REMARK    3  A    between atoms: C_13  and  C_14 
REMARK       I    between atoms: C_14  and  N_15 
REMARK    4  A    between atoms: C_23  and  O_24 
ROOT
HETATM    1  C   UNL     1       8.247  30.726  59.093  1.00  0.00     0.280 C 
HETATM    2  N   UNL     1       7.286  29.765  58.829  1.00  0.00    -0.321 N 
HETATM    3  O   UNL     1       9.204  30.982  58.372  1.00  0.00    -0.265 OA
HETATM    4  H   UNL     1       6.545  29.715  59.522  1.00  0.00     0.169 HD
ENDROOT
BRANCH   2   5
HETATM    5  C   UNL     1       7.203  28.887  57.731  1.00  0.00     0.036 A 
HETATM    6  C   UNL     1       7.665  27.564  57.755  1.00  0.00     0.046 A 
HETATM    7  C   UNL     1       7.532  26.756  56.604  1.00  0.00     0.030 A 
HETATM    8  C   UNL     1       6.951  27.301  55.466  1.00  0.00     0.063 A 
HETATM    9  C   UNL     1       7.854  25.411  56.246  1.00  0.00     0.156 A 
HETATM   10  N   UNL     1       6.969  26.301  54.535  1.00  0.00    -0.277 N 
HETATM   11  C   UNL     1       6.480  28.613  55.405  1.00  0.00     0.034 A 
HETATM   12  H   UNL     1       6.627  26.343  53.582  1.00  0.00     0.189 HD
HETATM   13  N   UNL     1       7.502  25.146  54.967  1.00  0.00    -0.168 NA
HETATM   14  C   UNL     1       6.614  29.391  56.564  1.00  0.00     0.032 A 
BRANCH   9  15
HETATM   15  C   UNL     1       8.477  24.384  57.093  1.00  0.00     0.270 C 
HETATM   16  N   UNL     1       8.338  23.108  56.616  1.00  0.00    -0.365 N 
HETATM   17  H   UNL     1       7.827  22.967  55.753  1.00  0.00     0.159 HD
HETATM   18  H   UNL     1       8.722  22.337  57.138  1.00  0.00     0.159 HD
HETATM   19  O   UNL     1       9.074  24.607  58.140  1.00  0.00    -0.266 OA
ENDBRANCH   9  15
ENDBRANCH   2   5
BRANCH   1  20
HETATM   20  C   UNL     1       7.999  31.434  60.342  1.00  0.00     0.150 A 
HETATM   21  C   UNL     1       8.558  31.320  61.608  1.00  0.00    -0.009 A 
HETATM   22  C   UNL     1       9.636  30.398  62.052  1.00  0.00     0.052 C 
HETATM   23  C   UNL     1       7.880  32.275  62.429  1.00  0.00     0.009 A 
HETATM   24  C   UNL     1       6.959  32.915  61.611  1.00  0.00     0.120 A 
HETATM   25  C   UNL     1       7.954  32.657  63.780  1.00  0.00     0.015 A 
HETATM   26  O   UNL     1       7.036  32.413  60.346  1.00  0.00    -0.301 OA
HETATM   27  C   UNL     1       6.080  33.922  62.033  1.00  0.00     0.102 A 
HETATM   28  C   UNL     1       6.179  34.282  63.385  1.00  0.00     0.040 A 
HETATM   29  C   UNL     1       7.096  33.663  64.243  1.00  0.00     0.004 A 
BRANCH  27  30
HETATM   30  O   UNL     1       5.223  34.462  61.116  1.00  0.00    -0.353 OA
HETATM   31  C   UNL     1       3.854  34.540  61.488  1.00  0.00     0.210 C 
ENDBRANCH  27  30
ENDBRANCH   1  20
TORSDOF 4
ENDMDL
MODEL 10
REMARK VINA RESULT:      -8.9      3.048      8.832
REMARK  4 active torsions:
REMARK  status: ('A' for Active; 'I' for Inactive)
REMARK    1  A    between atoms: C_3  and  C_4 
REMARK       I    between atoms: C_4  and  N_5 
REMARK    2  A    between atoms: N_5  and  C_6 
REMARK    3  A    between atoms: C_13  and  C_14 
REMARK       I    between atoms: C_14  and  N_15 
REMARK    4  A    between atoms: C_23  and  O_24 
ROOT
HETATM    1  C   UNL     1       5.735  26.664  56.435  1.00  0.00     0.280 C 
HETATM    2  N   UNL     1       6.718  26.407  55.495  1.00  0.00    -0.321 N 
HETATM    3  O   UNL     1       4.940  25.838  56.868  1.00  0.00    -0.265 OA
HETATM    4  H   UNL     1       7.308  27.205  55.281  1.00  0.00     0.169 HD
ENDROOT
BRANCH   2   5
HETATM    5  C   UNL     1       7.003  25.197  54.834  1.00  0.00     0.036 A 
HETATM    6  C   UNL     1       7.531  24.066  55.471  1.00  0.00     0.046 A 
HETATM    7  C   UNL     1       7.778  22.893  54.722  1.00  0.00     0.030 A 
HETATM    8  C   UNL     1       7.497  22.895  53.362  1.00  0.00     0.063 A 
HETATM    9  C   UNL     1       8.278  21.583  54.995  1.00  0.00     0.156 A 
HETATM   10  N   UNL     1       7.840  21.649  52.919  1.00  0.00    -0.277 N 
HETATM   11  C   UNL     1       6.971  24.001  52.694  1.00  0.00     0.034 A 
HETATM   12  H   UNL     1       7.773  21.293  51.973  1.00  0.00     0.189 HD
HETATM   13  N   UNL     1       8.313  20.829  53.873  1.00  0.00    -0.168 NA
HETATM   14  C   UNL     1       6.726  25.149  53.461  1.00  0.00     0.032 A 
BRANCH   9  15
HETATM   15  C   UNL     1       8.714  21.043  56.290  1.00  0.00     0.270 C 
HETATM   16  N   UNL     1       9.661  20.058  56.194  1.00  0.00    -0.365 N 
HETATM   17  H   UNL     1       9.976  19.778  55.273  1.00  0.00     0.159 HD
HETATM   18  H   UNL     1      10.009  19.619  57.030  1.00  0.00     0.159 HD
HETATM   19  O   UNL     1       8.289  21.408  57.381  1.00  0.00    -0.266 OA
ENDBRANCH   9  15
ENDBRANCH   2   5
BRANCH   1  20
HETATM   20  C   UNL     1       5.743  28.049  56.885  1.00  0.00     0.150 A 
HETATM   21  C   UNL     1       6.711  28.821  57.518  1.00  0.00    -0.009 A 
HETATM   22  C   UNL     1       8.084  28.418  57.916  1.00  0.00     0.052 C 
HETATM   23  C   UNL     1       6.119  30.106  57.726  1.00  0.00     0.009 A 
HETATM   24  C   UNL     1       4.835  30.040  57.201  1.00  0.00     0.120 A 
HETATM   25  C   UNL     1       6.542  31.314  58.308  1.00  0.00     0.015 A 
HETATM   26  O   UNL     1       4.611  28.798  56.685  1.00  0.00    -0.301 OA
HETATM   27  C   UNL     1       3.913  31.095  57.211  1.00  0.00     0.102 A 
HETATM   28  C   UNL     1       4.365  32.287  57.797  1.00  0.00     0.040 A 
HETATM   29  C   UNL     1       5.653  32.395  58.336  1.00  0.00     0.004 A 
BRANCH  27  30
HETATM   30  O   UNL     1       2.681  30.885  56.660  1.00  0.00    -0.353 OA
HETATM   31  C   UNL     1       2.365  31.634  55.494  1.00  0.00     0.210 C 
ENDBRANCH  27  30
ENDBRANCH   1  20
TORSDOF 4
ENDMDL
