MODEL 1
REMARK VINA RESULT:      -8.9      0.000      0.000
REMARK  11 active torsions:
REMARK  status: ('A' for Active; 'I' for Inactive)
REMARK    1  A    between atoms: N_2  and  C_4 
REMARK    2  A    between atoms: C_4  and  C_5 
REMARK    3  A    between atoms: C_5  and  C_6 
REMARK    4  A    between atoms: C_6  and  N_7 
REMARK    5  A    between atoms: N_7  and  C_8 
REMARK    6  A    between atoms: N_7  and  C_21 
REMARK    7  A    between atoms: C_8  and  N_9 
REMARK    8  A    between atoms: N_9  and  C_10 
REMARK    9  A    between atoms: C_11  and  C_12 
REMARK   10  A    between atoms: C_12  and  O_13 
REMARK   11  A    between atoms: C_21  and  C_22 
ROOT
HETATM    1  N   UNL     1       5.415  28.593  55.756  1.00  0.00    -0.354 N 
ENDROOT
BRANCH   1   2
HETATM    2  C   UNL     1       4.844  28.427  54.404  1.00  0.00     0.127 C 
BRANCH   2   3
HETATM    3  C   UNL     1       5.858  28.250  53.263  1.00  0.00     0.047 C 
BRANCH   3   4
HETATM    4  C   UNL     1       5.242  28.416  51.877  1.00  0.00     0.235 C 
BRANCH   4   5
HETATM    5  N   UNL     1       4.777  27.067  51.346  1.00  0.00    -0.079 N 
HETATM    6  C   UNL     1       5.727  25.942  51.643  1.00  0.00     0.269 C 
HETATM    7  H   UNL     1       3.886  26.851  51.813  1.00  0.00     0.278 HD
HETATM    8  C   UNL     1       4.456  27.139  49.876  1.00  0.00     0.269 C 
ENDBRANCH   4   5
ENDBRANCH   3   4
ENDBRANCH   2   3
ENDBRANCH   1   2
BRANCH   1   9
HETATM    9  C   UNL     1       5.793  29.842  56.322  1.00  0.00     0.174 C 
HETATM   10  S   UNL     1       5.101  31.281  55.813  1.00  0.00    -0.041 SA
BRANCH   9  11
HETATM   11  N   UNL     1       6.779  29.690  57.287  1.00  0.00    -0.332 N 
HETATM   12  H   UNL     1       6.494  29.048  58.027  1.00  0.00     0.168 HD
BRANCH  11  13
HETATM   13  C   UNL     1       8.190  29.883  57.274  1.00  0.00     0.050 A 
HETATM   14  C   UNL     1       8.778  30.685  58.289  1.00  0.00     0.066 A 
HETATM   15  C   UNL     1      10.170  30.880  58.322  1.00  0.00     0.020 A 
HETATM   16  C   UNL     1      10.983  30.298  57.353  1.00  0.00     0.001 A 
HETATM   17  C   UNL     1      10.410  29.539  56.338  1.00  0.00     0.002 A 
HETATM   18  C   UNL     1       9.026  29.341  56.294  1.00  0.00     0.030 A 
BRANCH  14  19
HETATM   19  C   UNL     1       7.924  31.322  59.334  1.00  0.00     0.295 C 
HETATM   20  O   UNL     1       7.993  31.011  60.517  1.00  0.00    -0.259 OA
BRANCH  19  21
HETATM   21  O   UNL     1       7.140  32.290  58.810  1.00  0.00    -0.322 OA
HETATM   22  C   UNL     1       5.919  32.528  59.520  1.00  0.00     0.213 C 
ENDBRANCH  19  21
ENDBRANCH  14  19
ENDBRANCH  11  13
ENDBRANCH   9  11
ENDBRANCH   1   9
BRANCH   1  23
HETATM   23  C   UNL     1       5.190  27.435  56.672  1.00  0.00     0.169 C 
BRANCH  23  24
HETATM   24  C   UNL     1       6.114  26.268  56.397  1.00  0.00     0.029 A 
HETATM   25  C   UNL     1       7.174  26.075  57.442  1.00  0.00     0.253 A 
HETATM   26  O   UNL     1       7.289  26.864  58.375  1.00  0.00    -0.268 OA
HETATM   27  N   UNL     1       8.008  24.995  57.308  1.00  0.00    -0.322 N 
HETATM   28  C   UNL     1       7.929  24.073  56.257  1.00  0.00     0.048 A 
HETATM   29  H   UNL     1       8.704  24.878  58.034  1.00  0.00     0.169 HD
HETATM   30  C   UNL     1       6.964  24.265  55.264  1.00  0.00    -0.006 A 
HETATM   31  C   UNL     1       8.788  22.976  56.208  1.00  0.00     0.070 A 
HETATM   32  C   UNL     1       6.852  23.351  54.213  1.00  0.00     0.053 A 
HETATM   33  C   UNL     1       6.063  25.409  55.363  1.00  0.00     0.028 A 
HETATM   34  C   UNL     1       7.710  22.256  54.157  1.00  0.00     0.103 A 
HETATM   35  C   UNL     1       8.660  22.057  55.164  1.00  0.00     0.104 A 
HETATM   36  O   UNL     1       7.545  21.409  53.092  1.00  0.00    -0.346 OA
HETATM   37  O   UNL     1       9.503  20.974  55.187  1.00  0.00    -0.346 OA
HETATM   38  C   UNL     1       9.036  19.933  54.320  1.00  0.00     0.202 C 
HETATM   39  C   UNL     1       8.645  20.500  52.965  1.00  0.00     0.202 C 
ENDBRANCH  23  24
ENDBRANCH   1  23
TORSDOF 11
ENDMDL
MODEL 2
REMARK VINA RESULT:      -8.7      2.275      3.554
REMARK  11 active torsions:
REMARK  status: ('A' for Active; 'I' for Inactive)
REMARK    1  A    between atoms: N_2  and  C_4 
REMARK    2  A    between atoms: C_4  and  C_5 
REMARK    3  A    between atoms: C_5  and  C_6 
REMARK    4  A    between atoms: C_6  and  N_7 
REMARK    5  A    between atoms: N_7  and  C_8 
REMARK    6  A    between atoms: N_7  and  C_21 
REMARK    7  A    between atoms: C_8  and  N_9 
REMARK    8  A    between atoms: N_9  and  C_10 
REMARK    9  A    between atoms: C_11  and  C_12 
REMARK   10  A    between atoms: C_12  and  O_13 
REMARK   11  A    between atoms: C_21  and  C_22 
ROOT
HETATM    1  N   UNL     1       7.224  29.335  56.959  1.00  0.00    -0.354 N 
ENDROOT
BRANCH   1   2
HETATM    2  C   UNL     1       5.880  28.793  57.243  1.00  0.00     0.127 C 
BRANCH   2   3
HETATM    3  C   UNL     1       4.711  29.487  56.528  1.00  0.00     0.047 C 
BRANCH   3   4
HETATM    4  C   UNL     1       4.031  28.605  55.485  1.00  0.00     0.235 C 
BRANCH   4   5
HETATM    5  N   UNL     1       4.102  29.265  54.115  1.00  0.00    -0.079 N 
HETATM    6  C   UNL     1       3.579  30.674  54.097  1.00  0.00     0.269 C 
HETATM    7  H   UNL     1       5.095  29.301  53.849  1.00  0.00     0.278 HD
HETATM    8  C   UNL     1       3.431  28.419  53.064  1.00  0.00     0.269 C 
ENDBRANCH   4   5
ENDBRANCH   3   4
ENDBRANCH   2   3
ENDBRANCH   1   2
BRANCH   1   9
HETATM    9  C   UNL     1       8.133  29.794  57.953  1.00  0.00     0.174 C 
HETATM   10  S   UNL     1       9.773  29.940  57.642  1.00  0.00    -0.041 SA
BRANCH   9  11
HETATM   11  N   UNL     1       7.488  30.064  59.152  1.00  0.00    -0.332 N 
HETATM   12  H   UNL     1       6.851  29.314  59.420  1.00  0.00     0.168 HD
BRANCH  11  13
HETATM   13  C   UNL     1       7.802  30.907  60.256  1.00  0.00     0.050 A 
HETATM   14  C   UNL     1       7.036  32.088  60.452  1.00  0.00     0.066 A 
HETATM   15  C   UNL     1       7.301  32.933  61.543  1.00  0.00     0.020 A 
HETATM   16  C   UNL     1       8.324  32.626  62.435  1.00  0.00     0.001 A 
HETATM   17  C   UNL     1       9.098  31.489  62.233  1.00  0.00     0.002 A 
HETATM   18  C   UNL     1       8.845  30.642  61.148  1.00  0.00     0.030 A 
BRANCH  14  19
HETATM   19  C   UNL     1       5.939  32.439  59.503  1.00  0.00     0.295 C 
HETATM   20  O   UNL     1       6.136  32.601  58.304  1.00  0.00    -0.259 OA
BRANCH  19  21
HETATM   21  O   UNL     1       4.742  32.494  60.127  1.00  0.00    -0.322 OA
HETATM   22  C   UNL     1       3.683  31.791  59.469  1.00  0.00     0.213 C 
ENDBRANCH  19  21
ENDBRANCH  14  19
ENDBRANCH  11  13
ENDBRANCH   9  11
ENDBRANCH   1   9
BRANCH   1  23
HETATM   23  C   UNL     1       7.761  28.993  55.608  1.00  0.00     0.169 C 
BRANCH  23  24
HETATM   24  C   UNL     1       7.625  27.525  55.266  1.00  0.00     0.029 A 
HETATM   25  C   UNL     1       7.149  27.270  53.866  1.00  0.00     0.253 A 
HETATM   26  O   UNL     1       6.836  28.200  53.129  1.00  0.00    -0.268 OA
HETATM   27  N   UNL     1       7.069  25.966  53.450  1.00  0.00    -0.322 N 
HETATM   28  C   UNL     1       7.400  24.869  54.254  1.00  0.00     0.048 A 
HETATM   29  H   UNL     1       6.760  25.822  52.497  1.00  0.00     0.169 HD
HETATM   30  C   UNL     1       7.815  25.098  55.569  1.00  0.00    -0.006 A 
HETATM   31  C   UNL     1       7.330  23.570  53.749  1.00  0.00     0.070 A 
HETATM   32  C   UNL     1       8.167  24.022  56.388  1.00  0.00     0.053 A 
HETATM   33  C   UNL     1       7.902  26.471  56.055  1.00  0.00     0.028 A 
HETATM   34  C   UNL     1       8.096  22.724  55.890  1.00  0.00     0.103 A 
HETATM   35  C   UNL     1       7.700  22.500  54.566  1.00  0.00     0.104 A 
HETATM   36  O   UNL     1       8.449  21.720  56.755  1.00  0.00    -0.346 OA
HETATM   37  O   UNL     1       7.653  21.249  54.006  1.00  0.00    -0.346 OA
HETATM   38  C   UNL     1       8.401  20.303  54.780  1.00  0.00     0.202 C 
HETATM   39  C   UNL     1       8.064  20.433  56.256  1.00  0.00     0.202 C 
ENDBRANCH  23  24
ENDBRANCH   1  23
TORSDOF 11
ENDMDL
MODEL 3
REMARK VINA RESULT:      -8.7      1.743      2.918
REMARK  11 active torsions:
REMARK  status: ('A' for Active; 'I' for Inactive)
REMARK    1  A    between atoms: N_2  and  C_4 
REMARK    2  A    between atoms: C_4  and  C_5 
REMARK    3  A    between atoms: C_5  and  C_6 
REMARK    4  A    between atoms: C_6  and  N_7 
REMARK    5  A    between atoms: N_7  and  C_8 
REMARK    6  A    between atoms: N_7  and  C_21 
REMARK    7  A    between atoms: C_8  and  N_9 
REMARK    8  A    between atoms: N_9  and  C_10 
REMARK    9  A    between atoms: C_11  and  C_12 
REMARK   10  A    between atoms: C_12  and  O_13 
REMARK   11  A    between atoms: C_21  and  C_22 
ROOT
HETATM    1  N   UNL     1       5.883  29.638  56.742  1.00  0.00    -0.354 N 
ENDROOT
BRANCH   1   2
HETATM    2  C   UNL     1       4.838  28.618  56.522  1.00  0.00     0.127 C 
BRANCH   2   3
HETATM    3  C   UNL     1       3.845  28.908  55.386  1.00  0.00     0.047 C 
BRANCH   3   4
HETATM    4  C   UNL     1       4.267  28.309  54.048  1.00  0.00     0.235 C 
BRANCH   4   5
HETATM    5  N   UNL     1       4.988  29.357  53.210  1.00  0.00    -0.079 N 
HETATM    6  C   UNL     1       4.128  30.536  52.849  1.00  0.00     0.269 C 
HETATM    7  H   UNL     1       5.772  29.708  53.777  1.00  0.00     0.278 HD
HETATM    8  C   UNL     1       5.616  28.742  51.986  1.00  0.00     0.269 C 
ENDBRANCH   4   5
ENDBRANCH   3   4
ENDBRANCH   2   3
ENDBRANCH   1   2
BRANCH   1   9
HETATM    9  C   UNL     1       5.826  30.645  57.747  1.00  0.00     0.174 C 
HETATM   10  S   UNL     1       4.370  31.316  58.233  1.00  0.00    -0.041 SA
BRANCH   9  11
HETATM   11  N   UNL     1       7.091  30.974  58.214  1.00  0.00    -0.332 N 
HETATM   12  H   UNL     1       7.698  31.310  57.467  1.00  0.00     0.168 HD
BRANCH  11  13
HETATM   13  C   UNL     1       7.588  31.334  59.499  1.00  0.00     0.050 A 
HETATM   14  C   UNL     1       8.989  31.507  59.665  1.00  0.00     0.066 A 
HETATM   15  C   UNL     1       9.515  31.884  60.912  1.00  0.00     0.020 A 
HETATM   16  C   UNL     1       8.669  32.080  62.000  1.00  0.00     0.001 A 
HETATM   17  C   UNL     1       7.300  31.882  61.853  1.00  0.00     0.002 A 
HETATM   18  C   UNL     1       6.766  31.504  60.617  1.00  0.00     0.030 A 
BRANCH  14  19
HETATM   19  C   UNL     1       9.915  31.295  58.513  1.00  0.00     0.295 C 
HETATM   20  O   UNL     1      10.503  32.220  57.967  1.00  0.00    -0.259 OA
BRANCH  19  21
HETATM   21  O   UNL     1      10.042  29.984  58.214  1.00  0.00    -0.322 OA
HETATM   22  C   UNL     1      10.843  29.701  57.062  1.00  0.00     0.213 C 
ENDBRANCH  19  21
ENDBRANCH  14  19
ENDBRANCH  11  13
ENDBRANCH   9  11
ENDBRANCH   1   9
BRANCH   1  23
HETATM   23  C   UNL     1       7.209  29.312  56.136  1.00  0.00     0.169 C 
BRANCH  23  24
HETATM   24  C   UNL     1       7.496  27.827  56.092  1.00  0.00     0.029 A 
HETATM   25  C   UNL     1       7.820  27.233  57.432  1.00  0.00     0.253 A 
HETATM   26  O   UNL     1       7.907  27.941  58.430  1.00  0.00    -0.268 OA
HETATM   27  N   UNL     1       8.021  25.878  57.493  1.00  0.00    -0.322 N 
HETATM   28  C   UNL     1       7.947  25.026  56.384  1.00  0.00     0.048 A 
HETATM   29  H   UNL     1       8.222  25.499  58.411  1.00  0.00     0.169 HD
HETATM   30  C   UNL     1       7.675  25.578  55.129  1.00  0.00    -0.006 A 
HETATM   31  C   UNL     1       8.126  23.651  56.531  1.00  0.00     0.070 A 
HETATM   32  C   UNL     1       7.580  24.749  54.008  1.00  0.00     0.053 A 
HETATM   33  C   UNL     1       7.467  27.018  55.018  1.00  0.00     0.028 A 
HETATM   34  C   UNL     1       7.761  23.376  54.147  1.00  0.00     0.103 A 
HETATM   35  C   UNL     1       8.011  22.826  55.409  1.00  0.00     0.104 A 
HETATM   36  O   UNL     1       7.660  22.630  53.002  1.00  0.00    -0.346 OA
HETATM   37  O   UNL     1       8.155  21.478  55.617  1.00  0.00    -0.346 OA
HETATM   38  C   UNL     1       7.646  20.723  54.510  1.00  0.00     0.202 C 
HETATM   39  C   UNL     1       8.148  21.296  53.195  1.00  0.00     0.202 C 
ENDBRANCH  23  24
ENDBRANCH   1  23
TORSDOF 11
ENDMDL
MODEL 4
REMARK VINA RESULT:      -8.5      2.174      7.699
REMARK  11 active torsions:
REMARK  status: ('A' for Active; 'I' for Inactive)
REMARK    1  A    between atoms: N_2  and  C_4 
REMARK    2  A    between atoms: C_4  and  C_5 
REMARK    3  A    between atoms: C_5  and  C_6 
REMARK    4  A    between atoms: C_6  and  N_7 
REMARK    5  A    between atoms: N_7  and  C_8 
REMARK    6  A    between atoms: N_7  and  C_21 
REMARK    7  A    between atoms: C_8  and  N_9 
REMARK    8  A    between atoms: N_9  and  C_10 
REMARK    9  A    between atoms: C_11  and  C_12 
REMARK   10  A    between atoms: C_12  and  O_13 
REMARK   11  A    between atoms: C_21  and  C_22 
ROOT
HETATM    1  N   UNL     1       6.290  25.959  53.614  1.00  0.00    -0.354 N 
ENDROOT
BRANCH   1   2
HETATM    2  C   UNL     1       5.513  25.540  52.430  1.00  0.00     0.127 C 
BRANCH   2   3
HETATM    3  C   UNL     1       5.743  26.360  51.151  1.00  0.00     0.047 C 
BRANCH   3   4
HETATM    4  C   UNL     1       4.674  26.129  50.086  1.00  0.00     0.235 C 
BRANCH   4   5
HETATM    5  N   UNL     1       4.517  27.376  49.226  1.00  0.00    -0.079 N 
HETATM    6  C   UNL     1       4.777  27.138  47.765  1.00  0.00     0.269 C 
HETATM    7  H   UNL     1       3.539  27.685  49.319  1.00  0.00     0.278 HD
HETATM    8  C   UNL     1       5.353  28.513  49.752  1.00  0.00     0.269 C 
ENDBRANCH   4   5
ENDBRANCH   3   4
ENDBRANCH   2   3
ENDBRANCH   1   2
BRANCH   1   9
HETATM    9  C   UNL     1       6.567  25.122  54.732  1.00  0.00     0.174 C 
HETATM   10  S   UNL     1       5.597  25.135  56.098  1.00  0.00    -0.041 SA
BRANCH   9  11
HETATM   11  N   UNL     1       7.709  24.359  54.530  1.00  0.00    -0.332 N 
HETATM   12  H   UNL     1       8.531  24.782  54.959  1.00  0.00     0.168 HD
BRANCH  11  13
HETATM   13  C   UNL     1       7.916  22.980  54.239  1.00  0.00     0.050 A 
HETATM   14  C   UNL     1       8.318  22.114  55.291  1.00  0.00     0.066 A 
HETATM   15  C   UNL     1       8.510  20.743  55.047  1.00  0.00     0.020 A 
HETATM   16  C   UNL     1       8.319  20.224  53.770  1.00  0.00     0.001 A 
HETATM   17  C   UNL     1       7.956  21.072  52.729  1.00  0.00     0.002 A 
HETATM   18  C   UNL     1       7.765  22.438  52.959  1.00  0.00     0.030 A 
BRANCH  14  19
HETATM   19  C   UNL     1       8.535  22.651  56.666  1.00  0.00     0.295 C 
HETATM   20  O   UNL     1       8.151  22.060  57.669  1.00  0.00    -0.259 OA
BRANCH  19  21
HETATM   21  O   UNL     1       9.235  23.806  56.643  1.00  0.00    -0.322 OA
HETATM   22  C   UNL     1       9.014  24.670  57.763  1.00  0.00     0.213 C 
ENDBRANCH  19  21
ENDBRANCH  14  19
ENDBRANCH  11  13
ENDBRANCH   9  11
ENDBRANCH   1   9
BRANCH   1  23
HETATM   23  C   UNL     1       7.135  27.172  53.406  1.00  0.00     0.169 C 
BRANCH  23  24
HETATM   24  C   UNL     1       7.063  28.154  54.556  1.00  0.00     0.029 A 
HETATM   25  C   UNL     1       5.865  29.056  54.508  1.00  0.00     0.253 A 
HETATM   26  O   UNL     1       5.085  29.016  53.562  1.00  0.00    -0.268 OA
HETATM   27  N   UNL     1       5.684  29.927  55.551  1.00  0.00    -0.322 N 
HETATM   28  C   UNL     1       6.550  30.023  56.647  1.00  0.00     0.048 A 
HETATM   29  H   UNL     1       4.860  30.513  55.503  1.00  0.00     0.169 HD
HETATM   30  C   UNL     1       7.684  29.206  56.683  1.00  0.00    -0.006 A 
HETATM   31  C   UNL     1       6.280  30.907  57.692  1.00  0.00     0.070 A 
HETATM   32  C   UNL     1       8.556  29.270  57.773  1.00  0.00     0.053 A 
HETATM   33  C   UNL     1       7.920  28.273  55.586  1.00  0.00     0.028 A 
HETATM   34  C   UNL     1       8.293  30.153  58.816  1.00  0.00     0.103 A 
HETATM   35  C   UNL     1       7.146  30.953  58.786  1.00  0.00     0.104 A 
HETATM   36  O   UNL     1       9.199  30.164  59.846  1.00  0.00    -0.346 OA
HETATM   37  O   UNL     1       6.810  31.809  59.804  1.00  0.00    -0.346 OA
HETATM   38  C   UNL     1       7.529  31.498  61.005  1.00  0.00     0.202 C 
HETATM   39  C   UNL     1       9.005  31.293  60.707  1.00  0.00     0.202 C 
ENDBRANCH  23  24
ENDBRANCH   1  23
TORSDOF 11
ENDMDL
MODEL 5
REMARK VINA RESULT:      -8.4      2.676      5.986
REMARK  11 active torsions:
REMARK  status: ('A' for Active; 'I' for Inactive)
REMARK    1  A    between atoms: N_2  and  C_4 
REMARK    2  A    between atoms: C_4  and  C_5 
REMARK    3  A    between atoms: C_5  and  C_6 
REMARK    4  A    between atoms: C_6  and  N_7 
REMARK    5  A    between atoms: N_7  and  C_8 
REMARK    6  A    between atoms: N_7  and  C_21 
REMARK    7  A    between atoms: C_8  and  N_9 
REMARK    8  A    between atoms: N_9  and  C_10 
REMARK    9  A    between atoms: C_11  and  C_12 
REMARK   10  A    between atoms: C_12  and  O_13 
REMARK   11  A    between atoms: C_21  and  C_22 
ROOT
HETATM    1  N   UNL     1       5.584  28.963  55.398  1.00  0.00    -0.354 N 
ENDROOT
BRANCH   1   2
HETATM    2  C   UNL     1       4.917  29.021  56.714  1.00  0.00     0.127 C 
BRANCH   2   3
HETATM    3  C   UNL     1       5.384  30.141  57.656  1.00  0.00     0.047 C 
BRANCH   3   4
HETATM    4  C   UNL     1       4.255  31.066  58.101  1.00  0.00     0.235 C 
BRANCH   4   5
HETATM    5  N   UNL     1       4.503  31.545  59.524  1.00  0.00    -0.079 N 
HETATM    6  C   UNL     1       3.310  32.208  60.154  1.00  0.00     0.269 C 
HETATM    7  H   UNL     1       4.727  30.714  60.088  1.00  0.00     0.278 HD
HETATM    8  C   UNL     1       5.723  32.427  59.601  1.00  0.00     0.269 C 
ENDBRANCH   4   5
ENDBRANCH   3   4
ENDBRANCH   2   3
ENDBRANCH   1   2
BRANCH   1   9
HETATM    9  C   UNL     1       5.009  29.432  54.183  1.00  0.00     0.174 C 
HETATM   10  S   UNL     1       3.619  30.367  54.174  1.00  0.00    -0.041 SA
BRANCH   9  11
HETATM   11  N   UNL     1       5.727  29.000  53.076  1.00  0.00    -0.332 N 
HETATM   12  H   UNL     1       6.733  29.108  53.208  1.00  0.00     0.168 HD
BRANCH  11  13
HETATM   13  C   UNL     1       5.428  28.098  52.016  1.00  0.00     0.050 A 
HETATM   14  C   UNL     1       5.089  28.629  50.742  1.00  0.00     0.066 A 
HETATM   15  C   UNL     1       4.810  27.770  49.666  1.00  0.00     0.020 A 
HETATM   16  C   UNL     1       4.854  26.390  49.841  1.00  0.00     0.001 A 
HETATM   17  C   UNL     1       5.155  25.862  51.092  1.00  0.00     0.002 A 
HETATM   18  C   UNL     1       5.430  26.708  52.171  1.00  0.00     0.030 A 
BRANCH  14  19
HETATM   19  C   UNL     1       5.031  30.106  50.535  1.00  0.00     0.295 C 
HETATM   20  O   UNL     1       4.002  30.751  50.700  1.00  0.00    -0.259 OA
BRANCH  19  21
HETATM   21  O   UNL     1       6.242  30.609  50.207  1.00  0.00    -0.322 OA
HETATM   22  C   UNL     1       6.207  31.822  49.449  1.00  0.00     0.213 C 
ENDBRANCH  19  21
ENDBRANCH  14  19
ENDBRANCH  11  13
ENDBRANCH   9  11
ENDBRANCH   1   9
BRANCH   1  23
HETATM   23  C   UNL     1       7.064  28.774  55.458  1.00  0.00     0.169 C 
BRANCH  23  24
HETATM   24  C   UNL     1       7.472  27.344  55.739  1.00  0.00     0.029 A 
HETATM   25  C   UNL     1       8.034  27.133  57.114  1.00  0.00     0.253 A 
HETATM   26  O   UNL     1       8.200  28.079  57.878  1.00  0.00    -0.268 OA
HETATM   27  N   UNL     1       8.360  25.852  57.477  1.00  0.00    -0.322 N 
HETATM   28  C   UNL     1       8.204  24.740  56.641  1.00  0.00     0.048 A 
HETATM   29  H   UNL     1       8.723  25.734  58.415  1.00  0.00     0.169 HD
HETATM   30  C   UNL     1       7.709  24.933  55.349  1.00  0.00    -0.006 A 
HETATM   31  C   UNL     1       8.522  23.460  57.094  1.00  0.00     0.070 A 
HETATM   32  C   UNL     1       7.528  23.839  54.499  1.00  0.00     0.053 A 
HETATM   33  C   UNL     1       7.360  26.284  54.918  1.00  0.00     0.028 A 
HETATM   34  C   UNL     1       7.847  22.560  54.944  1.00  0.00     0.103 A 
HETATM   35  C   UNL     1       8.322  22.368  56.246  1.00  0.00     0.104 A 
HETATM   36  O   UNL     1       7.649  21.538  54.051  1.00  0.00    -0.346 OA
HETATM   37  O   UNL     1       8.612  21.128  56.757  1.00  0.00    -0.346 OA
HETATM   38  C   UNL     1       8.019  20.089  55.968  1.00  0.00     0.202 C 
HETATM   39  C   UNL     1       8.276  20.326  54.489  1.00  0.00     0.202 C 
ENDBRANCH  23  24
ENDBRANCH   1  23
TORSDOF 11
ENDMDL
MODEL 6
REMARK VINA RESULT:      -8.3      2.519      3.636
REMARK  11 active torsions:
REMARK  status: ('A' for Active; 'I' for Inactive)
REMARK    1  A    between atoms: N_2  and  C_4 
REMARK    2  A    between atoms: C_4  and  C_5 
REMARK    3  A    between atoms: C_5  and  C_6 
REMARK    4  A    between atoms: C_6  and  N_7 
REMARK    5  A    between atoms: N_7  and  C_8 
REMARK    6  A    between atoms: N_7  and  C_21 
REMARK    7  A    between atoms: C_8  and  N_9 
REMARK    8  A    between atoms: N_9  and  C_10 
REMARK    9  A    between atoms: C_11  and  C_12 
REMARK   10  A    between atoms: C_12  and  O_13 
REMARK   11  A    between atoms: C_21  and  C_22 
ROOT
HETATM    1  N   UNL     1       5.094  30.479  56.643  1.00  0.00    -0.354 N 
ENDROOT
BRANCH   1   2
HETATM    2  C   UNL     1       5.167  31.355  55.456  1.00  0.00     0.127 C 
BRANCH   2   3
HETATM    3  C   UNL     1       3.913  32.190  55.159  1.00  0.00     0.047 C 
BRANCH   3   4
HETATM    4  C   UNL     1       3.440  32.076  53.713  1.00  0.00     0.235 C 
BRANCH   4   5
HETATM    5  N   UNL     1       1.948  32.367  53.626  1.00  0.00    -0.079 N 
HETATM    6  C   UNL     1       1.586  33.349  52.548  1.00  0.00     0.269 C 
HETATM    7  H   UNL     1       1.480  31.478  53.403  1.00  0.00     0.278 HD
HETATM    8  C   UNL     1       1.395  32.791  54.962  1.00  0.00     0.269 C 
ENDBRANCH   4   5
ENDBRANCH   3   4
ENDBRANCH   2   3
ENDBRANCH   1   2
BRANCH   1   9
HETATM    9  C   UNL     1       5.610  30.817  57.926  1.00  0.00     0.174 C 
HETATM   10  S   UNL     1       4.883  31.984  58.883  1.00  0.00    -0.041 SA
BRANCH   9  11
HETATM   11  N   UNL     1       6.751  30.087  58.228  1.00  0.00    -0.332 N 
HETATM   12  H   UNL     1       6.537  29.252  58.773  1.00  0.00     0.168 HD
BRANCH  11  13
HETATM   13  C   UNL     1       8.041  30.008  57.630  1.00  0.00     0.050 A 
HETATM   14  C   UNL     1       9.130  30.659  58.270  1.00  0.00     0.066 A 
HETATM   15  C   UNL     1      10.422  30.584  57.722  1.00  0.00     0.020 A 
HETATM   16  C   UNL     1      10.644  29.882  56.540  1.00  0.00     0.001 A 
HETATM   17  C   UNL     1       9.577  29.270  55.892  1.00  0.00     0.002 A 
HETATM   18  C   UNL     1       8.286  29.340  56.427  1.00  0.00     0.030 A 
BRANCH  14  19
HETATM   19  C   UNL     1       8.914  31.422  59.534  1.00  0.00     0.295 C 
HETATM   20  O   UNL     1       9.020  32.641  59.590  1.00  0.00    -0.259 OA
BRANCH  19  21
HETATM   21  O   UNL     1       8.545  30.608  60.547  1.00  0.00    -0.322 OA
HETATM   22  C   UNL     1       8.753  31.143  61.859  1.00  0.00     0.213 C 
ENDBRANCH  19  21
ENDBRANCH  14  19
ENDBRANCH  11  13
ENDBRANCH   9  11
ENDBRANCH   1   9
BRANCH   1  23
HETATM   23  C   UNL     1       4.079  29.388  56.550  1.00  0.00     0.169 C 
BRANCH  23  24
HETATM   24  C   UNL     1       4.657  28.074  56.071  1.00  0.00     0.029 A 
HETATM   25  C   UNL     1       4.377  27.779  54.627  1.00  0.00     0.253 A 
HETATM   26  O   UNL     1       3.673  28.528  53.957  1.00  0.00    -0.268 OA
HETATM   27  N   UNL     1       4.928  26.643  54.093  1.00  0.00    -0.322 N 
HETATM   28  C   UNL     1       5.727  25.748  54.815  1.00  0.00     0.048 A 
HETATM   29  H   UNL     1       4.738  26.475  53.112  1.00  0.00     0.169 HD
HETATM   30  C   UNL     1       5.966  26.002  56.169  1.00  0.00    -0.006 A 
HETATM   31  C   UNL     1       6.285  24.632  54.194  1.00  0.00     0.070 A 
HETATM   32  C   UNL     1       6.772  25.134  56.910  1.00  0.00     0.053 A 
HETATM   33  C   UNL     1       5.388  27.195  56.779  1.00  0.00     0.028 A 
HETATM   34  C   UNL     1       7.330  24.016  56.295  1.00  0.00     0.103 A 
HETATM   35  C   UNL     1       7.105  23.778  54.935  1.00  0.00     0.104 A 
HETATM   36  O   UNL     1       8.102  23.208  57.089  1.00  0.00    -0.346 OA
HETATM   37  O   UNL     1       7.662  22.719  54.264  1.00  0.00    -0.346 OA
HETATM   38  C   UNL     1       8.757  22.156  54.997  1.00  0.00     0.202 C 
HETATM   39  C   UNL     1       8.378  21.953  56.454  1.00  0.00     0.202 C 
ENDBRANCH  23  24
ENDBRANCH   1  23
TORSDOF 11
ENDMDL
MODEL 7
REMARK VINA RESULT:      -8.2      1.467      2.030
REMARK  11 active torsions:
REMARK  status: ('A' for Active; 'I' for Inactive)
REMARK    1  A    between atoms: N_2  and  C_4 
REMARK    2  A    between atoms: C_4  and  C_5 
REMARK    3  A    between atoms: C_5  and  C_6 
REMARK    4  A    between atoms: C_6  and  N_7 
REMARK    5  A    between atoms: N_7  and  C_8 
REMARK    6  A    between atoms: N_7  and  C_21 
REMARK    7  A    between atoms: C_8  and  N_9 
REMARK    8  A    between atoms: N_9  and  C_10 
REMARK    9  A    between atoms: C_11  and  C_12 
REMARK   10  A    between atoms: C_12  and  O_13 
REMARK   11  A    between atoms: C_21  and  C_22 
ROOT
HETATM    1  N   UNL     1       6.157  28.810  56.001  1.00  0.00    -0.354 N 
ENDROOT
BRANCH   1   2
HETATM    2  C   UNL     1       5.219  29.335  54.989  1.00  0.00     0.127 C 
BRANCH   2   3
HETATM    3  C   UNL     1       4.661  28.308  53.992  1.00  0.00     0.047 C 
BRANCH   3   4
HETATM    4  C   UNL     1       5.111  28.557  52.555  1.00  0.00     0.235 C 
BRANCH   4   5
HETATM    5  N   UNL     1       4.160  27.873  51.584  1.00  0.00    -0.079 N 
HETATM    6  C   UNL     1       4.856  27.057  50.531  1.00  0.00     0.269 C 
HETATM    7  H   UNL     1       3.575  27.230  52.136  1.00  0.00     0.278 HD
HETATM    8  C   UNL     1       3.203  28.861  50.967  1.00  0.00     0.269 C 
ENDBRANCH   4   5
ENDBRANCH   3   4
ENDBRANCH   2   3
ENDBRANCH   1   2
BRANCH   1   9
HETATM    9  C   UNL     1       7.249  29.543  56.544  1.00  0.00     0.174 C 
HETATM   10  S   UNL     1       8.815  29.323  55.991  1.00  0.00    -0.041 SA
BRANCH   9  11
HETATM   11  N   UNL     1       6.838  30.400  57.556  1.00  0.00    -0.332 N 
HETATM   12  H   UNL     1       5.823  30.487  57.594  1.00  0.00     0.168 HD
BRANCH  11  13
HETATM   13  C   UNL     1       7.450  30.841  58.764  1.00  0.00     0.050 A 
HETATM   14  C   UNL     1       6.841  31.900  59.491  1.00  0.00     0.066 A 
HETATM   15  C   UNL     1       7.403  32.347  60.699  1.00  0.00     0.020 A 
HETATM   16  C   UNL     1       8.568  31.763  61.188  1.00  0.00     0.001 A 
HETATM   17  C   UNL     1       9.187  30.748  60.467  1.00  0.00     0.002 A 
HETATM   18  C   UNL     1       8.638  30.298  59.261  1.00  0.00     0.030 A 
BRANCH  14  19
HETATM   19  C   UNL     1       5.596  32.544  58.980  1.00  0.00     0.295 C 
HETATM   20  O   UNL     1       4.563  32.587  59.637  1.00  0.00    -0.259 OA
BRANCH  19  21
HETATM   21  O   UNL     1       5.786  33.095  57.761  1.00  0.00    -0.322 OA
HETATM   22  C   UNL     1       4.740  33.967  57.321  1.00  0.00     0.213 C 
ENDBRANCH  19  21
ENDBRANCH  14  19
ENDBRANCH  11  13
ENDBRANCH   9  11
ENDBRANCH   1   9
BRANCH   1  23
HETATM   23  C   UNL     1       5.663  27.614  56.746  1.00  0.00     0.169 C 
BRANCH  23  24
HETATM   24  C   UNL     1       6.474  26.365  56.476  1.00  0.00     0.029 A 
HETATM   25  C   UNL     1       7.451  26.029  57.564  1.00  0.00     0.253 A 
HETATM   26  O   UNL     1       7.597  26.772  58.529  1.00  0.00    -0.268 OA
HETATM   27  N   UNL     1       8.174  24.872  57.433  1.00  0.00    -0.322 N 
HETATM   28  C   UNL     1       8.056  23.996  56.347  1.00  0.00     0.048 A 
HETATM   29  H   UNL     1       8.815  24.660  58.188  1.00  0.00     0.169 HD
HETATM   30  C   UNL     1       7.170  24.318  55.316  1.00  0.00    -0.006 A 
HETATM   31  C   UNL     1       8.798  22.816  56.301  1.00  0.00     0.070 A 
HETATM   32  C   UNL     1       7.020  23.454  54.228  1.00  0.00     0.053 A 
HETATM   33  C   UNL     1       6.389  25.548  55.410  1.00  0.00     0.028 A 
HETATM   34  C   UNL     1       7.761  22.277  54.175  1.00  0.00     0.103 A 
HETATM   35  C   UNL     1       8.631  21.948  55.220  1.00  0.00     0.104 A 
HETATM   36  O   UNL     1       7.566  21.484  53.073  1.00  0.00    -0.346 OA
HETATM   37  O   UNL     1       9.354  20.782  55.246  1.00  0.00    -0.346 OA
HETATM   38  C   UNL     1       8.829  19.823  54.320  1.00  0.00     0.202 C 
HETATM   39  C   UNL     1       8.571  20.469  52.969  1.00  0.00     0.202 C 
ENDBRANCH  23  24
ENDBRANCH   1  23
TORSDOF 11
ENDMDL
MODEL 8
REMARK VINA RESULT:      -7.9      2.531      3.976
REMARK  11 active torsions:
REMARK  status: ('A' for Active; 'I' for Inactive)
REMARK    1  A    between atoms: N_2  and  C_4 
REMARK    2  A    between atoms: C_4  and  C_5 
REMARK    3  A    between atoms: C_5  and  C_6 
REMARK    4  A    between atoms: C_6  and  N_7 
REMARK    5  A    between atoms: N_7  and  C_8 
REMARK    6  A    between atoms: N_7  and  C_21 
REMARK    7  A    between atoms: C_8  and  N_9 
REMARK    8  A    between atoms: N_9  and  C_10 
REMARK    9  A    between atoms: C_11  and  C_12 
REMARK   10  A    between atoms: C_12  and  O_13 
REMARK   11  A    between atoms: C_21  and  C_22 
ROOT
HETATM    1  N   UNL     1       4.836  30.148  56.315  1.00  0.00    -0.354 N 
ENDROOT
BRANCH   1   2
HETATM    2  C   UNL     1       5.258  31.077  55.247  1.00  0.00     0.127 C 
BRANCH   2   3
HETATM    3  C   UNL     1       4.444  32.374  55.126  1.00  0.00     0.047 C 
BRANCH   3   4
HETATM    4  C   UNL     1       3.852  32.587  53.735  1.00  0.00     0.235 C 
BRANCH   4   5
HETATM    5  N   UNL     1       2.367  32.250  53.743  1.00  0.00    -0.079 N 
HETATM    6  C   UNL     1       1.560  33.056  52.765  1.00  0.00     0.269 C 
HETATM    7  H   UNL     1       2.282  31.261  53.471  1.00  0.00     0.278 HD
HETATM    8  C   UNL     1       1.792  32.339  55.133  1.00  0.00     0.269 C 
ENDBRANCH   4   5
ENDBRANCH   3   4
ENDBRANCH   2   3
ENDBRANCH   1   2
BRANCH   1   9
HETATM    9  C   UNL     1       4.956  30.415  57.708  1.00  0.00     0.174 C 
HETATM   10  S   UNL     1       3.753  31.220  58.552  1.00  0.00    -0.041 SA
BRANCH   9  11
HETATM   11  N   UNL     1       6.160  29.950  58.217  1.00  0.00    -0.332 N 
HETATM   12  H   UNL     1       6.344  28.986  57.942  1.00  0.00     0.168 HD
BRANCH  11  13
HETATM   13  C   UNL     1       7.343  30.605  58.665  1.00  0.00     0.050 A 
HETATM   14  C   UNL     1       8.603  30.097  58.249  1.00  0.00     0.066 A 
HETATM   15  C   UNL     1       9.792  30.730  58.651  1.00  0.00     0.020 A 
HETATM   16  C   UNL     1       9.744  31.854  59.471  1.00  0.00     0.001 A 
HETATM   17  C   UNL     1       8.516  32.338  59.908  1.00  0.00     0.002 A 
HETATM   18  C   UNL     1       7.327  31.714  59.516  1.00  0.00     0.030 A 
BRANCH  14  19
HETATM   19  C   UNL     1       8.676  28.889  57.375  1.00  0.00     0.295 C 
HETATM   20  O   UNL     1       8.366  27.773  57.773  1.00  0.00    -0.259 OA
BRANCH  19  21
HETATM   21  O   UNL     1       9.065  29.208  56.121  1.00  0.00    -0.322 OA
HETATM   22  C   UNL     1       8.212  28.720  55.081  1.00  0.00     0.213 C 
ENDBRANCH  19  21
ENDBRANCH  14  19
ENDBRANCH  11  13
ENDBRANCH   9  11
ENDBRANCH   1   9
BRANCH   1  23
HETATM   23  C   UNL     1       3.889  29.082  55.874  1.00  0.00     0.169 C 
BRANCH  23  24
HETATM   24  C   UNL     1       4.580  27.794  55.480  1.00  0.00     0.029 A 
HETATM   25  C   UNL     1       4.510  27.493  54.012  1.00  0.00     0.253 A 
HETATM   26  O   UNL     1       3.873  28.215  53.251  1.00  0.00    -0.268 OA
HETATM   27  N   UNL     1       5.174  26.382  53.559  1.00  0.00    -0.322 N 
HETATM   28  C   UNL     1       5.903  25.518  54.385  1.00  0.00     0.048 A 
HETATM   29  H   UNL     1       5.125  26.210  52.563  1.00  0.00     0.169 HD
HETATM   30  C   UNL     1       5.947  25.776  55.758  1.00  0.00    -0.006 A 
HETATM   31  C   UNL     1       6.586  24.428  53.847  1.00  0.00     0.070 A 
HETATM   32  C   UNL     1       6.681  24.940  56.603  1.00  0.00     0.053 A 
HETATM   33  C   UNL     1       5.243  26.943  56.282  1.00  0.00     0.028 A 
HETATM   34  C   UNL     1       7.361  23.847  56.071  1.00  0.00     0.103 A 
HETATM   35  C   UNL     1       7.332  23.605  54.694  1.00  0.00     0.104 A 
HETATM   36  O   UNL     1       8.052  23.069  56.964  1.00  0.00    -0.346 OA
HETATM   37  O   UNL     1       8.017  22.573  54.106  1.00  0.00    -0.346 OA
HETATM   38  C   UNL     1       9.025  22.052  54.981  1.00  0.00     0.202 C 
HETATM   39  C   UNL     1       8.461  21.828  56.375  1.00  0.00     0.202 C 
ENDBRANCH  23  24
ENDBRANCH   1  23
TORSDOF 11
ENDMDL
MODEL 9
REMARK VINA RESULT:      -7.8      3.032      5.726
REMARK  11 active torsions:
REMARK  status: ('A' for Active; 'I' for Inactive)
REMARK    1  A    between atoms: N_2  and  C_4 
REMARK    2  A    between atoms: C_4  and  C_5 
REMARK    3  A    between atoms: C_5  and  C_6 
REMARK    4  A    between atoms: C_6  and  N_7 
REMARK    5  A    between atoms: N_7  and  C_8 
REMARK    6  A    between atoms: N_7  and  C_21 
REMARK    7  A    between atoms: C_8  and  N_9 
REMARK    8  A    between atoms: N_9  and  C_10 
REMARK    9  A    between atoms: C_11  and  C_12 
REMARK   10  A    between atoms: C_12  and  O_13 
REMARK   11  A    between atoms: C_21  and  C_22 
ROOT
HETATM    1  N   UNL     1       5.339  31.288  58.605  1.00  0.00    -0.354 N 
ENDROOT
BRANCH   1   2
HETATM    2  C   UNL     1       6.656  31.085  57.968  1.00  0.00     0.127 C 
BRANCH   2   3
HETATM    3  C   UNL     1       7.659  30.231  58.757  1.00  0.00     0.047 C 
BRANCH   3   4
HETATM    4  C   UNL     1       9.110  30.469  58.347  1.00  0.00     0.235 C 
BRANCH   4   5
HETATM    5  N   UNL     1       9.444  29.648  57.108  1.00  0.00    -0.079 N 
HETATM    6  C   UNL     1       8.863  28.263  57.128  1.00  0.00     0.269 C 
HETATM    7  H   UNL     1       9.038  30.141  56.301  1.00  0.00     0.278 HD
HETATM    8  C   UNL     1      10.929  29.615  56.858  1.00  0.00     0.269 C 
ENDBRANCH   4   5
ENDBRANCH   3   4
ENDBRANCH   2   3
ENDBRANCH   1   2
BRANCH   1   9
HETATM    9  C   UNL     1       5.042  32.330  59.527  1.00  0.00     0.174 C 
HETATM   10  S   UNL     1       4.603  33.861  59.008  1.00  0.00    -0.041 SA
BRANCH   9  11
HETATM   11  N   UNL     1       5.186  31.907  60.842  1.00  0.00    -0.332 N 
HETATM   12  H   UNL     1       4.790  30.980  60.990  1.00  0.00     0.168 HD
BRANCH  11  13
HETATM   13  C   UNL     1       6.084  32.269  61.886  1.00  0.00     0.050 A 
HETATM   14  C   UNL     1       5.622  33.136  62.913  1.00  0.00     0.066 A 
HETATM   15  C   UNL     1       6.472  33.497  63.973  1.00  0.00     0.020 A 
HETATM   16  C   UNL     1       7.779  33.017  64.018  1.00  0.00     0.001 A 
HETATM   17  C   UNL     1       8.247  32.194  62.999  1.00  0.00     0.002 A 
HETATM   18  C   UNL     1       7.411  31.832  61.939  1.00  0.00     0.030 A 
BRANCH  14  19
HETATM   19  C   UNL     1       4.227  33.666  62.880  1.00  0.00     0.295 C 
HETATM   20  O   UNL     1       3.252  32.959  63.103  1.00  0.00    -0.259 OA
BRANCH  19  21
HETATM   21  O   UNL     1       4.208  34.994  62.633  1.00  0.00    -0.322 OA
HETATM   22  C   UNL     1       2.944  35.511  62.204  1.00  0.00     0.213 C 
ENDBRANCH  19  21
ENDBRANCH  14  19
ENDBRANCH  11  13
ENDBRANCH   9  11
ENDBRANCH   1   9
BRANCH   1  23
HETATM   23  C   UNL     1       4.204  30.601  57.919  1.00  0.00     0.169 C 
BRANCH  23  24
HETATM   24  C   UNL     1       4.643  29.748  56.747  1.00  0.00     0.029 A 
HETATM   25  C   UNL     1       4.683  30.487  55.442  1.00  0.00     0.253 A 
HETATM   26  O   UNL     1       4.311  31.653  55.367  1.00  0.00    -0.268 OA
HETATM   27  N   UNL     1       5.141  29.807  54.342  1.00  0.00    -0.322 N 
HETATM   28  C   UNL     1       5.565  28.473  54.369  1.00  0.00     0.048 A 
HETATM   29  H   UNL     1       5.173  30.333  53.477  1.00  0.00     0.169 HD
HETATM   30  C   UNL     1       5.501  27.771  55.576  1.00  0.00    -0.006 A 
HETATM   31  C   UNL     1       6.055  27.860  53.217  1.00  0.00     0.070 A 
HETATM   32  C   UNL     1       5.933  26.443  55.635  1.00  0.00     0.053 A 
HETATM   33  C   UNL     1       5.008  28.454  56.768  1.00  0.00     0.028 A 
HETATM   34  C   UNL     1       6.419  25.824  54.487  1.00  0.00     0.103 A 
HETATM   35  C   UNL     1       6.501  26.538  53.286  1.00  0.00     0.104 A 
HETATM   36  O   UNL     1       6.816  24.519  54.621  1.00  0.00    -0.346 OA
HETATM   37  O   UNL     1       7.012  25.997  52.133  1.00  0.00    -0.346 OA
HETATM   38  C   UNL     1       7.774  24.815  52.406  1.00  0.00     0.202 C 
HETATM   39  C   UNL     1       7.015  23.894  53.347  1.00  0.00     0.202 C 
ENDBRANCH  23  24
ENDBRANCH   1  23
TORSDOF 11
ENDMDL
MODEL 10
REMARK VINA RESULT:      -7.7      2.400      3.750
REMARK  11 active torsions:
REMARK  status: ('A' for Active; 'I' for Inactive)
REMARK    1  A    between atoms: N_2  and  C_4 
REMARK    2  A    between atoms: C_4  and  C_5 
REMARK    3  A    between atoms: C_5  and  C_6 
REMARK    4  A    between atoms: C_6  and  N_7 
REMARK    5  A    between atoms: N_7  and  C_8 
REMARK    6  A    between atoms: N_7  and  C_21 
REMARK    7  A    between atoms: C_8  and  N_9 
REMARK    8  A    between atoms: N_9  and  C_10 
REMARK    9  A    between atoms: C_11  and  C_12 
REMARK   10  A    between atoms: C_12  and  O_13 
REMARK   11  A    between atoms: C_21  and  C_22 
ROOT
HETATM    1  N   UNL     1       5.722  29.666  56.279  1.00  0.00    -0.354 N 
ENDROOT
BRANCH   1   2
HETATM    2  C   UNL     1       5.100  30.837  55.628  1.00  0.00     0.127 C 
BRANCH   2   3
HETATM    3  C   UNL     1       3.609  31.058  55.926  1.00  0.00     0.047 C 
BRANCH   3   4
HETATM    4  C   UNL     1       3.142  32.484  55.644  1.00  0.00     0.235 C 
BRANCH   4   5
HETATM    5  N   UNL     1       3.533  32.891  54.230  1.00  0.00    -0.079 N 
HETATM    6  C   UNL     1       4.306  34.179  54.165  1.00  0.00     0.269 C 
HETATM    7  H   UNL     1       4.141  32.148  53.859  1.00  0.00     0.278 HD
HETATM    8  C   UNL     1       2.334  32.926  53.319  1.00  0.00     0.269 C 
ENDBRANCH   4   5
ENDBRANCH   3   4
ENDBRANCH   2   3
ENDBRANCH   1   2
BRANCH   1   9
HETATM    9  C   UNL     1       6.937  29.708  57.020  1.00  0.00     0.174 C 
HETATM   10  S   UNL     1       8.405  29.308  56.319  1.00  0.00    -0.041 SA
BRANCH   9  11
HETATM   11  N   UNL     1       6.721  30.089  58.337  1.00  0.00    -0.332 N 
HETATM   12  H   UNL     1       5.989  29.534  58.780  1.00  0.00     0.168 HD
BRANCH  11  13
HETATM   13  C   UNL     1       7.529  30.758  59.300  1.00  0.00     0.050 A 
HETATM   14  C   UNL     1       7.100  32.021  59.791  1.00  0.00     0.066 A 
HETATM   15  C   UNL     1       7.860  32.701  60.759  1.00  0.00     0.020 A 
HETATM   16  C   UNL     1       9.045  32.148  61.236  1.00  0.00     0.001 A 
HETATM   17  C   UNL     1       9.487  30.927  60.736  1.00  0.00     0.002 A 
HETATM   18  C   UNL     1       8.741  30.244  59.771  1.00  0.00     0.030 A 
BRANCH  14  19
HETATM   19  C   UNL     1       5.836  32.634  59.289  1.00  0.00     0.295 C 
HETATM   20  O   UNL     1       5.732  33.085  58.154  1.00  0.00    -0.259 OA
BRANCH  19  21
HETATM   21  O   UNL     1       4.852  32.570  60.212  1.00  0.00    -0.322 OA
HETATM   22  C   UNL     1       3.638  31.960  59.761  1.00  0.00     0.213 C 
ENDBRANCH  19  21
ENDBRANCH  14  19
ENDBRANCH  11  13
ENDBRANCH   9  11
ENDBRANCH   1   9
BRANCH   1  23
HETATM   23  C   UNL     1       4.803  28.507  56.484  1.00  0.00     0.169 C 
BRANCH  23  24
HETATM   24  C   UNL     1       5.249  27.256  55.758  1.00  0.00     0.029 A 
HETATM   25  C   UNL     1       4.877  27.234  54.305  1.00  0.00     0.253 A 
HETATM   26  O   UNL     1       4.204  28.135  53.813  1.00  0.00    -0.268 OA
HETATM   27  N   UNL     1       5.307  26.169  53.555  1.00  0.00    -0.322 N 
HETATM   28  C   UNL     1       6.064  25.109  54.068  1.00  0.00     0.048 A 
HETATM   29  H   UNL     1       5.056  26.186  52.575  1.00  0.00     0.169 HD
HETATM   30  C   UNL     1       6.389  25.109  55.428  1.00  0.00    -0.006 A 
HETATM   31  C   UNL     1       6.500  24.078  53.236  1.00  0.00     0.070 A 
HETATM   32  C   UNL     1       7.157  24.072  55.963  1.00  0.00     0.053 A 
HETATM   33  C   UNL     1       5.939  26.219  56.263  1.00  0.00     0.028 A 
HETATM   34  C   UNL     1       7.591  23.039  55.137  1.00  0.00     0.103 A 
HETATM   35  C   UNL     1       7.282  23.053  53.773  1.00  0.00     0.104 A 
HETATM   36  O   UNL     1       8.333  22.053  55.735  1.00  0.00    -0.346 OA
HETATM   37  O   UNL     1       7.718  22.088  52.901  1.00  0.00    -0.346 OA
HETATM   38  C   UNL     1       8.798  21.331  53.461  1.00  0.00     0.202 C 
HETATM   39  C   UNL     1       8.475  20.909  54.885  1.00  0.00     0.202 C 
ENDBRANCH  23  24
ENDBRANCH   1  23
TORSDOF 11
ENDMDL
