MODEL 1
REMARK VINA RESULT:      -9.5      0.000      0.000
REMARK  5 active torsions:
REMARK  status: ('A' for Active; 'I' for Inactive)
REMARK    1  A    between atoms: C_3  and  N_4 
REMARK    2  A    between atoms: N_5  and  C_6 
REMARK    3  A    between atoms: C_6  and  C_7 
REMARK    4  A    between atoms: C_7  and  C_8 
REMARK    5  A    between atoms: C_19  and  C_20 
ROOT
HETATM    1  C   UNL     1       5.254  24.814  53.090  1.00  0.00     0.175 C 
HETATM    2  N   UNL     1       6.214  25.199  54.114  1.00  0.00    -0.186 N 
HETATM    3  C   UNL     1       6.324  26.425  54.612  1.00  0.00     0.680 C 
HETATM    4  N   UNL     1       7.038  26.373  55.730  1.00  0.00    -0.184 N 
HETATM    5  C   UNL     1       7.552  25.090  55.851  1.00  0.00     0.140 C 
HETATM    6  C   UNL     1       7.103  24.338  54.786  1.00  0.00     0.077 C 
ENDROOT
BRANCH   4   7
HETATM    7  C   UNL     1       7.217  27.443  56.734  1.00  0.00     0.231 C 
BRANCH   7   8
HETATM    8  C   UNL     1       8.192  28.532  56.297  1.00  0.00     0.178 C 
HETATM    9  O   UNL     1       8.561  28.649  55.127  1.00  0.00    -0.290 OA
BRANCH   8  10
HETATM   10  C   UNL     1       8.670  29.514  57.307  1.00  0.00     0.014 A 
HETATM   11  C   UNL     1       7.925  29.807  58.456  1.00  0.00     0.055 A 
HETATM   12  C   UNL     1       8.440  30.749  59.324  1.00  0.00     0.106 A 
HETATM   13  C   UNL     1       9.636  31.385  59.089  1.00  0.00     0.105 A 
HETATM   14  O   UNL     1       7.851  31.163  60.476  1.00  0.00    -0.323 OA
HETATM   15  O   UNL     1       9.951  32.275  60.064  1.00  0.00    -0.323 OA
HETATM   16  C   UNL     1      10.388  31.121  57.966  1.00  0.00     0.040 A 
HETATM   17  C   UNL     1       8.804  32.151  60.933  1.00  0.00     0.352 A 
HETATM   18  C   UNL     1       9.894  30.177  57.060  1.00  0.00     0.018 A 
ENDBRANCH   8  10
ENDBRANCH   7   8
ENDBRANCH   4   7
BRANCH   3  19
HETATM   19  N   UNL     1       5.783  27.511  54.070  1.00  0.00    -0.234 N 
HETATM   20  H   UNL     1       6.140  28.434  54.254  1.00  0.00     0.174 HD
HETATM   21  H   UNL     1       4.822  27.453  53.732  1.00  0.00     0.174 HD
ENDBRANCH   3  19
BRANCH   6  22
HETATM   22  C   UNL     1       7.498  22.921  54.481  1.00  0.00    -0.007 A 
HETATM   23  C   UNL     1       7.550  21.969  55.508  1.00  0.00     0.014 A 
HETATM   24  C   UNL     1       7.930  20.654  55.230  1.00  0.00     0.001 A 
HETATM   25  C   UNL     1       8.273  20.285  53.931  1.00  0.00     0.000 A 
HETATM   26  C   UNL     1       8.242  21.231  52.910  1.00  0.00     0.001 A 
HETATM   27  C   UNL     1       7.858  22.546  53.183  1.00  0.00     0.014 A 
ENDBRANCH   6  22
TORSDOF 5
ENDMDL
MODEL 2
REMARK VINA RESULT:      -9.2      2.871      8.504
REMARK  5 active torsions:
REMARK  status: ('A' for Active; 'I' for Inactive)
REMARK    1  A    between atoms: C_3  and  N_4 
REMARK    2  A    between atoms: N_5  and  C_6 
REMARK    3  A    between atoms: C_6  and  C_7 
REMARK    4  A    between atoms: C_7  and  C_8 
REMARK    5  A    between atoms: C_19  and  C_20 
ROOT
HETATM    1  C   UNL     1       5.361  30.310  56.653  1.00  0.00     0.175 C 
HETATM    2  N   UNL     1       5.976  29.038  57.002  1.00  0.00    -0.186 N 
HETATM    3  C   UNL     1       5.410  27.854  56.795  1.00  0.00     0.680 C 
HETATM    4  N   UNL     1       6.337  26.909  56.908  1.00  0.00    -0.184 N 
HETATM    5  C   UNL     1       7.498  27.503  57.382  1.00  0.00     0.140 C 
HETATM    6  C   UNL     1       7.270  28.855  57.525  1.00  0.00     0.077 C 
ENDROOT
BRANCH   4   7
HETATM    7  C   UNL     1       6.219  25.483  56.538  1.00  0.00     0.231 C 
BRANCH   7   8
HETATM    8  C   UNL     1       6.616  25.193  55.094  1.00  0.00     0.178 C 
HETATM    9  O   UNL     1       6.555  26.053  54.213  1.00  0.00    -0.290 OA
BRANCH   8  10
HETATM   10  C   UNL     1       7.142  23.844  54.752  1.00  0.00     0.014 A 
HETATM   11  C   UNL     1       7.542  22.940  55.743  1.00  0.00     0.055 A 
HETATM   12  C   UNL     1       8.039  21.721  55.327  1.00  0.00     0.106 A 
HETATM   13  C   UNL     1       8.143  21.387  53.997  1.00  0.00     0.105 A 
HETATM   14  O   UNL     1       8.482  20.730  56.145  1.00  0.00    -0.323 OA
HETATM   15  O   UNL     1       8.660  20.146  53.812  1.00  0.00    -0.323 OA
HETATM   16  C   UNL     1       7.761  22.258  53.001  1.00  0.00     0.040 A 
HETATM   17  C   UNL     1       8.898  19.739  55.177  1.00  0.00     0.352 A 
HETATM   18  C   UNL     1       7.260  23.506  53.385  1.00  0.00     0.018 A 
ENDBRANCH   8  10
ENDBRANCH   7   8
ENDBRANCH   4   7
BRANCH   3  19
HETATM   19  N   UNL     1       4.127  27.670  56.507  1.00  0.00    -0.234 N 
HETATM   20  H   UNL     1       3.391  28.007  57.105  1.00  0.00     0.174 HD
HETATM   21  H   UNL     1       3.882  26.918  55.862  1.00  0.00     0.174 HD
ENDBRANCH   3  19
BRANCH   6  22
HETATM   22  C   UNL     1       8.234  29.855  58.098  1.00  0.00    -0.007 A 
HETATM   23  C   UNL     1       7.872  30.622  59.214  1.00  0.00     0.014 A 
HETATM   24  C   UNL     1       8.762  31.562  59.740  1.00  0.00     0.001 A 
HETATM   25  C   UNL     1      10.010  31.750  59.150  1.00  0.00     0.000 A 
HETATM   26  C   UNL     1      10.368  31.005  58.030  1.00  0.00     0.001 A 
HETATM   27  C   UNL     1       9.483  30.061  57.503  1.00  0.00     0.014 A 
ENDBRANCH   6  22
TORSDOF 5
ENDMDL
MODEL 3
REMARK VINA RESULT:      -9.2      3.177      7.987
REMARK  5 active torsions:
REMARK  status: ('A' for Active; 'I' for Inactive)
REMARK    1  A    between atoms: C_3  and  N_4 
REMARK    2  A    between atoms: N_5  and  C_6 
REMARK    3  A    between atoms: C_6  and  C_7 
REMARK    4  A    between atoms: C_7  and  C_8 
REMARK    5  A    between atoms: C_19  and  C_20 
ROOT
HETATM    1  C   UNL     1       5.268  30.168  55.417  1.00  0.00     0.175 C 
HETATM    2  N   UNL     1       5.827  28.829  55.307  1.00  0.00    -0.186 N 
HETATM    3  C   UNL     1       5.217  27.812  54.710  1.00  0.00     0.680 C 
HETATM    4  N   UNL     1       6.104  26.848  54.489  1.00  0.00    -0.184 N 
HETATM    5  C   UNL     1       7.283  27.196  55.133  1.00  0.00     0.140 C 
HETATM    6  C   UNL     1       7.107  28.426  55.731  1.00  0.00     0.077 C 
ENDROOT
BRANCH   4   7
HETATM    7  C   UNL     1       5.932  25.641  53.654  1.00  0.00     0.231 C 
BRANCH   7   8
HETATM    8  C   UNL     1       7.249  25.022  53.198  1.00  0.00     0.178 C 
HETATM    9  O   UNL     1       8.026  25.617  52.447  1.00  0.00    -0.290 OA
BRANCH   8  10
HETATM   10  C   UNL     1       7.629  23.681  53.717  1.00  0.00     0.014 A 
HETATM   11  C   UNL     1       7.865  23.462  55.079  1.00  0.00     0.055 A 
HETATM   12  C   UNL     1       8.235  22.188  55.463  1.00  0.00     0.106 A 
HETATM   13  C   UNL     1       8.370  21.161  54.558  1.00  0.00     0.105 A 
HETATM   14  O   UNL     1       8.513  21.798  56.735  1.00  0.00    -0.323 OA
HETATM   15  O   UNL     1       8.745  19.997  55.148  1.00  0.00    -0.323 OA
HETATM   16  C   UNL     1       8.148  21.348  53.213  1.00  0.00     0.040 A 
HETATM   17  C   UNL     1       8.860  20.409  56.527  1.00  0.00     0.352 A 
HETATM   18  C   UNL     1       7.779  22.628  52.786  1.00  0.00     0.018 A 
ENDBRANCH   8  10
ENDBRANCH   7   8
ENDBRANCH   4   7
BRANCH   3  19
HETATM   19  N   UNL     1       3.930  27.791  54.381  1.00  0.00    -0.234 N 
HETATM   20  H   UNL     1       3.612  28.015  53.453  1.00  0.00     0.174 HD
HETATM   21  H   UNL     1       3.241  27.867  55.130  1.00  0.00     0.174 HD
ENDBRANCH   3  19
BRANCH   6  22
HETATM   22  C   UNL     1       8.105  29.128  56.608  1.00  0.00    -0.007 A 
HETATM   23  C   UNL     1       9.374  29.453  56.109  1.00  0.00     0.014 A 
HETATM   24  C   UNL     1      10.308  30.094  56.927  1.00  0.00     0.001 A 
HETATM   25  C   UNL     1       9.988  30.401  58.247  1.00  0.00     0.000 A 
HETATM   26  C   UNL     1       8.736  30.062  58.754  1.00  0.00     0.001 A 
HETATM   27  C   UNL     1       7.797  29.426  57.939  1.00  0.00     0.014 A 
ENDBRANCH   6  22
TORSDOF 5
ENDMDL
MODEL 4
REMARK VINA RESULT:      -9.2      2.748      8.957
REMARK  5 active torsions:
REMARK  status: ('A' for Active; 'I' for Inactive)
REMARK    1  A    between atoms: C_3  and  N_4 
REMARK    2  A    between atoms: N_5  and  C_6 
REMARK    3  A    between atoms: C_6  and  C_7 
REMARK    4  A    between atoms: C_7  and  C_8 
REMARK    5  A    between atoms: C_19  and  C_20 
ROOT
HETATM    1  C   UNL     1      10.557  30.775  57.470  1.00  0.00     0.175 C 
HETATM    2  N   UNL     1       9.288  30.063  57.474  1.00  0.00    -0.186 N 
HETATM    3  C   UNL     1       8.851  29.311  56.470  1.00  0.00     0.680 C 
HETATM    4  N   UNL     1       7.851  28.552  56.905  1.00  0.00    -0.184 N 
HETATM    5  C   UNL     1       7.524  28.969  58.188  1.00  0.00     0.140 C 
HETATM    6  C   UNL     1       8.380  29.989  58.547  1.00  0.00     0.077 C 
ENDROOT
BRANCH   4   7
HETATM    7  C   UNL     1       7.220  27.411  56.211  1.00  0.00     0.231 C 
BRANCH   7   8
HETATM    8  C   UNL     1       7.770  26.054  56.641  1.00  0.00     0.178 C 
HETATM    9  O   UNL     1       8.208  25.857  57.776  1.00  0.00    -0.290 OA
BRANCH   8  10
HETATM   10  C   UNL     1       7.727  24.924  55.676  1.00  0.00     0.014 A 
HETATM   11  C   UNL     1       7.832  23.594  56.098  1.00  0.00     0.055 A 
HETATM   12  C   UNL     1       7.804  22.614  55.125  1.00  0.00     0.106 A 
HETATM   13  C   UNL     1       7.677  22.912  53.789  1.00  0.00     0.105 A 
HETATM   14  O   UNL     1       7.905  21.278  55.350  1.00  0.00    -0.323 OA
HETATM   15  O   UNL     1       7.677  21.802  53.007  1.00  0.00    -0.323 OA
HETATM   16  C   UNL     1       7.575  24.211  53.343  1.00  0.00     0.040 A 
HETATM   17  C   UNL     1       7.846  20.766  53.998  1.00  0.00     0.352 A 
HETATM   18  C   UNL     1       7.607  25.231  54.300  1.00  0.00     0.018 A 
ENDBRANCH   8  10
ENDBRANCH   7   8
ENDBRANCH   4   7
BRANCH   3  19
HETATM   19  N   UNL     1       9.358  29.321  55.243  1.00  0.00    -0.234 N 
HETATM   20  H   UNL     1       9.905  30.092  54.897  1.00  0.00     0.174 HD
HETATM   21  H   UNL     1       8.934  28.712  54.542  1.00  0.00     0.174 HD
ENDBRANCH   3  19
BRANCH   6  22
HETATM   22  C   UNL     1       8.313  30.786  59.818  1.00  0.00    -0.007 A 
HETATM   23  C   UNL     1       7.424  31.865  59.927  1.00  0.00     0.014 A 
HETATM   24  C   UNL     1       7.370  32.616  61.103  1.00  0.00     0.001 A 
HETATM   25  C   UNL     1       8.209  32.306  62.171  1.00  0.00     0.000 A 
HETATM   26  C   UNL     1       9.108  31.248  62.062  1.00  0.00     0.001 A 
HETATM   27  C   UNL     1       9.162  30.490  60.889  1.00  0.00     0.014 A 
ENDBRANCH   6  22
TORSDOF 5
ENDMDL
MODEL 5
REMARK VINA RESULT:      -9.2      1.710      2.842
REMARK  5 active torsions:
REMARK  status: ('A' for Active; 'I' for Inactive)
REMARK    1  A    between atoms: C_3  and  N_4 
REMARK    2  A    between atoms: N_5  and  C_6 
REMARK    3  A    between atoms: C_6  and  C_7 
REMARK    4  A    between atoms: C_7  and  C_8 
REMARK    5  A    between atoms: C_19  and  C_20 
ROOT
HETATM    1  C   UNL     1       9.087  24.050  57.198  1.00  0.00     0.175 C 
HETATM    2  N   UNL     1       7.803  24.426  56.625  1.00  0.00    -0.186 N 
HETATM    3  C   UNL     1       7.030  25.397  57.097  1.00  0.00     0.680 C 
HETATM    4  N   UNL     1       6.118  25.704  56.182  1.00  0.00    -0.184 N 
HETATM    5  C   UNL     1       6.203  24.768  55.162  1.00  0.00     0.140 C 
HETATM    6  C   UNL     1       7.225  23.890  55.459  1.00  0.00     0.077 C 
ENDROOT
BRANCH   4   7
HETATM    7  C   UNL     1       5.206  26.867  56.175  1.00  0.00     0.231 C 
BRANCH   7   8
HETATM    8  C   UNL     1       5.826  28.126  55.577  1.00  0.00     0.178 C 
HETATM    9  O   UNL     1       5.401  28.633  54.537  1.00  0.00    -0.290 OA
BRANCH   8  10
HETATM   10  C   UNL     1       6.942  28.789  56.301  1.00  0.00     0.014 A 
HETATM   11  C   UNL     1       8.235  28.843  55.766  1.00  0.00     0.055 A 
HETATM   12  C   UNL     1       9.210  29.461  56.524  1.00  0.00     0.106 A 
HETATM   13  C   UNL     1       8.943  30.010  57.756  1.00  0.00     0.105 A 
HETATM   14  O   UNL     1      10.515  29.595  56.169  1.00  0.00    -0.323 OA
HETATM   15  O   UNL     1      10.045  30.560  58.328  1.00  0.00    -0.323 OA
HETATM   16  C   UNL     1       7.683  29.968  58.309  1.00  0.00     0.040 A 
HETATM   17  C   UNL     1      11.048  30.274  57.329  1.00  0.00     0.352 A 
HETATM   18  C   UNL     1       6.671  29.344  57.573  1.00  0.00     0.018 A 
ENDBRANCH   8  10
ENDBRANCH   7   8
ENDBRANCH   4   7
BRANCH   3  19
HETATM   19  N   UNL     1       7.176  25.967  58.288  1.00  0.00    -0.234 N 
HETATM   20  H   UNL     1       8.082  26.134  58.693  1.00  0.00     0.174 HD
HETATM   21  H   UNL     1       6.386  25.942  58.934  1.00  0.00     0.174 HD
ENDBRANCH   3  19
BRANCH   6  22
HETATM   22  C   UNL     1       7.595  22.669  54.665  1.00  0.00    -0.007 A 
HETATM   23  C   UNL     1       7.752  21.433  55.307  1.00  0.00     0.014 A 
HETATM   24  C   UNL     1       8.109  20.300  54.573  1.00  0.00     0.001 A 
HETATM   25  C   UNL     1       8.324  20.395  53.200  1.00  0.00     0.000 A 
HETATM   26  C   UNL     1       8.189  21.624  52.560  1.00  0.00     0.001 A 
HETATM   27  C   UNL     1       7.827  22.759  53.289  1.00  0.00     0.014 A 
ENDBRANCH   6  22
TORSDOF 5
ENDMDL
MODEL 6
REMARK VINA RESULT:      -9.0      1.355      1.961
REMARK  5 active torsions:
REMARK  status: ('A' for Active; 'I' for Inactive)
REMARK    1  A    between atoms: C_3  and  N_4 
REMARK    2  A    between atoms: N_5  and  C_6 
REMARK    3  A    between atoms: C_6  and  C_7 
REMARK    4  A    between atoms: C_7  and  C_8 
REMARK    5  A    between atoms: C_19  and  C_20 
ROOT
HETATM    1  C   UNL     1       4.863  24.831  52.907  1.00  0.00     0.175 C 
HETATM    2  N   UNL     1       5.957  25.448  53.640  1.00  0.00    -0.186 N 
HETATM    3  C   UNL     1       6.090  26.757  53.821  1.00  0.00     0.680 C 
HETATM    4  N   UNL     1       6.977  26.970  54.787  1.00  0.00    -0.184 N 
HETATM    5  C   UNL     1       7.562  25.753  55.106  1.00  0.00     0.140 C 
HETATM    6  C   UNL     1       6.981  24.773  54.330  1.00  0.00     0.077 C 
ENDROOT
BRANCH   4   7
HETATM    7  C   UNL     1       7.268  28.244  55.476  1.00  0.00     0.231 C 
BRANCH   7   8
HETATM    8  C   UNL     1       6.500  28.421  56.782  1.00  0.00     0.178 C 
HETATM    9  O   UNL     1       5.597  27.652  57.119  1.00  0.00    -0.290 OA
BRANCH   8  10
HETATM   10  C   UNL     1       6.891  29.523  57.701  1.00  0.00     0.014 A 
HETATM   11  C   UNL     1       8.035  29.440  58.503  1.00  0.00     0.055 A 
HETATM   12  C   UNL     1       8.302  30.505  59.340  1.00  0.00     0.106 A 
HETATM   13  C   UNL     1       7.491  31.614  59.398  1.00  0.00     0.105 A 
HETATM   14  O   UNL     1       9.357  30.590  60.193  1.00  0.00    -0.323 OA
HETATM   15  O   UNL     1       7.936  32.536  60.289  1.00  0.00    -0.323 OA
HETATM   16  C   UNL     1       6.358  31.722  58.623  1.00  0.00     0.040 A 
HETATM   17  C   UNL     1       9.108  31.874  60.811  1.00  0.00     0.352 A 
HETATM   18  C   UNL     1       6.051  30.659  57.768  1.00  0.00     0.018 A 
ENDBRANCH   8  10
ENDBRANCH   7   8
ENDBRANCH   4   7
BRANCH   3  19
HETATM   19  N   UNL     1       5.420  27.685  53.146  1.00  0.00    -0.234 N 
HETATM   20  H   UNL     1       5.635  28.665  53.228  1.00  0.00     0.174 HD
HETATM   21  H   UNL     1       4.490  27.450  52.799  1.00  0.00     0.174 HD
ENDBRANCH   3  19
BRANCH   6  22
HETATM   22  C   UNL     1       7.386  23.326  54.293  1.00  0.00    -0.007 A 
HETATM   23  C   UNL     1       7.677  22.708  53.069  1.00  0.00     0.014 A 
HETATM   24  C   UNL     1       8.040  21.360  53.030  1.00  0.00     0.001 A 
HETATM   25  C   UNL     1       8.101  20.618  54.208  1.00  0.00     0.000 A 
HETATM   26  C   UNL     1       7.793  21.221  55.424  1.00  0.00     0.001 A 
HETATM   27  C   UNL     1       7.435  22.570  55.468  1.00  0.00     0.014 A 
ENDBRANCH   6  22
TORSDOF 5
ENDMDL
MODEL 7
REMARK VINA RESULT:      -8.8      1.713      2.612
REMARK  5 active torsions:
REMARK  status: ('A' for Active; 'I' for Inactive)
REMARK    1  A    between atoms: C_3  and  N_4 
REMARK    2  A    between atoms: N_5  and  C_6 
REMARK    3  A    between atoms: C_6  and  C_7 
REMARK    4  A    between atoms: C_7  and  C_8 
REMARK    5  A    between atoms: C_19  and  C_20 
ROOT
HETATM    1  C   UNL     1       5.054  25.320  57.028  1.00  0.00     0.175 C 
HETATM    2  N   UNL     1       5.886  26.328  56.388  1.00  0.00    -0.186 N 
HETATM    3  C   UNL     1       5.819  27.629  56.652  1.00  0.00     0.680 C 
HETATM    4  N   UNL     1       6.904  28.222  56.167  1.00  0.00    -0.184 N 
HETATM    5  C   UNL     1       7.599  27.290  55.410  1.00  0.00     0.140 C 
HETATM    6  C   UNL     1       6.926  26.088  55.471  1.00  0.00     0.077 C 
ENDROOT
BRANCH   4   7
HETATM    7  C   UNL     1       7.366  29.602  56.423  1.00  0.00     0.231 C 
BRANCH   7   8
HETATM    8  C   UNL     1       8.351  29.712  57.582  1.00  0.00     0.178 C 
HETATM    9  O   UNL     1       9.465  29.185  57.545  1.00  0.00    -0.290 OA
BRANCH   8  10
HETATM   10  C   UNL     1       7.973  30.523  58.770  1.00  0.00     0.014 A 
HETATM   11  C   UNL     1       8.686  30.440  59.972  1.00  0.00     0.055 A 
HETATM   12  C   UNL     1       8.245  31.215  61.027  1.00  0.00     0.106 A 
HETATM   13  C   UNL     1       7.153  32.044  60.920  1.00  0.00     0.105 A 
HETATM   14  O   UNL     1       8.805  31.253  62.264  1.00  0.00    -0.323 OA
HETATM   15  O   UNL     1       6.892  32.709  62.075  1.00  0.00    -0.323 OA
HETATM   16  C   UNL     1       6.431  32.143  59.753  1.00  0.00     0.040 A 
HETATM   17  C   UNL     1       7.928  32.187  62.935  1.00  0.00     0.352 A 
HETATM   18  C   UNL     1       6.843  31.367  58.665  1.00  0.00     0.018 A 
ENDBRANCH   8  10
ENDBRANCH   7   8
ENDBRANCH   4   7
BRANCH   3  19
HETATM   19  N   UNL     1       4.826  28.216  57.311  1.00  0.00    -0.234 N 
HETATM   20  H   UNL     1       3.932  27.771  57.435  1.00  0.00     0.174 HD
HETATM   21  H   UNL     1       4.849  29.231  57.411  1.00  0.00     0.174 HD
ENDBRANCH   3  19
BRANCH   6  22
HETATM   22  C   UNL     1       7.287  24.838  54.719  1.00  0.00    -0.007 A 
HETATM   23  C   UNL     1       7.606  23.665  55.415  1.00  0.00     0.014 A 
HETATM   24  C   UNL     1       7.955  22.505  54.718  1.00  0.00     0.001 A 
HETATM   25  C   UNL     1       8.000  22.513  53.326  1.00  0.00     0.000 A 
HETATM   26  C   UNL     1       7.703  23.681  52.629  1.00  0.00     0.001 A 
HETATM   27  C   UNL     1       7.349  24.842  53.322  1.00  0.00     0.014 A 
ENDBRANCH   6  22
TORSDOF 5
ENDMDL
MODEL 8
REMARK VINA RESULT:      -8.7      4.271      7.097
REMARK  5 active torsions:
REMARK  status: ('A' for Active; 'I' for Inactive)
REMARK    1  A    between atoms: C_3  and  N_4 
REMARK    2  A    between atoms: N_5  and  C_6 
REMARK    3  A    between atoms: C_6  and  C_7 
REMARK    4  A    between atoms: C_7  and  C_8 
REMARK    5  A    between atoms: C_19  and  C_20 
ROOT
HETATM    1  C   UNL     1       8.338  24.480  57.039  1.00  0.00     0.175 C 
HETATM    2  N   UNL     1       7.361  24.684  55.980  1.00  0.00    -0.186 N 
HETATM    3  C   UNL     1       6.538  25.725  55.913  1.00  0.00     0.680 C 
HETATM    4  N   UNL     1       6.023  25.789  54.691  1.00  0.00    -0.184 N 
HETATM    5  C   UNL     1       6.396  24.639  54.009  1.00  0.00     0.140 C 
HETATM    6  C   UNL     1       7.190  23.877  54.839  1.00  0.00     0.077 C 
ENDROOT
BRANCH   4   7
HETATM    7  C   UNL     1       5.250  26.899  54.097  1.00  0.00     0.231 C 
BRANCH   7   8
HETATM    8  C   UNL     1       6.019  27.682  53.038  1.00  0.00     0.178 C 
HETATM    9  O   UNL     1       7.111  28.202  53.275  1.00  0.00    -0.290 OA
BRANCH   8  10
HETATM   10  C   UNL     1       5.456  27.775  51.665  1.00  0.00     0.014 A 
HETATM   11  C   UNL     1       5.058  26.635  50.956  1.00  0.00     0.055 A 
HETATM   12  C   UNL     1       4.568  26.821  49.678  1.00  0.00     0.106 A 
HETATM   13  C   UNL     1       4.465  28.067  49.107  1.00  0.00     0.105 A 
HETATM   14  O   UNL     1       4.148  25.833  48.845  1.00  0.00    -0.323 OA
HETATM   15  O   UNL     1       3.964  28.020  47.846  1.00  0.00    -0.323 OA
HETATM   16  C   UNL     1       4.852  29.205  49.778  1.00  0.00     0.040 A 
HETATM   17  C   UNL     1       3.786  26.598  47.672  1.00  0.00     0.352 A 
HETATM   18  C   UNL     1       5.361  29.055  51.073  1.00  0.00     0.018 A 
ENDBRANCH   8  10
ENDBRANCH   7   8
ENDBRANCH   4   7
BRANCH   3  19
HETATM   19  N   UNL     1       6.298  26.562  56.916  1.00  0.00    -0.234 N 
HETATM   20  H   UNL     1       6.747  27.461  56.980  1.00  0.00     0.174 HD
HETATM   21  H   UNL     1       5.917  26.180  57.782  1.00  0.00     0.174 HD
ENDBRANCH   3  19
BRANCH   6  22
HETATM   22  C   UNL     1       7.732  22.511  54.528  1.00  0.00    -0.007 A 
HETATM   23  C   UNL     1       7.987  22.140  53.200  1.00  0.00     0.014 A 
HETATM   24  C   UNL     1       8.477  20.866  52.907  1.00  0.00     0.001 A 
HETATM   25  C   UNL     1       8.703  19.950  53.932  1.00  0.00     0.000 A 
HETATM   26  C   UNL     1       8.433  20.305  55.251  1.00  0.00     0.001 A 
HETATM   27  C   UNL     1       7.947  21.580  55.550  1.00  0.00     0.014 A 
ENDBRANCH   6  22
TORSDOF 5
ENDMDL
MODEL 9
REMARK VINA RESULT:      -8.4      3.939      7.813
REMARK  5 active torsions:
REMARK  status: ('A' for Active; 'I' for Inactive)
REMARK    1  A    between atoms: C_3  and  N_4 
REMARK    2  A    between atoms: N_5  and  C_6 
REMARK    3  A    between atoms: C_6  and  C_7 
REMARK    4  A    between atoms: C_7  and  C_8 
REMARK    5  A    between atoms: C_19  and  C_20 
ROOT
HETATM    1  C   UNL     1       4.542  29.382  54.836  1.00  0.00     0.175 C 
HETATM    2  N   UNL     1       5.156  28.063  54.857  1.00  0.00    -0.186 N 
HETATM    3  C   UNL     1       5.528  27.431  55.964  1.00  0.00     0.680 C 
HETATM    4  N   UNL     1       5.736  26.151  55.679  1.00  0.00    -0.184 N 
HETATM    5  C   UNL     1       5.666  26.002  54.301  1.00  0.00     0.140 C 
HETATM    6  C   UNL     1       5.372  27.229  53.744  1.00  0.00     0.077 C 
ENDROOT
BRANCH   4   7
HETATM    7  C   UNL     1       5.936  25.038  56.630  1.00  0.00     0.231 C 
BRANCH   7   8
HETATM    8  C   UNL     1       7.385  24.572  56.729  1.00  0.00     0.178 C 
HETATM    9  O   UNL     1       8.225  25.185  57.392  1.00  0.00    -0.290 OA
BRANCH   8  10
HETATM   10  C   UNL     1       7.781  23.311  56.048  1.00  0.00     0.014 A 
HETATM   11  C   UNL     1       7.670  23.159  54.661  1.00  0.00     0.055 A 
HETATM   12  C   UNL     1       8.041  21.943  54.123  1.00  0.00     0.106 A 
HETATM   13  C   UNL     1       8.506  20.909  54.901  1.00  0.00     0.105 A 
HETATM   14  O   UNL     1       7.989  21.617  52.805  1.00  0.00    -0.323 OA
HETATM   15  O   UNL     1       8.809  19.806  54.170  1.00  0.00    -0.323 OA
HETATM   16  C   UNL     1       8.622  21.027  56.268  1.00  0.00     0.040 A 
HETATM   17  C   UNL     1       8.457  20.248  52.842  1.00  0.00     0.352 A 
HETATM   18  C   UNL     1       8.248  22.243  56.849  1.00  0.00     0.018 A 
ENDBRANCH   8  10
ENDBRANCH   7   8
ENDBRANCH   4   7
BRANCH   3  19
HETATM   19  N   UNL     1       5.650  28.004  57.156  1.00  0.00    -0.234 N 
HETATM   20  H   UNL     1       5.597  29.002  57.277  1.00  0.00     0.174 HD
HETATM   21  H   UNL     1       6.115  27.479  57.897  1.00  0.00     0.174 HD
ENDBRANCH   3  19
BRANCH   6  22
HETATM   22  C   UNL     1       5.297  27.533  52.275  1.00  0.00    -0.007 A 
HETATM   23  C   UNL     1       5.008  26.512  51.359  1.00  0.00     0.014 A 
HETATM   24  C   UNL     1       4.951  26.790  49.991  1.00  0.00     0.001 A 
HETATM   25  C   UNL     1       5.196  28.081  49.528  1.00  0.00     0.000 A 
HETATM   26  C   UNL     1       5.503  29.095  50.431  1.00  0.00     0.001 A 
HETATM   27  C   UNL     1       5.556  28.823  51.801  1.00  0.00     0.014 A 
ENDBRANCH   6  22
TORSDOF 5
ENDMDL
MODEL 10
REMARK VINA RESULT:      -8.4      5.355      8.609
REMARK  5 active torsions:
REMARK  status: ('A' for Active; 'I' for Inactive)
REMARK    1  A    between atoms: C_3  and  N_4 
REMARK    2  A    between atoms: N_5  and  C_6 
REMARK    3  A    between atoms: C_6  and  C_7 
REMARK    4  A    between atoms: C_7  and  C_8 
REMARK    5  A    between atoms: C_19  and  C_20 
ROOT
HETATM    1  C   UNL     1       3.200  29.227  52.548  1.00  0.00     0.175 C 
HETATM    2  N   UNL     1       4.122  28.183  52.127  1.00  0.00    -0.186 N 
HETATM    3  C   UNL     1       4.565  27.213  52.919  1.00  0.00     0.680 C 
HETATM    4  N   UNL     1       5.106  26.259  52.169  1.00  0.00    -0.184 N 
HETATM    5  C   UNL     1       5.170  26.725  50.864  1.00  0.00     0.140 C 
HETATM    6  C   UNL     1       4.616  27.988  50.823  1.00  0.00     0.077 C 
ENDROOT
BRANCH   4   7
HETATM    7  C   UNL     1       5.513  24.904  52.594  1.00  0.00     0.231 C 
BRANCH   7   8
HETATM    8  C   UNL     1       6.841  24.872  53.345  1.00  0.00     0.178 C 
HETATM    9  O   UNL     1       7.461  25.902  53.619  1.00  0.00    -0.290 OA
BRANCH   8  10
HETATM   10  C   UNL     1       7.373  23.562  53.805  1.00  0.00     0.014 A 
HETATM   11  C   UNL     1       7.533  23.271  55.165  1.00  0.00     0.055 A 
HETATM   12  C   UNL     1       8.057  22.036  55.492  1.00  0.00     0.106 A 
HETATM   13  C   UNL     1       8.412  21.114  54.537  1.00  0.00     0.105 A 
HETATM   14  O   UNL     1       8.291  21.591  56.755  1.00  0.00    -0.323 OA
HETATM   15  O   UNL     1       8.909  19.972  55.078  1.00  0.00    -0.323 OA
HETATM   16  C   UNL     1       8.270  21.373  53.192  1.00  0.00     0.040 A 
HETATM   17  C   UNL     1       8.854  20.286  56.486  1.00  0.00     0.352 A 
HETATM   18  C   UNL     1       7.749  22.618  52.822  1.00  0.00     0.018 A 
ENDBRANCH   8  10
ENDBRANCH   7   8
ENDBRANCH   4   7
BRANCH   3  19
HETATM   19  N   UNL     1       4.457  27.212  54.243  1.00  0.00    -0.234 N 
HETATM   20  H   UNL     1       5.241  27.410  54.842  1.00  0.00     0.174 HD
HETATM   21  H   UNL     1       3.681  26.699  54.662  1.00  0.00     0.174 HD
ENDBRANCH   3  19
BRANCH   6  22
HETATM   22  C   UNL     1       4.568  28.888  49.622  1.00  0.00    -0.007 A 
HETATM   23  C   UNL     1       3.900  28.477  48.459  1.00  0.00     0.014 A 
HETATM   24  C   UNL     1       3.866  29.307  47.337  1.00  0.00     0.001 A 
HETATM   25  C   UNL     1       4.506  30.544  47.361  1.00  0.00     0.000 A 
HETATM   26  C   UNL     1       5.187  30.950  48.505  1.00  0.00     0.001 A 
HETATM   27  C   UNL     1       5.221  30.125  49.633  1.00  0.00     0.014 A 
ENDBRANCH   6  22
TORSDOF 5
ENDMDL
