MODEL 1
REMARK VINA RESULT:     -10.9      0.000      0.000
REMARK  8 active torsions:
REMARK  status: ('A' for Active; 'I' for Inactive)
REMARK    1  A    between atoms: C_3  and  C_4 
REMARK    2  A    between atoms: N_5  and  N_6 
REMARK    3  A    between atoms: C_17  and  C_18 
REMARK       I    between atoms: C_18  and  N_19 
REMARK    4  A    between atoms: N_19  and  C_20 
REMARK    5  A    between atoms: C_20  and  C_21 
REMARK    6  A    between atoms: C_21  and  C_22 
REMARK    7  A    between atoms: C_29  and  N_30 
REMARK    8  A    between atoms: C_31  and  O_32 
ROOT
HETATM    1  N   UNL     1       6.035  25.892  53.397  1.00  0.00    -0.202 N 
HETATM    2  C   UNL     1       6.576  24.674  53.764  1.00  0.00     0.183 A 
HETATM    3  C   UNL     1       6.673  24.679  55.153  1.00  0.00     0.124 A 
HETATM    4  N   UNL     1       7.254  23.643  55.812  1.00  0.00    -0.242 NA
HETATM    5  C   UNL     1       7.629  22.612  55.038  1.00  0.00     0.086 A 
HETATM    6  C   UNL     1       7.485  22.621  53.626  1.00  0.00     0.088 A 
HETATM    7  N   UNL     1       6.983  23.670  52.952  1.00  0.00    -0.225 NA
HETATM    8  C   UNL     1       8.164  21.484  55.649  1.00  0.00     0.034 A 
HETATM    9  C   UNL     1       8.545  20.361  54.910  1.00  0.00     0.002 A 
HETATM   10  C   UNL     1       8.396  20.368  53.532  1.00  0.00     0.002 A 
HETATM   11  C   UNL     1       7.872  21.499  52.903  1.00  0.00     0.034 A 
HETATM   12  C   UNL     1       6.100  25.893  55.636  1.00  0.00     0.099 C 
HETATM   13  C   UNL     1       5.459  26.452  54.535  1.00  0.00     0.122 C 
ENDROOT
BRANCH  12  14
HETATM   14  C   UNL     1       6.214  26.465  56.977  1.00  0.00     0.236 C 
HETATM   15  N   UNL     1       5.506  27.647  57.179  1.00  0.00    -0.258 NA
HETATM   16  H   UNL     1       4.688  27.650  56.585  1.00  0.00     0.130 HD
HETATM   17  O   UNL     1       6.944  26.003  57.847  1.00  0.00    -0.274 OA
BRANCH  15  18
HETATM   18  C   UNL     1       6.202  28.899  56.901  1.00  0.00     0.099 C 
BRANCH  18  19
HETATM   19  C   UNL     1       6.940  29.554  58.070  1.00  0.00     0.048 C 
BRANCH  19  20
HETATM   20  C   UNL     1       8.391  29.789  57.695  1.00  0.00    -0.083 C 
HETATM   21  C   UNL     1       9.216  30.654  58.619  1.00  0.00     0.034 C 
HETATM   22  C   UNL     1      10.539  31.124  58.003  1.00  0.00     0.005 C 
HETATM   23  C   UNL     1      11.225  30.006  57.223  1.00  0.00     0.004 C 
HETATM   24  C   UNL     1      10.320  29.472  56.115  1.00  0.00     0.027 C 
HETATM   25  C   UNL     1       8.904  29.267  56.565  1.00  0.00    -0.024 C 
ENDBRANCH  19  20
ENDBRANCH  18  19
ENDBRANCH  15  18
ENDBRANCH  12  14
BRANCH  13  26
HETATM   26  N   UNL     1       4.554  27.477  54.423  1.00  0.00    -0.286 NA
HETATM   27  H   UNL     1       3.626  27.302  54.810  1.00  0.00     0.125 HD
HETATM   28  H   UNL     1       4.417  27.818  53.467  1.00  0.00     0.125 HD
ENDBRANCH  13  26
BRANCH   1  29
HETATM   29  N   UNL     1       6.032  26.587  52.206  1.00  0.00    -0.176 NA
HETATM   30  C   UNL     1       4.955  26.501  51.491  1.00  0.00     0.153 C 
BRANCH  30  31
HETATM   31  C   UNL     1       4.935  27.024  50.103  1.00  0.00     0.016 A 
HETATM   32  C   UNL     1       4.513  26.170  49.079  1.00  0.00     0.016 A 
HETATM   33  C   UNL     1       4.574  26.599  47.749  1.00  0.00     0.001 A 
HETATM   34  C   UNL     1       5.056  27.873  47.443  1.00  0.00     0.003 A 
HETATM   35  C   UNL     1       5.476  28.726  48.462  1.00  0.00     0.037 A 
HETATM   36  C   UNL     1       5.418  28.301  49.787  1.00  0.00     0.077 A 
BRANCH  36  37
HETATM   37  O   UNL     1       5.883  29.175  50.732  1.00  0.00    -0.360 OA
HETATM   38  H   UNL     1       5.241  29.140  51.473  1.00  0.00     0.217 HD
ENDBRANCH  36  37
ENDBRANCH  30  31
ENDBRANCH   1  29
TORSDOF 8
ENDMDL
MODEL 2
REMARK VINA RESULT:     -10.7      1.468      2.073
REMARK  8 active torsions:
REMARK  status: ('A' for Active; 'I' for Inactive)
REMARK    1  A    between atoms: C_3  and  C_4 
REMARK    2  A    between atoms: N_5  and  N_6 
REMARK    3  A    between atoms: C_17  and  C_18 
REMARK       I    between atoms: C_18  and  N_19 
REMARK    4  A    between atoms: N_19  and  C_20 
REMARK    5  A    between atoms: C_20  and  C_21 
REMARK    6  A    between atoms: C_21  and  C_22 
REMARK    7  A    between atoms: C_29  and  N_30 
REMARK    8  A    between atoms: C_31  and  O_32 
ROOT
HETATM    1  N   UNL     1       5.284  26.281  52.981  1.00  0.00    -0.202 N 
HETATM    2  C   UNL     1       6.177  25.339  53.456  1.00  0.00     0.183 A 
HETATM    3  C   UNL     1       6.650  25.814  54.677  1.00  0.00     0.124 A 
HETATM    4  N   UNL     1       7.618  25.144  55.354  1.00  0.00    -0.242 NA
HETATM    5  C   UNL     1       7.999  23.980  54.804  1.00  0.00     0.086 A 
HETATM    6  C   UNL     1       7.474  23.505  53.574  1.00  0.00     0.088 A 
HETATM    7  N   UNL     1       6.572  24.193  52.853  1.00  0.00    -0.225 NA
HETATM    8  C   UNL     1       8.933  23.202  55.478  1.00  0.00     0.034 A 
HETATM    9  C   UNL     1       9.351  21.965  54.982  1.00  0.00     0.002 A 
HETATM   10  C   UNL     1       8.831  21.498  53.785  1.00  0.00     0.002 A 
HETATM   11  C   UNL     1       7.902  22.274  53.090  1.00  0.00     0.034 A 
HETATM   12  C   UNL     1       5.960  27.025  54.981  1.00  0.00     0.099 C 
HETATM   13  C   UNL     1       4.927  27.096  54.052  1.00  0.00     0.122 C 
ENDROOT
BRANCH  12  14
HETATM   14  C   UNL     1       6.299  28.016  56.003  1.00  0.00     0.236 C 
HETATM   15  N   UNL     1       7.057  29.095  55.553  1.00  0.00    -0.258 NA
HETATM   16  H   UNL     1       6.837  29.273  54.583  1.00  0.00     0.130 HD
HETATM   17  O   UNL     1       6.024  27.882  57.190  1.00  0.00    -0.274 OA
BRANCH  15  18
HETATM   18  C   UNL     1       8.509  28.962  55.613  1.00  0.00     0.099 C 
BRANCH  18  19
HETATM   19  C   UNL     1       9.111  28.546  56.956  1.00  0.00     0.048 C 
BRANCH  19  20
HETATM   20  C   UNL     1       9.155  29.740  57.891  1.00  0.00    -0.083 C 
HETATM   21  C   UNL     1       8.009  29.907  58.861  1.00  0.00     0.034 C 
HETATM   22  C   UNL     1       7.950  31.294  59.511  1.00  0.00     0.005 C 
HETATM   23  C   UNL     1       9.337  31.789  59.910  1.00  0.00     0.004 C 
HETATM   24  C   UNL     1      10.271  31.842  58.703  1.00  0.00     0.027 C 
HETATM   25  C   UNL     1      10.167  30.627  57.829  1.00  0.00    -0.024 C 
ENDBRANCH  19  20
ENDBRANCH  18  19
ENDBRANCH  15  18
ENDBRANCH  12  14
BRANCH  13  26
HETATM   26  N   UNL     1       3.810  27.889  53.981  1.00  0.00    -0.286 NA
HETATM   27  H   UNL     1       3.976  28.892  53.892  1.00  0.00     0.125 HD
HETATM   28  H   UNL     1       3.152  27.765  54.756  1.00  0.00     0.125 HD
ENDBRANCH  13  26
BRANCH   1  29
HETATM   29  N   UNL     1       4.788  26.539  51.720  1.00  0.00    -0.176 NA
HETATM   30  C   UNL     1       5.568  27.187  50.914  1.00  0.00     0.153 C 
BRANCH  30  31
HETATM   31  C   UNL     1       5.050  27.703  49.624  1.00  0.00     0.016 A 
HETATM   32  C   UNL     1       5.431  28.987  49.222  1.00  0.00     0.016 A 
HETATM   33  C   UNL     1       4.885  29.541  48.060  1.00  0.00     0.001 A 
HETATM   34  C   UNL     1       3.959  28.819  47.305  1.00  0.00     0.003 A 
HETATM   35  C   UNL     1       3.578  27.539  47.703  1.00  0.00     0.037 A 
HETATM   36  C   UNL     1       4.120  26.985  48.860  1.00  0.00     0.077 A 
BRANCH  36  37
HETATM   37  O   UNL     1       3.670  25.741  49.212  1.00  0.00    -0.360 OA
HETATM   38  H   UNL     1       2.719  25.718  48.971  1.00  0.00     0.217 HD
ENDBRANCH  36  37
ENDBRANCH  30  31
ENDBRANCH   1  29
TORSDOF 8
ENDMDL
MODEL 3
REMARK VINA RESULT:     -10.7      2.288      3.098
REMARK  8 active torsions:
REMARK  status: ('A' for Active; 'I' for Inactive)
REMARK    1  A    between atoms: C_3  and  C_4 
REMARK    2  A    between atoms: N_5  and  N_6 
REMARK    3  A    between atoms: C_17  and  C_18 
REMARK       I    between atoms: C_18  and  N_19 
REMARK    4  A    between atoms: N_19  and  C_20 
REMARK    5  A    between atoms: C_20  and  C_21 
REMARK    6  A    between atoms: C_21  and  C_22 
REMARK    7  A    between atoms: C_29  and  N_30 
REMARK    8  A    between atoms: C_31  and  O_32 
ROOT
HETATM    1  N   UNL     1       7.020  27.430  54.328  1.00  0.00    -0.202 N 
HETATM    2  C   UNL     1       7.312  26.194  54.874  1.00  0.00     0.183 A 
HETATM    3  C   UNL     1       7.929  26.431  56.100  1.00  0.00     0.124 A 
HETATM    4  N   UNL     1       8.416  25.403  56.842  1.00  0.00    -0.242 NA
HETATM    5  C   UNL     1       8.177  24.178  56.348  1.00  0.00     0.086 A 
HETATM    6  C   UNL     1       7.514  23.966  55.111  1.00  0.00     0.088 A 
HETATM    7  N   UNL     1       7.094  24.974  54.328  1.00  0.00    -0.225 NA
HETATM    8  C   UNL     1       8.580  23.073  57.089  1.00  0.00     0.034 A 
HETATM    9  C   UNL     1       8.335  21.769  56.653  1.00  0.00     0.002 A 
HETATM   10  C   UNL     1       7.679  21.563  55.448  1.00  0.00     0.002 A 
HETATM   11  C   UNL     1       7.279  22.663  54.687  1.00  0.00     0.034 A 
HETATM   12  C   UNL     1       7.931  27.839  56.333  1.00  0.00     0.099 C 
HETATM   13  C   UNL     1       7.094  28.368  55.355  1.00  0.00     0.122 C 
ENDROOT
BRANCH  12  14
HETATM   14  C   UNL     1       8.697  28.579  57.335  1.00  0.00     0.236 C 
HETATM   15  N   UNL     1       7.989  28.930  58.482  1.00  0.00    -0.258 NA
HETATM   16  H   UNL     1       7.271  28.239  58.654  1.00  0.00     0.130 HD
HETATM   17  O   UNL     1       9.852  28.950  57.162  1.00  0.00    -0.274 OA
BRANCH  15  18
HETATM   18  C   UNL     1       7.304  30.219  58.475  1.00  0.00     0.099 C 
BRANCH  18  19
HETATM   19  C   UNL     1       8.136  31.446  58.853  1.00  0.00     0.048 C 
BRANCH  19  20
HETATM   20  C   UNL     1       8.019  31.707  60.342  1.00  0.00    -0.083 C 
HETATM   21  C   UNL     1       8.880  30.875  61.263  1.00  0.00     0.034 C 
HETATM   22  C   UNL     1       8.457  30.949  62.735  1.00  0.00     0.005 C 
HETATM   23  C   UNL     1       8.093  32.373  63.145  1.00  0.00     0.004 C 
HETATM   24  C   UNL     1       6.968  32.926  62.273  1.00  0.00     0.027 C 
HETATM   25  C   UNL     1       7.156  32.626  60.816  1.00  0.00    -0.024 C 
ENDBRANCH  19  20
ENDBRANCH  18  19
ENDBRANCH  15  18
ENDBRANCH  12  14
BRANCH  13  26
HETATM   26  N   UNL     1       6.526  29.607  55.207  1.00  0.00    -0.286 NA
HETATM   27  H   UNL     1       5.848  29.704  54.449  1.00  0.00     0.125 HD
HETATM   28  H   UNL     1       7.199  30.372  55.102  1.00  0.00     0.125 HD
ENDBRANCH  13  26
BRANCH   1  29
HETATM   29  N   UNL     1       6.750  27.836  53.038  1.00  0.00    -0.176 NA
HETATM   30  C   UNL     1       5.608  27.471  52.546  1.00  0.00     0.153 C 
BRANCH  30  31
HETATM   31  C   UNL     1       5.319  27.664  51.105  1.00  0.00     0.016 A 
HETATM   32  C   UNL     1       4.896  26.559  50.358  1.00  0.00     0.016 A 
HETATM   33  C   UNL     1       4.708  26.685  48.978  1.00  0.00     0.001 A 
HETATM   34  C   UNL     1       4.943  27.907  48.345  1.00  0.00     0.003 A 
HETATM   35  C   UNL     1       5.364  29.010  49.087  1.00  0.00     0.037 A 
HETATM   36  C   UNL     1       5.553  28.887  50.461  1.00  0.00     0.077 A 
BRANCH  36  37
HETATM   37  O   UNL     1       6.004  29.999  51.119  1.00  0.00    -0.360 OA
HETATM   38  H   UNL     1       6.873  29.753  51.504  1.00  0.00     0.217 HD
ENDBRANCH  36  37
ENDBRANCH  30  31
ENDBRANCH   1  29
TORSDOF 8
ENDMDL
MODEL 4
REMARK VINA RESULT:     -10.6      1.992      6.354
REMARK  8 active torsions:
REMARK  status: ('A' for Active; 'I' for Inactive)
REMARK    1  A    between atoms: C_3  and  C_4 
REMARK    2  A    between atoms: N_5  and  N_6 
REMARK    3  A    between atoms: C_17  and  C_18 
REMARK       I    between atoms: C_18  and  N_19 
REMARK    4  A    between atoms: N_19  and  C_20 
REMARK    5  A    between atoms: C_20  and  C_21 
REMARK    6  A    between atoms: C_21  and  C_22 
REMARK    7  A    between atoms: C_29  and  N_30 
REMARK    8  A    between atoms: C_31  and  O_32 
ROOT
HETATM    1  N   UNL     1       6.077  27.000  51.927  1.00  0.00    -0.202 N 
HETATM    2  C   UNL     1       5.137  27.131  50.921  1.00  0.00     0.183 A 
HETATM    3  C   UNL     1       4.362  28.244  51.238  1.00  0.00     0.124 A 
HETATM    4  N   UNL     1       3.289  28.582  50.477  1.00  0.00    -0.242 NA
HETATM    5  C   UNL     1       3.105  27.827  49.383  1.00  0.00     0.086 A 
HETATM    6  C   UNL     1       3.933  26.718  49.067  1.00  0.00     0.088 A 
HETATM    7  N   UNL     1       4.951  26.324  49.850  1.00  0.00    -0.225 NA
HETATM    8  C   UNL     1       2.070  28.158  48.515  1.00  0.00     0.034 A 
HETATM    9  C   UNL     1       1.840  27.437  47.341  1.00  0.00     0.002 A 
HETATM   10  C   UNL     1       2.655  26.360  47.029  1.00  0.00     0.002 A 
HETATM   11  C   UNL     1       3.690  26.008  47.897  1.00  0.00     0.034 A 
HETATM   12  C   UNL     1       4.903  28.844  52.414  1.00  0.00     0.099 C 
HETATM   13  C   UNL     1       6.126  28.212  52.612  1.00  0.00     0.122 C 
ENDROOT
BRANCH  12  14
HETATM   14  C   UNL     1       4.282  29.855  53.270  1.00  0.00     0.236 C 
HETATM   15  N   UNL     1       4.838  29.979  54.540  1.00  0.00    -0.258 NA
HETATM   16  H   UNL     1       5.818  29.738  54.499  1.00  0.00     0.130 HD
HETATM   17  O   UNL     1       3.289  30.496  52.943  1.00  0.00    -0.274 OA
BRANCH  15  18
HETATM   18  C   UNL     1       4.270  29.152  55.601  1.00  0.00     0.099 C 
BRANCH  18  19
HETATM   19  C   UNL     1       4.727  29.450  57.030  1.00  0.00     0.048 C 
BRANCH  19  20
HETATM   20  C   UNL     1       6.191  29.085  57.187  1.00  0.00    -0.083 C 
HETATM   21  C   UNL     1       6.598  27.675  56.828  1.00  0.00     0.034 C 
HETATM   22  C   UNL     1       7.991  27.289  57.338  1.00  0.00     0.005 C 
HETATM   23  C   UNL     1       8.995  28.422  57.147  1.00  0.00     0.004 C 
HETATM   24  C   UNL     1       8.535  29.690  57.863  1.00  0.00     0.027 C 
HETATM   25  C   UNL     1       7.078  29.981  57.659  1.00  0.00    -0.024 C 
ENDBRANCH  19  20
ENDBRANCH  18  19
ENDBRANCH  15  18
ENDBRANCH  12  14
BRANCH  13  26
HETATM   26  N   UNL     1       7.191  28.508  53.425  1.00  0.00    -0.286 NA
HETATM   27  H   UNL     1       8.019  27.921  53.312  1.00  0.00     0.125 HD
HETATM   28  H   UNL     1       6.970  28.519  54.425  1.00  0.00     0.125 HD
ENDBRANCH  13  26
BRANCH   1  29
HETATM   29  N   UNL     1       6.852  25.938  52.342  1.00  0.00    -0.176 NA
HETATM   30  C   UNL     1       6.228  24.958  52.916  1.00  0.00     0.153 C 
BRANCH  30  31
HETATM   31  C   UNL     1       6.989  23.880  53.591  1.00  0.00     0.016 A 
HETATM   32  C   UNL     1       7.706  22.977  52.799  1.00  0.00     0.016 A 
HETATM   33  C   UNL     1       8.355  21.892  53.397  1.00  0.00     0.001 A 
HETATM   34  C   UNL     1       8.288  21.708  54.779  1.00  0.00     0.003 A 
HETATM   35  C   UNL     1       7.575  22.607  55.571  1.00  0.00     0.037 A 
HETATM   36  C   UNL     1       6.927  23.687  54.978  1.00  0.00     0.077 A 
BRANCH  36  37
HETATM   37  O   UNL     1       6.214  24.506  55.812  1.00  0.00    -0.360 OA
HETATM   38  H   UNL     1       6.499  24.279  56.723  1.00  0.00     0.217 HD
ENDBRANCH  36  37
ENDBRANCH  30  31
ENDBRANCH   1  29
TORSDOF 8
ENDMDL
MODEL 5
REMARK VINA RESULT:     -10.4      1.806      8.312
REMARK  8 active torsions:
REMARK  status: ('A' for Active; 'I' for Inactive)
REMARK    1  A    between atoms: C_3  and  C_4 
REMARK    2  A    between atoms: N_5  and  N_6 
REMARK    3  A    between atoms: C_17  and  C_18 
REMARK       I    between atoms: C_18  and  N_19 
REMARK    4  A    between atoms: N_19  and  C_20 
REMARK    5  A    between atoms: C_20  and  C_21 
REMARK    6  A    between atoms: C_21  and  C_22 
REMARK    7  A    between atoms: C_29  and  N_30 
REMARK    8  A    between atoms: C_31  and  O_32 
ROOT
HETATM    1  N   UNL     1       6.057  25.832  54.176  1.00  0.00    -0.202 N 
HETATM    2  C   UNL     1       6.313  26.885  55.036  1.00  0.00     0.183 A 
HETATM    3  C   UNL     1       5.486  27.935  54.642  1.00  0.00     0.124 A 
HETATM    4  N   UNL     1       5.571  29.148  55.246  1.00  0.00    -0.242 NA
HETATM    5  C   UNL     1       6.428  29.215  56.277  1.00  0.00     0.086 A 
HETATM    6  C   UNL     1       7.233  28.116  56.677  1.00  0.00     0.088 A 
HETATM    7  N   UNL     1       7.217  26.933  56.042  1.00  0.00    -0.225 NA
HETATM    8  C   UNL     1       6.515  30.404  56.993  1.00  0.00     0.034 A 
HETATM    9  C   UNL     1       7.360  30.535  58.097  1.00  0.00     0.002 A 
HETATM   10  C   UNL     1       8.140  29.458  58.492  1.00  0.00     0.002 A 
HETATM   11  C   UNL     1       8.072  28.262  57.776  1.00  0.00     0.034 A 
HETATM   12  C   UNL     1       4.655  27.473  53.579  1.00  0.00     0.099 C 
HETATM   13  C   UNL     1       4.844  26.095  53.544  1.00  0.00     0.122 C 
ENDROOT
BRANCH  12  14
HETATM   14  C   UNL     1       3.833  28.275  52.673  1.00  0.00     0.236 C 
HETATM   15  N   UNL     1       3.896  27.906  51.332  1.00  0.00    -0.258 NA
HETATM   16  H   UNL     1       4.077  26.914  51.269  1.00  0.00     0.130 HD
HETATM   17  O   UNL     1       3.198  29.260  53.033  1.00  0.00    -0.274 OA
BRANCH  15  18
HETATM   18  C   UNL     1       4.915  28.549  50.508  1.00  0.00     0.099 C 
BRANCH  18  19
HETATM   19  C   UNL     1       5.304  27.840  49.210  1.00  0.00     0.048 C 
BRANCH  19  20
HETATM   20  C   UNL     1       4.060  27.532  48.400  1.00  0.00    -0.083 C 
HETATM   21  C   UNL     1       3.719  26.078  48.174  1.00  0.00     0.034 C 
HETATM   22  C   UNL     1       2.673  25.855  47.075  1.00  0.00     0.005 C 
HETATM   23  C   UNL     1       1.543  26.877  47.157  1.00  0.00     0.004 C 
HETATM   24  C   UNL     1       2.082  28.302  47.052  1.00  0.00     0.027 C 
HETATM   25  C   UNL     1       3.312  28.525  47.881  1.00  0.00    -0.024 C 
ENDBRANCH  19  20
ENDBRANCH  18  19
ENDBRANCH  15  18
ENDBRANCH  12  14
BRANCH  13  26
HETATM   26  N   UNL     1       4.160  25.091  52.908  1.00  0.00    -0.286 NA
HETATM   27  H   UNL     1       4.726  24.431  52.372  1.00  0.00     0.125 HD
HETATM   28  H   UNL     1       3.414  25.416  52.285  1.00  0.00     0.125 HD
ENDBRANCH  13  26
BRANCH   1  29
HETATM   29  N   UNL     1       6.779  24.704  53.848  1.00  0.00    -0.176 NA
HETATM   30  C   UNL     1       6.714  23.714  54.681  1.00  0.00     0.153 C 
BRANCH  30  31
HETATM   31  C   UNL     1       7.621  22.551  54.533  1.00  0.00     0.016 A 
HETATM   32  C   UNL     1       7.686  21.914  53.290  1.00  0.00     0.016 A 
HETATM   33  C   UNL     1       8.457  20.758  53.142  1.00  0.00     0.001 A 
HETATM   34  C   UNL     1       9.158  20.236  54.231  1.00  0.00     0.003 A 
HETATM   35  C   UNL     1       9.096  20.869  55.471  1.00  0.00     0.037 A 
HETATM   36  C   UNL     1       8.328  22.021  55.621  1.00  0.00     0.077 A 
BRANCH  36  37
HETATM   37  O   UNL     1       8.281  22.567  56.875  1.00  0.00    -0.360 OA
HETATM   38  H   UNL     1       7.833  23.435  56.777  1.00  0.00     0.217 HD
ENDBRANCH  36  37
ENDBRANCH  30  31
ENDBRANCH   1  29
TORSDOF 8
ENDMDL
MODEL 6
REMARK VINA RESULT:     -10.4      2.210      6.426
REMARK  8 active torsions:
REMARK  status: ('A' for Active; 'I' for Inactive)
REMARK    1  A    between atoms: C_3  and  C_4 
REMARK    2  A    between atoms: N_5  and  N_6 
REMARK    3  A    between atoms: C_17  and  C_18 
REMARK       I    between atoms: C_18  and  N_19 
REMARK    4  A    between atoms: N_19  and  C_20 
REMARK    5  A    between atoms: C_20  and  C_21 
REMARK    6  A    between atoms: C_21  and  C_22 
REMARK    7  A    between atoms: C_29  and  N_30 
REMARK    8  A    between atoms: C_31  and  O_32 
ROOT
HETATM    1  N   UNL     1       7.077  26.105  55.422  1.00  0.00    -0.202 N 
HETATM    2  C   UNL     1       6.505  26.735  54.333  1.00  0.00     0.183 A 
HETATM    3  C   UNL     1       6.165  28.022  54.745  1.00  0.00     0.124 A 
HETATM    4  N   UNL     1       5.499  28.864  53.914  1.00  0.00    -0.242 NA
HETATM    5  C   UNL     1       5.285  28.393  52.675  1.00  0.00     0.086 A 
HETATM    6  C   UNL     1       5.674  27.088  52.272  1.00  0.00     0.088 A 
HETATM    7  N   UNL     1       6.265  26.215  53.106  1.00  0.00    -0.225 NA
HETATM    8  C   UNL     1       4.674  29.225  51.744  1.00  0.00     0.034 A 
HETATM    9  C   UNL     1       4.450  28.815  50.428  1.00  0.00     0.002 A 
HETATM   10  C   UNL     1       4.838  27.543  50.034  1.00  0.00     0.002 A 
HETATM   11  C   UNL     1       5.442  26.691  50.961  1.00  0.00     0.034 A 
HETATM   12  C   UNL     1       6.621  28.195  56.086  1.00  0.00     0.099 C 
HETATM   13  C   UNL     1       7.434  27.094  56.336  1.00  0.00     0.122 C 
ENDROOT
BRANCH  12  14
HETATM   14  C   UNL     1       6.263  29.260  57.022  1.00  0.00     0.236 C 
HETATM   15  N   UNL     1       7.272  30.183  57.285  1.00  0.00    -0.258 NA
HETATM   16  H   UNL     1       7.867  30.264  56.473  1.00  0.00     0.130 HD
HETATM   17  O   UNL     1       5.189  29.305  57.612  1.00  0.00    -0.274 OA
BRANCH  15  18
HETATM   18  C   UNL     1       8.164  29.896  58.404  1.00  0.00     0.099 C 
BRANCH  18  19
HETATM   19  C   UNL     1       9.053  31.042  58.890  1.00  0.00     0.048 C 
BRANCH  19  20
HETATM   20  C   UNL     1       8.639  31.455  60.290  1.00  0.00    -0.083 C 
HETATM   21  C   UNL     1       9.150  30.619  61.441  1.00  0.00     0.034 C 
HETATM   22  C   UNL     1       8.419  30.881  62.762  1.00  0.00     0.005 C 
HETATM   23  C   UNL     1       8.167  32.370  62.981  1.00  0.00     0.004 C 
HETATM   24  C   UNL     1       7.353  32.965  61.834  1.00  0.00     0.027 C 
HETATM   25  C   UNL     1       7.824  32.508  60.486  1.00  0.00    -0.024 C 
ENDBRANCH  19  20
ENDBRANCH  18  19
ENDBRANCH  15  18
ENDBRANCH  12  14
BRANCH  13  26
HETATM   26  N   UNL     1       8.324  26.820  57.343  1.00  0.00    -0.286 NA
HETATM   27  H   UNL     1       9.282  26.617  57.054  1.00  0.00     0.125 HD
HETATM   28  H   UNL     1       8.036  26.062  57.969  1.00  0.00     0.125 HD
ENDBRANCH  13  26
BRANCH   1  29
HETATM   29  N   UNL     1       7.275  24.775  55.728  1.00  0.00    -0.176 NA
HETATM   30  C   UNL     1       8.182  24.154  55.042  1.00  0.00     0.153 C 
BRANCH  30  31
HETATM   31  C   UNL     1       8.315  22.681  55.140  1.00  0.00     0.016 A 
HETATM   32  C   UNL     1       8.302  21.933  53.957  1.00  0.00     0.016 A 
HETATM   33  C   UNL     1       8.328  20.537  54.019  1.00  0.00     0.001 A 
HETATM   34  C   UNL     1       8.364  19.888  55.255  1.00  0.00     0.003 A 
HETATM   35  C   UNL     1       8.378  20.630  56.434  1.00  0.00     0.037 A 
HETATM   36  C   UNL     1       8.352  22.021  56.376  1.00  0.00     0.077 A 
BRANCH  36  37
HETATM   37  O   UNL     1       8.328  22.684  57.573  1.00  0.00    -0.360 OA
HETATM   38  H   UNL     1       8.250  21.992  58.265  1.00  0.00     0.217 HD
ENDBRANCH  36  37
ENDBRANCH  30  31
ENDBRANCH   1  29
TORSDOF 8
ENDMDL
MODEL 7
REMARK VINA RESULT:     -10.2      1.945      5.996
REMARK  8 active torsions:
REMARK  status: ('A' for Active; 'I' for Inactive)
REMARK    1  A    between atoms: C_3  and  C_4 
REMARK    2  A    between atoms: N_5  and  N_6 
REMARK    3  A    between atoms: C_17  and  C_18 
REMARK       I    between atoms: C_18  and  N_19 
REMARK    4  A    between atoms: N_19  and  C_20 
REMARK    5  A    between atoms: C_20  and  C_21 
REMARK    6  A    between atoms: C_21  and  C_22 
REMARK    7  A    between atoms: C_29  and  N_30 
REMARK    8  A    between atoms: C_31  and  O_32 
ROOT
HETATM    1  N   UNL     1       7.015  26.196  54.015  1.00  0.00    -0.202 N 
HETATM    2  C   UNL     1       6.169  26.787  53.094  1.00  0.00     0.183 A 
HETATM    3  C   UNL     1       5.394  27.709  53.794  1.00  0.00     0.124 A 
HETATM    4  N   UNL     1       4.400  28.394  53.173  1.00  0.00    -0.242 NA
HETATM    5  C   UNL     1       4.295  28.175  51.853  1.00  0.00     0.086 A 
HETATM    6  C   UNL     1       5.123  27.254  51.159  1.00  0.00     0.088 A 
HETATM    7  N   UNL     1       6.060  26.513  51.773  1.00  0.00    -0.225 NA
HETATM    8  C   UNL     1       3.348  28.896  51.134  1.00  0.00     0.034 A 
HETATM    9  C   UNL     1       3.205  28.745  49.753  1.00  0.00     0.002 A 
HETATM   10  C   UNL     1       4.020  27.851  49.075  1.00  0.00     0.002 A 
HETATM   11  C   UNL     1       4.967  27.112  49.785  1.00  0.00     0.034 A 
HETATM   12  C   UNL     1       5.844  27.732  55.148  1.00  0.00     0.099 C 
HETATM   13  C   UNL     1       7.031  27.006  55.147  1.00  0.00     0.122 C 
ENDROOT
BRANCH  12  14
HETATM   14  C   UNL     1       5.174  28.328  56.304  1.00  0.00     0.236 C 
HETATM   15  N   UNL     1       4.649  29.601  56.094  1.00  0.00    -0.258 NA
HETATM   16  H   UNL     1       4.384  29.694  55.123  1.00  0.00     0.130 HD
HETATM   17  O   UNL     1       5.143  27.801  57.410  1.00  0.00    -0.274 OA
BRANCH  15  18
HETATM   18  C   UNL     1       5.519  30.737  56.378  1.00  0.00     0.099 C 
BRANCH  18  19
HETATM   19  C   UNL     1       5.425  31.347  57.778  1.00  0.00     0.048 C 
BRANCH  19  20
HETATM   20  C   UNL     1       6.767  31.241  58.476  1.00  0.00    -0.083 C 
HETATM   21  C   UNL     1       7.024  32.176  59.634  1.00  0.00     0.034 C 
HETATM   22  C   UNL     1       8.498  32.250  60.050  1.00  0.00     0.005 C 
HETATM   23  C   UNL     1       9.153  30.871  60.050  1.00  0.00     0.004 C 
HETATM   24  C   UNL     1       9.054  30.215  58.675  1.00  0.00     0.027 C 
HETATM   25  C   UNL     1       7.698  30.364  58.052  1.00  0.00    -0.024 C 
ENDBRANCH  19  20
ENDBRANCH  18  19
ENDBRANCH  15  18
ENDBRANCH  12  14
BRANCH  13  26
HETATM   26  N   UNL     1       8.027  26.876  56.081  1.00  0.00    -0.286 NA
HETATM   27  H   UNL     1       7.738  26.933  57.058  1.00  0.00     0.125 HD
HETATM   28  H   UNL     1       8.807  27.530  55.964  1.00  0.00     0.125 HD
ENDBRANCH  13  26
BRANCH   1  29
HETATM   29  N   UNL     1       7.727  25.015  53.998  1.00  0.00    -0.176 NA
HETATM   30  C   UNL     1       7.031  23.922  54.008  1.00  0.00     0.153 C 
BRANCH  30  31
HETATM   31  C   UNL     1       7.698  22.614  54.215  1.00  0.00     0.016 A 
HETATM   32  C   UNL     1       7.800  21.741  53.126  1.00  0.00     0.016 A 
HETATM   33  C   UNL     1       8.336  20.463  53.309  1.00  0.00     0.001 A 
HETATM   34  C   UNL     1       8.765  20.055  54.573  1.00  0.00     0.003 A 
HETATM   35  C   UNL     1       8.665  20.922  55.660  1.00  0.00     0.037 A 
HETATM   36  C   UNL     1       8.131  22.195  55.480  1.00  0.00     0.077 A 
BRANCH  36  37
HETATM   37  O   UNL     1       8.027  22.979  56.598  1.00  0.00    -0.360 OA
HETATM   38  H   UNL     1       8.135  22.374  57.364  1.00  0.00     0.217 HD
ENDBRANCH  36  37
ENDBRANCH  30  31
ENDBRANCH   1  29
TORSDOF 8
ENDMDL
MODEL 8
REMARK VINA RESULT:     -10.0      4.409      6.634
REMARK  8 active torsions:
REMARK  status: ('A' for Active; 'I' for Inactive)
REMARK    1  A    between atoms: C_3  and  C_4 
REMARK    2  A    between atoms: N_5  and  N_6 
REMARK    3  A    between atoms: C_17  and  C_18 
REMARK       I    between atoms: C_18  and  N_19 
REMARK    4  A    between atoms: N_19  and  C_20 
REMARK    5  A    between atoms: C_20  and  C_21 
REMARK    6  A    between atoms: C_21  and  C_22 
REMARK    7  A    between atoms: C_29  and  N_30 
REMARK    8  A    between atoms: C_31  and  O_32 
ROOT
HETATM    1  N   UNL     1       5.900  30.888  56.957  1.00  0.00    -0.202 N 
HETATM    2  C   UNL     1       6.219  29.544  57.021  1.00  0.00     0.183 A 
HETATM    3  C   UNL     1       7.294  29.427  57.898  1.00  0.00     0.124 A 
HETATM    4  N   UNL     1       7.896  28.227  58.102  1.00  0.00    -0.242 NA
HETATM    5  C   UNL     1       7.323  27.187  57.475  1.00  0.00     0.086 A 
HETATM    6  C   UNL     1       6.205  27.332  56.613  1.00  0.00     0.088 A 
HETATM    7  N   UNL     1       5.646  28.523  56.340  1.00  0.00    -0.225 NA
HETATM    8  C   UNL     1       7.838  25.914  57.695  1.00  0.00     0.034 A 
HETATM    9  C   UNL     1       7.273  24.782  57.103  1.00  0.00     0.002 A 
HETATM   10  C   UNL     1       6.175  24.924  56.268  1.00  0.00     0.002 A 
HETATM   11  C   UNL     1       5.655  26.197  56.028  1.00  0.00     0.034 A 
HETATM   12  C   UNL     1       7.571  30.718  58.437  1.00  0.00     0.099 C 
HETATM   13  C   UNL     1       6.494  31.510  58.052  1.00  0.00     0.122 C 
ENDROOT
BRANCH  12  14
HETATM   14  C   UNL     1       8.760  31.143  59.177  1.00  0.00     0.236 C 
HETATM   15  N   UNL     1       9.131  30.311  60.230  1.00  0.00    -0.258 NA
HETATM   16  H   UNL     1       8.855  29.363  60.017  1.00  0.00     0.130 HD
HETATM   17  O   UNL     1       9.348  32.196  58.959  1.00  0.00    -0.274 OA
BRANCH  15  18
HETATM   18  C   UNL     1       8.565  30.603  61.543  1.00  0.00     0.099 C 
BRANCH  18  19
HETATM   19  C   UNL     1       8.922  31.954  62.165  1.00  0.00     0.048 C 
BRANCH  19  20
HETATM   20  C   UNL     1       7.723  32.509  62.910  1.00  0.00    -0.083 C 
HETATM   21  C   UNL     1       6.387  32.471  62.205  1.00  0.00     0.034 C 
HETATM   22  C   UNL     1       5.318  33.351  62.864  1.00  0.00     0.005 C 
HETATM   23  C   UNL     1       5.357  33.239  64.385  1.00  0.00     0.004 C 
HETATM   24  C   UNL     1       6.729  33.627  64.931  1.00  0.00     0.027 C 
HETATM   25  C   UNL     1       7.860  33.040  64.140  1.00  0.00    -0.024 C 
ENDBRANCH  19  20
ENDBRANCH  18  19
ENDBRANCH  15  18
ENDBRANCH  12  14
BRANCH  13  26
HETATM   26  N   UNL     1       6.080  32.754  58.453  1.00  0.00    -0.286 NA
HETATM   27  H   UNL     1       5.108  32.829  58.757  1.00  0.00     0.125 HD
HETATM   28  H   UNL     1       6.232  33.495  57.761  1.00  0.00     0.125 HD
ENDBRANCH  13  26
BRANCH   1  29
HETATM   29  N   UNL     1       5.198  31.633  56.033  1.00  0.00    -0.176 NA
HETATM   30  C   UNL     1       3.913  31.471  56.017  1.00  0.00     0.153 C 
BRANCH  30  31
HETATM   31  C   UNL     1       3.099  32.054  54.923  1.00  0.00     0.016 A 
HETATM   32  C   UNL     1       1.929  32.742  55.260  1.00  0.00     0.016 A 
HETATM   33  C   UNL     1       1.089  33.220  54.250  1.00  0.00     0.001 A 
HETATM   34  C   UNL     1       1.413  33.010  52.908  1.00  0.00     0.003 A 
HETATM   35  C   UNL     1       2.579  32.325  52.569  1.00  0.00     0.037 A 
HETATM   36  C   UNL     1       3.417  31.847  53.574  1.00  0.00     0.077 A 
BRANCH  36  37
HETATM   37  O   UNL     1       4.523  31.150  53.169  1.00  0.00    -0.360 OA
HETATM   38  H   UNL     1       4.258  30.205  53.154  1.00  0.00     0.217 HD
ENDBRANCH  36  37
ENDBRANCH  30  31
ENDBRANCH   1  29
TORSDOF 8
ENDMDL
MODEL 9
REMARK VINA RESULT:      -9.8      2.452      8.482
REMARK  8 active torsions:
REMARK  status: ('A' for Active; 'I' for Inactive)
REMARK    1  A    between atoms: C_3  and  C_4 
REMARK    2  A    between atoms: N_5  and  N_6 
REMARK    3  A    between atoms: C_17  and  C_18 
REMARK       I    between atoms: C_18  and  N_19 
REMARK    4  A    between atoms: N_19  and  C_20 
REMARK    5  A    between atoms: C_20  and  C_21 
REMARK    6  A    between atoms: C_21  and  C_22 
REMARK    7  A    between atoms: C_29  and  N_30 
REMARK    8  A    between atoms: C_31  and  O_32 
ROOT
HETATM    1  N   UNL     1       4.978  28.296  54.634  1.00  0.00    -0.202 N 
HETATM    2  C   UNL     1       4.322  28.961  53.615  1.00  0.00     0.183 A 
HETATM    3  C   UNL     1       4.209  28.062  52.556  1.00  0.00     0.124 A 
HETATM    4  N   UNL     1       3.681  28.453  51.368  1.00  0.00    -0.242 NA
HETATM    5  C   UNL     1       3.214  29.711  51.337  1.00  0.00     0.086 A 
HETATM    6  C   UNL     1       3.312  30.594  52.444  1.00  0.00     0.088 A 
HETATM    7  N   UNL     1       3.900  30.247  53.601  1.00  0.00    -0.225 NA
HETATM    8  C   UNL     1       2.593  30.160  50.177  1.00  0.00     0.034 A 
HETATM    9  C   UNL     1       2.054  31.445  50.083  1.00  0.00     0.002 A 
HETATM   10  C   UNL     1       2.142  32.303  51.169  1.00  0.00     0.002 A 
HETATM   11  C   UNL     1       2.775  31.871  52.336  1.00  0.00     0.034 A 
HETATM   12  C   UNL     1       4.733  26.805  52.982  1.00  0.00     0.099 C 
HETATM   13  C   UNL     1       4.910  26.933  54.355  1.00  0.00     0.122 C 
ENDROOT
BRANCH  12  14
HETATM   14  C   UNL     1       5.076  25.651  52.150  1.00  0.00     0.236 C 
HETATM   15  N   UNL     1       5.783  24.643  52.798  1.00  0.00    -0.258 NA
HETATM   16  H   UNL     1       5.526  24.632  53.775  1.00  0.00     0.130 HD
HETATM   17  O   UNL     1       4.844  25.595  50.947  1.00  0.00    -0.274 OA
BRANCH  15  18
HETATM   18  C   UNL     1       7.240  24.727  52.773  1.00  0.00     0.099 C 
BRANCH  18  19
HETATM   19  C   UNL     1       7.974  24.410  54.077  1.00  0.00     0.048 C 
BRANCH  19  20
HETATM   20  C   UNL     1       8.018  22.908  54.290  1.00  0.00    -0.083 C 
HETATM   21  C   UNL     1       8.299  22.044  53.083  1.00  0.00     0.034 C 
HETATM   22  C   UNL     1       7.984  20.560  53.304  1.00  0.00     0.005 C 
HETATM   23  C   UNL     1       8.443  20.085  54.679  1.00  0.00     0.004 C 
HETATM   24  C   UNL     1       7.790  20.904  55.790  1.00  0.00     0.027 C 
HETATM   25  C   UNL     1       7.785  22.377  55.505  1.00  0.00    -0.024 C 
ENDBRANCH  19  20
ENDBRANCH  18  19
ENDBRANCH  15  18
ENDBRANCH  12  14
BRANCH  13  26
HETATM   26  N   UNL     1       5.158  26.009  55.338  1.00  0.00    -0.286 NA
HETATM   27  H   UNL     1       4.681  25.112  55.243  1.00  0.00     0.125 HD
HETATM   28  H   UNL     1       4.974  26.342  56.289  1.00  0.00     0.125 HD
ENDBRANCH  13  26
BRANCH   1  29
HETATM   29  N   UNL     1       5.667  28.742  55.743  1.00  0.00    -0.176 NA
HETATM   30  C   UNL     1       6.793  29.341  55.520  1.00  0.00     0.153 C 
BRANCH  30  31
HETATM   31  C   UNL     1       7.708  29.657  56.643  1.00  0.00     0.016 A 
HETATM   32  C   UNL     1       9.085  29.540  56.431  1.00  0.00     0.016 A 
HETATM   33  C   UNL     1       9.971  29.737  57.495  1.00  0.00     0.001 A 
HETATM   34  C   UNL     1       9.484  30.046  58.767  1.00  0.00     0.003 A 
HETATM   35  C   UNL     1       8.112  30.164  58.981  1.00  0.00     0.037 A 
HETATM   36  C   UNL     1       7.228  29.968  57.923  1.00  0.00     0.077 A 
BRANCH  36  37
HETATM   37  O   UNL     1       5.894  30.061  58.214  1.00  0.00    -0.360 OA
HETATM   38  H   UNL     1       5.661  29.232  58.687  1.00  0.00     0.217 HD
ENDBRANCH  36  37
ENDBRANCH  30  31
ENDBRANCH   1  29
TORSDOF 8
ENDMDL
MODEL 10
REMARK VINA RESULT:      -9.7      2.035      7.461
REMARK  8 active torsions:
REMARK  status: ('A' for Active; 'I' for Inactive)
REMARK    1  A    between atoms: C_3  and  C_4 
REMARK    2  A    between atoms: N_5  and  N_6 
REMARK    3  A    between atoms: C_17  and  C_18 
REMARK       I    between atoms: C_18  and  N_19 
REMARK    4  A    between atoms: N_19  and  C_20 
REMARK    5  A    between atoms: C_20  and  C_21 
REMARK    6  A    between atoms: C_21  and  C_22 
REMARK    7  A    between atoms: C_29  and  N_30 
REMARK    8  A    between atoms: C_31  and  O_32 
ROOT
HETATM    1  N   UNL     1       7.356  26.620  54.936  1.00  0.00    -0.202 N 
HETATM    2  C   UNL     1       7.505  25.255  55.098  1.00  0.00     0.183 A 
HETATM    3  C   UNL     1       6.947  24.654  53.972  1.00  0.00     0.124 A 
HETATM    4  N   UNL     1       6.862  23.302  53.878  1.00  0.00    -0.242 NA
HETATM    5  C   UNL     1       7.424  22.622  54.890  1.00  0.00     0.086 A 
HETATM    6  C   UNL     1       8.016  23.263  56.009  1.00  0.00     0.088 A 
HETATM    7  N   UNL     1       8.041  24.599  56.155  1.00  0.00    -0.225 NA
HETATM    8  C   UNL     1       7.442  21.234  54.827  1.00  0.00     0.034 A 
HETATM    9  C   UNL     1       8.039  20.462  55.827  1.00  0.00     0.002 A 
HETATM   10  C   UNL     1       8.625  21.090  56.916  1.00  0.00     0.002 A 
HETATM   11  C   UNL     1       8.604  22.483  56.999  1.00  0.00     0.034 A 
HETATM   12  C   UNL     1       6.533  25.684  53.076  1.00  0.00     0.099 C 
HETATM   13  C   UNL     1       7.083  26.854  53.591  1.00  0.00     0.122 C 
ENDROOT
BRANCH  12  14
HETATM   14  C   UNL     1       5.663  25.557  51.908  1.00  0.00     0.236 C 
HETATM   15  N   UNL     1       6.023  26.337  50.812  1.00  0.00    -0.258 NA
HETATM   16  H   UNL     1       7.026  26.465  50.811  1.00  0.00     0.130 HD
HETATM   17  O   UNL     1       4.636  24.887  51.902  1.00  0.00    -0.274 OA
BRANCH  15  18
HETATM   18  C   UNL     1       5.452  27.677  50.729  1.00  0.00     0.099 C 
BRANCH  18  19
HETATM   19  C   UNL     1       5.284  28.272  49.330  1.00  0.00     0.048 C 
BRANCH  19  20
HETATM   20  C   UNL     1       4.064  27.670  48.659  1.00  0.00    -0.083 C 
HETATM   21  C   UNL     1       2.743  28.375  48.856  1.00  0.00     0.034 C 
HETATM   22  C   UNL     1       1.529  27.531  48.451  1.00  0.00     0.005 C 
HETATM   23  C   UNL     1       1.778  26.774  47.150  1.00  0.00     0.004 C 
HETATM   24  C   UNL     1       3.001  25.867  47.268  1.00  0.00     0.027 C 
HETATM   25  C   UNL     1       4.162  26.534  47.942  1.00  0.00    -0.024 C 
ENDBRANCH  19  20
ENDBRANCH  18  19
ENDBRANCH  15  18
ENDBRANCH  12  14
BRANCH  13  26
HETATM   26  N   UNL     1       7.230  28.110  53.060  1.00  0.00    -0.286 NA
HETATM   27  H   UNL     1       7.856  28.189  52.257  1.00  0.00     0.125 HD
HETATM   28  H   UNL     1       7.521  28.824  53.734  1.00  0.00     0.125 HD
ENDBRANCH  13  26
BRANCH   1  29
HETATM   29  N   UNL     1       7.382  27.670  55.830  1.00  0.00    -0.176 NA
HETATM   30  C   UNL     1       6.286  27.900  56.482  1.00  0.00     0.153 C 
BRANCH  30  31
HETATM   31  C   UNL     1       6.144  29.132  57.294  1.00  0.00     0.016 A 
HETATM   32  C   UNL     1       4.964  29.875  57.172  1.00  0.00     0.016 A 
HETATM   33  C   UNL     1       4.837  31.091  57.850  1.00  0.00     0.001 A 
HETATM   34  C   UNL     1       5.883  31.567  58.643  1.00  0.00     0.003 A 
HETATM   35  C   UNL     1       7.059  30.829  58.767  1.00  0.00     0.037 A 
HETATM   36  C   UNL     1       7.188  29.618  58.093  1.00  0.00     0.077 A 
BRANCH  36  37
HETATM   37  O   UNL     1       8.385  28.966  58.228  1.00  0.00    -0.360 OA
HETATM   38  H   UNL     1       8.877  29.447  58.928  1.00  0.00     0.217 HD
ENDBRANCH  36  37
ENDBRANCH  30  31
ENDBRANCH   1  29
TORSDOF 8
ENDMDL
