MODEL 1
REMARK VINA RESULT:      -7.9      0.000      0.000
REMARK  4 active torsions:
REMARK  status: ('A' for Active; 'I' for Inactive)
REMARK    1  A    between atoms: C_2  and  C_3 
REMARK    2  A    between atoms: C_3  and  C_4 
REMARK    3  A    between atoms: C_4  and  C_5 
REMARK    4  A    between atoms: C_25  and  N_26 
ROOT
HETATM    1  C   UNL     1       8.054  24.135  56.268  1.00  0.00     0.067 A 
HETATM    2  N   UNL     1       9.229  24.013  56.910  1.00  0.00    -0.177 NA
HETATM    3  N   UNL     1       9.417  25.210  57.498  1.00  0.00    -0.256 N 
HETATM    4  H   UNL     1      10.243  25.352  58.069  1.00  0.00     0.191 HD
HETATM    5  C   UNL     1       8.409  26.081  57.247  1.00  0.00     0.176 A 
HETATM    6  C   UNL     1       7.518  25.440  56.421  1.00  0.00     0.049 A 
HETATM    7  C   UNL     1       6.292  26.162  55.977  1.00  0.00     0.144 A 
HETATM    8  C   UNL     1       5.010  25.341  56.277  1.00  0.00     0.246 A 
HETATM    9  O   UNL     1       4.559  25.029  57.369  1.00  0.00    -0.271 OA
HETATM   10  N   UNL     1       4.431  25.021  55.054  1.00  0.00    -0.325 N 
HETATM   11  C   UNL     1       5.175  25.515  53.993  1.00  0.00     0.043 A 
HETATM   12  C   UNL     1       6.306  26.205  54.458  1.00  0.00     0.003 A 
HETATM   13  C   UNL     1       4.879  25.366  52.655  1.00  0.00     0.030 A 
HETATM   14  C   UNL     1       5.758  25.938  51.740  1.00  0.00     0.003 A 
HETATM   15  C   UNL     1       6.893  26.642  52.178  1.00  0.00     0.007 A 
HETATM   16  C   UNL     1       7.183  26.796  53.546  1.00  0.00    -0.051 A 
HETATM   17  C   UNL     1       8.415  27.544  53.960  1.00  0.00     0.049 C 
HETATM   18  C   UNL     1       6.188  27.526  56.648  1.00  0.00     0.081 A 
HETATM   19  C   UNL     1       4.898  28.301  56.435  1.00  0.00     0.021 C 
HETATM   20  N   UNL     1       3.827  28.944  56.257  1.00  0.00    -0.096 N 
HETATM   21  C   UNL     1       7.150  28.024  57.470  1.00  0.00     0.140 A 
HETATM   22  O   UNL     1       8.328  27.308  57.749  1.00  0.00    -0.279 OA
HETATM   23  H   UNL     1       3.570  24.497  54.976  1.00  0.00     0.169 HD
ENDROOT
BRANCH  21  24
HETATM   24  N   UNL     1       7.099  29.238  58.117  1.00  0.00    -0.282 NA
HETATM   25  H   UNL     1       7.195  30.057  57.521  1.00  0.00     0.126 HD
HETATM   26  H   UNL     1       6.295  29.302  58.738  1.00  0.00     0.126 HD
ENDBRANCH  21  24
BRANCH   1  27
HETATM   27  C   UNL     1       7.484  22.952  55.556  1.00  0.00     0.062 C 
BRANCH  27  28
HETATM   28  C   UNL     1       7.838  22.924  54.069  1.00  0.00     0.006 C 
BRANCH  28  29
HETATM   29  C   UNL     1       8.867  21.834  53.770  1.00  0.00    -0.004 C 
HETATM   30  C   UNL     1       8.245  20.671  53.014  1.00  0.00     0.005 C 
ENDBRANCH  28  29
ENDBRANCH  27  28
ENDBRANCH   1  27
TORSDOF 4
ENDMDL
MODEL 2
REMARK VINA RESULT:      -7.4      2.083      5.876
REMARK  4 active torsions:
REMARK  status: ('A' for Active; 'I' for Inactive)
REMARK    1  A    between atoms: C_2  and  C_3 
REMARK    2  A    between atoms: C_3  and  C_4 
REMARK    3  A    between atoms: C_4  and  C_5 
REMARK    4  A    between atoms: C_25  and  N_26 
ROOT
HETATM    1  C   UNL     1       4.266  27.875  54.467  1.00  0.00     0.067 A 
HETATM    2  N   UNL     1       3.655  27.921  53.270  1.00  0.00    -0.177 NA
HETATM    3  N   UNL     1       4.215  26.916  52.568  1.00  0.00    -0.256 N 
HETATM    4  H   UNL     1       3.890  26.737  51.625  1.00  0.00     0.191 HD
HETATM    5  C   UNL     1       5.157  26.246  53.276  1.00  0.00     0.176 A 
HETATM    6  C   UNL     1       5.253  26.857  54.502  1.00  0.00     0.049 A 
HETATM    7  C   UNL     1       6.219  26.325  55.504  1.00  0.00     0.144 A 
HETATM    8  C   UNL     1       5.526  26.033  56.862  1.00  0.00     0.246 A 
HETATM    9  O   UNL     1       4.662  25.203  57.098  1.00  0.00    -0.271 OA
HETATM   10  N   UNL     1       6.083  26.893  57.801  1.00  0.00    -0.325 N 
HETATM   11  C   UNL     1       7.041  27.719  57.231  1.00  0.00     0.043 A 
HETATM   12  C   UNL     1       7.179  27.447  55.861  1.00  0.00     0.003 A 
HETATM   13  C   UNL     1       7.773  28.687  57.887  1.00  0.00     0.030 A 
HETATM   14  C   UNL     1       8.689  29.414  57.132  1.00  0.00     0.003 A 
HETATM   15  C   UNL     1       8.854  29.156  55.760  1.00  0.00     0.007 A 
HETATM   16  C   UNL     1       8.109  28.162  55.101  1.00  0.00    -0.051 A 
HETATM   17  C   UNL     1       8.313  27.936  53.632  1.00  0.00     0.049 C 
HETATM   18  C   UNL     1       6.890  25.055  54.996  1.00  0.00     0.081 A 
HETATM   19  C   UNL     1       7.764  24.296  55.981  1.00  0.00     0.021 C 
HETATM   20  N   UNL     1       8.490  23.667  56.799  1.00  0.00    -0.096 N 
HETATM   21  C   UNL     1       6.678  24.551  53.751  1.00  0.00     0.140 A 
HETATM   22  O   UNL     1       5.822  25.185  52.832  1.00  0.00    -0.279 OA
HETATM   23  H   UNL     1       5.810  26.893  58.774  1.00  0.00     0.169 HD
ENDROOT
BRANCH  21  24
HETATM   24  N   UNL     1       7.241  23.399  53.247  1.00  0.00    -0.282 NA
HETATM   25  H   UNL     1       7.753  23.507  52.376  1.00  0.00     0.126 HD
HETATM   26  H   UNL     1       7.776  22.900  53.954  1.00  0.00     0.126 HD
ENDBRANCH  21  24
BRANCH   1  27
HETATM   27  C   UNL     1       3.833  28.816  55.544  1.00  0.00     0.062 C 
BRANCH  27  28
HETATM   28  C   UNL     1       4.264  30.259  55.284  1.00  0.00     0.006 C 
BRANCH  28  29
HETATM   29  C   UNL     1       5.111  30.795  56.438  1.00  0.00    -0.004 C 
HETATM   30  C   UNL     1       4.514  30.430  57.786  1.00  0.00     0.005 C 
ENDBRANCH  28  29
ENDBRANCH  27  28
ENDBRANCH   1  27
TORSDOF 4
ENDMDL
MODEL 3
REMARK VINA RESULT:      -7.0      8.670     10.866
REMARK  4 active torsions:
REMARK  status: ('A' for Active; 'I' for Inactive)
REMARK    1  A    between atoms: C_2  and  C_3 
REMARK    2  A    between atoms: C_3  and  C_4 
REMARK    3  A    between atoms: C_4  and  C_5 
REMARK    4  A    between atoms: C_25  and  N_26 
ROOT
HETATM    1  C   UNL     1       5.956  33.124  61.560  1.00  0.00     0.067 A 
HETATM    2  N   UNL     1       6.577  32.729  62.685  1.00  0.00    -0.177 NA
HETATM    3  N   UNL     1       5.645  32.863  63.648  1.00  0.00    -0.256 N 
HETATM    4  H   UNL     1       5.879  32.597  64.598  1.00  0.00     0.191 HD
HETATM    5  C   UNL     1       4.465  33.331  63.172  1.00  0.00     0.176 A 
HETATM    6  C   UNL     1       4.631  33.552  61.827  1.00  0.00     0.049 A 
HETATM    7  C   UNL     1       3.483  34.071  61.030  1.00  0.00     0.144 A 
HETATM    8  C   UNL     1       3.201  33.177  59.793  1.00  0.00     0.246 A 
HETATM    9  O   UNL     1       2.822  32.016  59.780  1.00  0.00    -0.271 OA
HETATM   10  N   UNL     1       3.444  33.950  58.664  1.00  0.00    -0.325 N 
HETATM   11  C   UNL     1       3.861  35.229  59.002  1.00  0.00     0.043 A 
HETATM   12  C   UNL     1       3.916  35.382  60.396  1.00  0.00     0.003 A 
HETATM   13  C   UNL     1       4.189  36.236  58.118  1.00  0.00     0.030 A 
HETATM   14  C   UNL     1       4.588  37.454  58.660  1.00  0.00     0.003 A 
HETATM   15  C   UNL     1       4.644  37.637  60.053  1.00  0.00     0.007 A 
HETATM   16  C   UNL     1       4.300  36.607  60.947  1.00  0.00    -0.051 A 
HETATM   17  C   UNL     1       4.389  36.849  62.424  1.00  0.00     0.049 C 
HETATM   18  C   UNL     1       2.224  34.165  61.884  1.00  0.00     0.081 A 
HETATM   19  C   UNL     1       0.928  34.504  61.164  1.00  0.00     0.021 C 
HETATM   20  N   UNL     1      -0.146  34.785  60.566  1.00  0.00    -0.096 N 
HETATM   21  C   UNL     1       2.207  33.890  63.215  1.00  0.00     0.140 A 
HETATM   22  O   UNL     1       3.371  33.505  63.906  1.00  0.00    -0.279 OA
HETATM   23  H   UNL     1       3.319  33.601  57.723  1.00  0.00     0.169 HD
ENDROOT
BRANCH  21  24
HETATM   24  N   UNL     1       1.097  33.939  64.028  1.00  0.00    -0.282 NA
HETATM   25  H   UNL     1       0.899  34.845  64.445  1.00  0.00     0.126 HD
HETATM   26  H   UNL     1       0.281  33.531  63.578  1.00  0.00     0.126 HD
ENDBRANCH  21  24
BRANCH   1  27
HETATM   27  C   UNL     1       6.681  33.034  60.256  1.00  0.00     0.062 C 
BRANCH  27  28
HETATM   28  C   UNL     1       7.545  31.779  60.140  1.00  0.00     0.006 C 
BRANCH  28  29
HETATM   29  C   UNL     1       9.028  32.139  60.054  1.00  0.00    -0.004 C 
HETATM   30  C   UNL     1       9.755  31.830  61.352  1.00  0.00     0.005 C 
ENDBRANCH  28  29
ENDBRANCH  27  28
ENDBRANCH   1  27
TORSDOF 4
ENDMDL
MODEL 4
REMARK VINA RESULT:      -6.9      8.137     10.897
REMARK  4 active torsions:
REMARK  status: ('A' for Active; 'I' for Inactive)
REMARK    1  A    between atoms: C_2  and  C_3 
REMARK    2  A    between atoms: C_3  and  C_4 
REMARK    3  A    between atoms: C_4  and  C_5 
REMARK    4  A    between atoms: C_25  and  N_26 
ROOT
HETATM    1  C   UNL     1       7.211  32.872  62.180  1.00  0.00     0.067 A 
HETATM    2  N   UNL     1       8.323  32.750  62.926  1.00  0.00    -0.177 NA
HETATM    3  N   UNL     1       7.928  33.070  64.174  1.00  0.00    -0.256 N 
HETATM    4  H   UNL     1       8.604  33.025  64.928  1.00  0.00     0.191 HD
HETATM    5  C   UNL     1       6.613  33.393  64.239  1.00  0.00     0.176 A 
HETATM    6  C   UNL     1       6.114  33.317  62.962  1.00  0.00     0.049 A 
HETATM    7  C   UNL     1       4.674  33.619  62.727  1.00  0.00     0.144 A 
HETATM    8  C   UNL     1       3.970  32.468  61.959  1.00  0.00     0.246 A 
HETATM    9  O   UNL     1       3.777  31.324  62.339  1.00  0.00    -0.271 OA
HETATM   10  N   UNL     1       3.568  32.979  60.730  1.00  0.00    -0.325 N 
HETATM   11  C   UNL     1       3.930  34.311  60.589  1.00  0.00     0.043 A 
HETATM   12  C   UNL     1       4.599  34.768  61.735  1.00  0.00     0.003 A 
HETATM   13  C   UNL     1       3.687  35.106  59.489  1.00  0.00     0.030 A 
HETATM   14  C   UNL     1       4.134  36.423  59.543  1.00  0.00     0.003 A 
HETATM   15  C   UNL     1       4.799  36.909  60.683  1.00  0.00     0.007 A 
HETATM   16  C   UNL     1       5.036  36.093  61.803  1.00  0.00    -0.051 A 
HETATM   17  C   UNL     1       5.762  36.657  62.988  1.00  0.00     0.049 C 
HETATM   18  C   UNL     1       3.946  33.868  64.042  1.00  0.00     0.081 A 
HETATM   19  C   UNL     1       2.434  34.009  63.976  1.00  0.00     0.021 C 
HETATM   20  N   UNL     1       1.179  34.125  63.921  1.00  0.00    -0.096 N 
HETATM   21  C   UNL     1       4.576  33.893  65.246  1.00  0.00     0.140 A 
HETATM   22  O   UNL     1       5.966  33.698  65.359  1.00  0.00    -0.279 OA
HETATM   23  H   UNL     1       3.071  32.428  60.044  1.00  0.00     0.169 HD
ENDROOT
BRANCH  21  24
HETATM   24  N   UNL     1       3.967  34.093  66.465  1.00  0.00    -0.282 NA
HETATM   25  H   UNL     1       4.560  33.955  67.279  1.00  0.00     0.126 HD
HETATM   26  H   UNL     1       3.465  34.977  66.495  1.00  0.00     0.126 HD
ENDBRANCH  21  24
BRANCH   1  27
HETATM   27  C   UNL     1       7.262  32.515  60.730  1.00  0.00     0.062 C 
BRANCH  27  28
HETATM   28  C   UNL     1       8.689  32.398  60.194  1.00  0.00     0.006 C 
BRANCH  28  29
HETATM   29  C   UNL     1       8.757  31.422  59.020  1.00  0.00    -0.004 C 
HETATM   30  C   UNL     1      10.125  31.436  58.360  1.00  0.00     0.005 C 
ENDBRANCH  28  29
ENDBRANCH  27  28
ENDBRANCH   1  27
TORSDOF 4
ENDMDL
MODEL 5
REMARK VINA RESULT:      -6.7     14.687     17.096
REMARK  4 active torsions:
REMARK  status: ('A' for Active; 'I' for Inactive)
REMARK    1  A    between atoms: C_2  and  C_3 
REMARK    2  A    between atoms: C_3  and  C_4 
REMARK    3  A    between atoms: C_4  and  C_5 
REMARK    4  A    between atoms: C_25  and  N_26 
ROOT
HETATM    1  C   UNL     1      10.818  10.374  54.607  1.00  0.00     0.067 A 
HETATM    2  N   UNL     1       9.713  11.131  54.727  1.00  0.00    -0.177 NA
HETATM    3  N   UNL     1       9.858  12.089  53.792  1.00  0.00    -0.256 N 
HETATM    4  H   UNL     1       9.123  12.777  53.676  1.00  0.00     0.191 HD
HETATM    5  C   UNL     1      11.014  11.967  53.094  1.00  0.00     0.176 A 
HETATM    6  C   UNL     1      11.689  10.890  53.613  1.00  0.00     0.049 A 
HETATM    7  C   UNL     1      13.007  10.510  53.032  1.00  0.00     0.144 A 
HETATM    8  C   UNL     1      13.037   9.013  52.622  1.00  0.00     0.246 A 
HETATM    9  O   UNL     1      12.377   8.461  51.756  1.00  0.00    -0.271 OA
HETATM   10  N   UNL     1      13.985   8.387  53.423  1.00  0.00    -0.325 N 
HETATM   11  C   UNL     1      14.570   9.277  54.313  1.00  0.00     0.043 A 
HETATM   12  C   UNL     1      14.037  10.565  54.147  1.00  0.00     0.003 A 
HETATM   13  C   UNL     1      15.538   8.974  55.246  1.00  0.00     0.030 A 
HETATM   14  C   UNL     1      15.996  10.014  56.050  1.00  0.00     0.003 A 
HETATM   15  C   UNL     1      15.487  11.316  55.899  1.00  0.00     0.007 A 
HETATM   16  C   UNL     1      14.505  11.617  54.939  1.00  0.00    -0.051 A 
HETATM   17  C   UNL     1      13.985  13.020  54.829  1.00  0.00     0.049 C 
HETATM   18  C   UNL     1      13.338  11.372  51.820  1.00  0.00     0.081 A 
HETATM   19  C   UNL     1      14.565  10.981  51.011  1.00  0.00     0.021 C 
HETATM   20  N   UNL     1      15.583  10.656  50.340  1.00  0.00    -0.096 N 
HETATM   21  C   UNL     1      12.554  12.403  51.405  1.00  0.00     0.140 A 
HETATM   22  O   UNL     1      11.373  12.754  52.085  1.00  0.00    -0.279 OA
HETATM   23  H   UNL     1      14.206   7.404  53.344  1.00  0.00     0.169 HD
ENDROOT
BRANCH  21  24
HETATM   24  N   UNL     1      12.794  13.200  50.309  1.00  0.00    -0.282 NA
HETATM   25  H   UNL     1      12.619  14.193  50.442  1.00  0.00     0.126 HD
HETATM   26  H   UNL     1      13.709  13.017  49.902  1.00  0.00     0.126 HD
ENDBRANCH  21  24
BRANCH   1  27
HETATM   27  C   UNL     1      10.960   9.151  55.454  1.00  0.00     0.062 C 
BRANCH  27  28
HETATM   28  C   UNL     1      10.883   9.450  56.951  1.00  0.00     0.006 C 
BRANCH  28  29
HETATM   29  C   UNL     1      12.174  10.098  57.449  1.00  0.00    -0.004 C 
HETATM   30  C   UNL     1      13.107   9.075  58.076  1.00  0.00     0.005 C 
ENDBRANCH  28  29
ENDBRANCH  27  28
ENDBRANCH   1  27
TORSDOF 4
ENDMDL
MODEL 6
REMARK VINA RESULT:      -6.7     15.622     19.008
REMARK  4 active torsions:
REMARK  status: ('A' for Active; 'I' for Inactive)
REMARK    1  A    between atoms: C_2  and  C_3 
REMARK    2  A    between atoms: C_3  and  C_4 
REMARK    3  A    between atoms: C_4  and  C_5 
REMARK    4  A    between atoms: C_25  and  N_26 
ROOT
HETATM    1  C   UNL     1      13.328  10.632  52.616  1.00  0.00     0.067 A 
HETATM    2  N   UNL     1      12.982  11.630  51.785  1.00  0.00    -0.177 NA
HETATM    3  N   UNL     1      14.029  11.748  50.946  1.00  0.00    -0.256 N 
HETATM    4  H   UNL     1      13.987  12.435  50.202  1.00  0.00     0.191 HD
HETATM    5  C   UNL     1      15.021  10.865  51.222  1.00  0.00     0.176 A 
HETATM    6  C   UNL     1      14.627  10.145  52.322  1.00  0.00     0.049 A 
HETATM    7  C   UNL     1      15.529   9.084  52.856  1.00  0.00     0.144 A 
HETATM    8  C   UNL     1      14.789   7.727  52.992  1.00  0.00     0.246 A 
HETATM    9  O   UNL     1      14.328   7.033  52.100  1.00  0.00    -0.271 OA
HETATM   10  N   UNL     1      14.752   7.413  54.346  1.00  0.00    -0.325 N 
HETATM   11  C   UNL     1      15.360   8.396  55.114  1.00  0.00     0.043 A 
HETATM   12  C   UNL     1      15.845   9.432  54.301  1.00  0.00     0.003 A 
HETATM   13  C   UNL     1      15.484   8.392  56.487  1.00  0.00     0.030 A 
HETATM   14  C   UNL     1      16.129   9.479  57.072  1.00  0.00     0.003 A 
HETATM   15  C   UNL     1      16.633  10.526  56.280  1.00  0.00     0.007 A 
HETATM   16  C   UNL     1      16.508  10.517  54.879  1.00  0.00    -0.051 A 
HETATM   17  C   UNL     1      17.051  11.666  54.082  1.00  0.00     0.049 C 
HETATM   18  C   UNL     1      16.752   8.907  51.964  1.00  0.00     0.081 A 
HETATM   19  C   UNL     1      17.669   7.737  52.280  1.00  0.00     0.021 C 
HETATM   20  N   UNL     1      18.431   6.766  52.542  1.00  0.00    -0.096 N 
HETATM   21  C   UNL     1      17.001   9.691  50.882  1.00  0.00     0.140 A 
HETATM   22  O   UNL     1      16.139  10.741  50.514  1.00  0.00    -0.279 OA
HETATM   23  H   UNL     1      14.334   6.564  54.701  1.00  0.00     0.169 HD
ENDROOT
BRANCH  21  24
HETATM   24  N   UNL     1      18.076   9.563  50.032  1.00  0.00    -0.282 NA
HETATM   25  H   UNL     1      18.908  10.085  50.296  1.00  0.00     0.126 HD
HETATM   26  H   UNL     1      18.279   8.588  49.823  1.00  0.00     0.126 HD
ENDBRANCH  21  24
BRANCH   1  27
HETATM   27  C   UNL     1      12.351  10.170  53.649  1.00  0.00     0.062 C 
BRANCH  27  28
HETATM   28  C   UNL     1      11.956  11.274  54.630  1.00  0.00     0.006 C 
BRANCH  28  29
HETATM   29  C   UNL     1      13.096  11.579  55.602  1.00  0.00    -0.004 C 
HETATM   30  C   UNL     1      13.826  12.857  55.224  1.00  0.00     0.005 C 
ENDBRANCH  28  29
ENDBRANCH  27  28
ENDBRANCH   1  27
TORSDOF 4
ENDMDL
MODEL 7
REMARK VINA RESULT:      -6.6      8.440     10.843
REMARK  4 active torsions:
REMARK  status: ('A' for Active; 'I' for Inactive)
REMARK    1  A    between atoms: C_2  and  C_3 
REMARK    2  A    between atoms: C_3  and  C_4 
REMARK    3  A    between atoms: C_4  and  C_5 
REMARK    4  A    between atoms: C_25  and  N_26 
ROOT
HETATM    1  C   UNL     1       6.721  32.376  60.700  1.00  0.00     0.067 A 
HETATM    2  N   UNL     1       8.039  32.236  60.476  1.00  0.00    -0.177 NA
HETATM    3  N   UNL     1       8.621  32.638  61.622  1.00  0.00    -0.256 N 
HETATM    4  H   UNL     1       9.631  32.598  61.701  1.00  0.00     0.191 HD
HETATM    5  C   UNL     1       7.719  33.031  62.555  1.00  0.00     0.176 A 
HETATM    6  C   UNL     1       6.474  32.915  61.989  1.00  0.00     0.049 A 
HETATM    7  C   UNL     1       5.273  33.278  62.794  1.00  0.00     0.144 A 
HETATM    8  C   UNL     1       4.232  32.127  62.812  1.00  0.00     0.246 A 
HETATM    9  O   UNL     1       4.355  31.015  63.301  1.00  0.00    -0.271 OA
HETATM   10  N   UNL     1       3.091  32.594  62.170  1.00  0.00    -0.325 N 
HETATM   11  C   UNL     1       3.256  33.897  61.723  1.00  0.00     0.043 A 
HETATM   12  C   UNL     1       4.534  34.377  62.051  1.00  0.00     0.003 A 
HETATM   13  C   UNL     1       2.319  34.647  61.043  1.00  0.00     0.030 A 
HETATM   14  C   UNL     1       2.681  35.940  60.678  1.00  0.00     0.003 A 
HETATM   15  C   UNL     1       3.951  36.450  61.002  1.00  0.00     0.007 A 
HETATM   16  C   UNL     1       4.897  35.680  61.702  1.00  0.00    -0.051 A 
HETATM   17  C   UNL     1       6.243  36.266  62.011  1.00  0.00     0.049 C 
HETATM   18  C   UNL     1       5.662  33.631  64.225  1.00  0.00     0.081 A 
HETATM   19  C   UNL     1       4.526  33.845  65.213  1.00  0.00     0.021 C 
HETATM   20  N   UNL     1       3.584  34.022  66.033  1.00  0.00    -0.096 N 
HETATM   21  C   UNL     1       6.951  33.684  64.652  1.00  0.00     0.140 A 
HETATM   22  O   UNL     1       8.029  33.424  63.786  1.00  0.00    -0.279 OA
HETATM   23  H   UNL     1       2.256  32.036  62.061  1.00  0.00     0.169 HD
ENDROOT
BRANCH  21  24
HETATM   24  N   UNL     1       7.357  33.977  65.935  1.00  0.00    -0.282 NA
HETATM   25  H   UNL     1       6.653  33.850  66.657  1.00  0.00     0.126 HD
HETATM   26  H   UNL     1       8.238  33.522  66.165  1.00  0.00     0.126 HD
ENDBRANCH  21  24
BRANCH   1  27
HETATM   27  C   UNL     1       5.751  31.944  59.649  1.00  0.00     0.062 C 
BRANCH  27  28
HETATM   28  C   UNL     1       5.316  33.088  58.733  1.00  0.00     0.006 C 
BRANCH  28  29
HETATM   29  C   UNL     1       3.903  32.856  58.198  1.00  0.00    -0.004 C 
HETATM   30  C   UNL     1       3.369  34.084  57.480  1.00  0.00     0.005 C 
ENDBRANCH  28  29
ENDBRANCH  27  28
ENDBRANCH   1  27
TORSDOF 4
ENDMDL
MODEL 8
REMARK VINA RESULT:      -6.5     14.349     17.120
REMARK  4 active torsions:
REMARK  status: ('A' for Active; 'I' for Inactive)
REMARK    1  A    between atoms: C_2  and  C_3 
REMARK    2  A    between atoms: C_3  and  C_4 
REMARK    3  A    between atoms: C_4  and  C_5 
REMARK    4  A    between atoms: C_25  and  N_26 
ROOT
HETATM    1  C   UNL     1      15.580  10.440  52.989  1.00  0.00     0.067 A 
HETATM    2  N   UNL     1      16.279  10.587  51.850  1.00  0.00    -0.177 NA
HETATM    3  N   UNL     1      15.427  11.205  51.010  1.00  0.00    -0.256 N 
HETATM    4  H   UNL     1      15.745  11.447  50.078  1.00  0.00     0.191 HD
HETATM    5  C   UNL     1      14.219  11.447  51.576  1.00  0.00     0.176 A 
HETATM    6  C   UNL     1      14.258  10.934  52.848  1.00  0.00     0.049 A 
HETATM    7  C   UNL     1      13.055  11.060  53.720  1.00  0.00     0.144 A 
HETATM    8  C   UNL     1      13.408  11.707  55.085  1.00  0.00     0.246 A 
HETATM    9  O   UNL     1      13.808  12.842  55.294  1.00  0.00    -0.271 OA
HETATM   10  N   UNL     1      13.169  10.752  56.067  1.00  0.00    -0.325 N 
HETATM   11  C   UNL     1      12.718   9.560  55.519  1.00  0.00     0.043 A 
HETATM   12  C   UNL     1      12.627   9.659  54.121  1.00  0.00     0.003 A 
HETATM   13  C   UNL     1      12.397   8.415  56.217  1.00  0.00     0.030 A 
HETATM   14  C   UNL     1      11.963   7.318  55.479  1.00  0.00     0.003 A 
HETATM   15  C   UNL     1      11.854   7.393  54.079  1.00  0.00     0.007 A 
HETATM   16  C   UNL     1      12.176   8.567  53.376  1.00  0.00    -0.051 A 
HETATM   17  C   UNL     1      12.055   8.589  51.881  1.00  0.00     0.049 C 
HETATM   18  C   UNL     1      11.969  11.883  53.036  1.00  0.00     0.081 A 
HETATM   19  C   UNL     1      10.755  12.251  53.873  1.00  0.00     0.021 C 
HETATM   20  N   UNL     1       9.748  12.557  54.568  1.00  0.00    -0.096 N 
HETATM   21  C   UNL     1      12.082  12.349  51.764  1.00  0.00     0.140 A 
HETATM   22  O   UNL     1      13.220  12.089  50.978  1.00  0.00    -0.279 OA
HETATM   23  H   UNL     1      13.309  10.931  57.051  1.00  0.00     0.169 HD
ENDROOT
BRANCH  21  24
HETATM   24  N   UNL     1      11.144  13.111  51.105  1.00  0.00    -0.282 NA
HETATM   25  H   UNL     1      11.262  13.178  50.097  1.00  0.00     0.126 HD
HETATM   26  H   UNL     1      10.195  12.854  51.369  1.00  0.00     0.126 HD
ENDBRANCH  21  24
BRANCH   1  27
HETATM   27  C   UNL     1      16.251   9.848  54.186  1.00  0.00     0.062 C 
BRANCH  27  28
HETATM   28  C   UNL     1      16.828  10.905  55.129  1.00  0.00     0.006 C 
BRANCH  28  29
HETATM   29  C   UNL     1      16.706  10.465  56.588  1.00  0.00    -0.004 C 
HETATM   30  C   UNL     1      16.246   9.022  56.699  1.00  0.00     0.005 C 
ENDBRANCH  28  29
ENDBRANCH  27  28
ENDBRANCH   1  27
TORSDOF 4
ENDMDL
MODEL 9
REMARK VINA RESULT:      -6.5     10.347     13.170
REMARK  4 active torsions:
REMARK  status: ('A' for Active; 'I' for Inactive)
REMARK    1  A    between atoms: C_2  and  C_3 
REMARK    2  A    between atoms: C_3  and  C_4 
REMARK    3  A    between atoms: C_4  and  C_5 
REMARK    4  A    between atoms: C_25  and  N_26 
ROOT
HETATM    1  C   UNL     1       6.183  33.666  62.005  1.00  0.00     0.067 A 
HETATM    2  N   UNL     1       6.199  32.612  61.171  1.00  0.00    -0.177 NA
HETATM    3  N   UNL     1       5.251  32.892  60.257  1.00  0.00    -0.256 N 
HETATM    4  H   UNL     1       5.094  32.239  59.497  1.00  0.00     0.191 HD
HETATM    5  C   UNL     1       4.635  34.077  60.488  1.00  0.00     0.176 A 
HETATM    6  C   UNL     1       5.180  34.599  61.635  1.00  0.00     0.049 A 
HETATM    7  C   UNL     1       4.694  35.916  62.137  1.00  0.00     0.144 A 
HETATM    8  C   UNL     1       5.868  36.904  62.366  1.00  0.00     0.246 A 
HETATM    9  O   UNL     1       6.619  37.381  61.530  1.00  0.00    -0.271 OA
HETATM   10  N   UNL     1       5.914  37.179  63.728  1.00  0.00    -0.325 N 
HETATM   11  C   UNL     1       4.930  36.488  64.421  1.00  0.00     0.043 A 
HETATM   12  C   UNL     1       4.162  35.706  63.544  1.00  0.00     0.003 A 
HETATM   13  C   UNL     1       4.710  36.534  65.781  1.00  0.00     0.030 A 
HETATM   14  C   UNL     1       3.668  35.761  66.285  1.00  0.00     0.003 A 
HETATM   15  C   UNL     1       2.877  34.975  65.428  1.00  0.00     0.007 A 
HETATM   16  C   UNL     1       3.104  34.940  64.041  1.00  0.00    -0.051 A 
HETATM   17  C   UNL     1       2.240  34.075  63.172  1.00  0.00     0.049 C 
HETATM   18  C   UNL     1       3.695  36.534  61.166  1.00  0.00     0.081 A 
HETATM   19  C   UNL     1       3.250  37.959  61.452  1.00  0.00     0.021 C 
HETATM   20  N   UNL     1       2.882  39.142  61.689  1.00  0.00    -0.096 N 
HETATM   21  C   UNL     1       3.259  35.900  60.045  1.00  0.00     0.140 A 
HETATM   22  O   UNL     1       3.699  34.607  59.707  1.00  0.00    -0.279 OA
HETATM   23  H   UNL     1       6.587  37.812  64.138  1.00  0.00     0.169 HD
ENDROOT
BRANCH  21  24
HETATM   24  N   UNL     1       2.375  36.418  59.126  1.00  0.00    -0.282 NA
HETATM   25  H   UNL     1       1.990  37.332  59.355  1.00  0.00     0.126 HD
HETATM   26  H   UNL     1       2.747  36.378  58.180  1.00  0.00     0.126 HD
ENDBRANCH  21  24
BRANCH   1  27
HETATM   27  C   UNL     1       7.178  33.732  63.118  1.00  0.00     0.062 C 
BRANCH  27  28
HETATM   28  C   UNL     1       6.605  33.268  64.458  1.00  0.00     0.006 C 
BRANCH  28  29
HETATM   29  C   UNL     1       7.363  33.896  65.627  1.00  0.00    -0.004 C 
HETATM   30  C   UNL     1       6.529  33.899  66.897  1.00  0.00     0.005 C 
ENDBRANCH  28  29
ENDBRANCH  27  28
ENDBRANCH   1  27
TORSDOF 4
ENDMDL
MODEL 10
REMARK VINA RESULT:      -6.4     14.606     17.238
REMARK  4 active torsions:
REMARK  status: ('A' for Active; 'I' for Inactive)
REMARK    1  A    between atoms: C_2  and  C_3 
REMARK    2  A    between atoms: C_3  and  C_4 
REMARK    3  A    between atoms: C_4  and  C_5 
REMARK    4  A    between atoms: C_25  and  N_26 
ROOT
HETATM    1  C   UNL     1      15.012  11.019  54.445  1.00  0.00     0.067 A 
HETATM    2  N   UNL     1      15.423  12.196  54.949  1.00  0.00    -0.177 NA
HETATM    3  N   UNL     1      14.300  12.934  55.037  1.00  0.00    -0.256 N 
HETATM    4  H   UNL     1      14.358  13.871  55.420  1.00  0.00     0.191 HD
HETATM    5  C   UNL     1      13.201  12.269  54.603  1.00  0.00     0.176 A 
HETATM    6  C   UNL     1      13.620  11.034  54.173  1.00  0.00     0.049 A 
HETATM    7  C   UNL     1      12.614  10.072  53.640  1.00  0.00     0.144 A 
HETATM    8  C   UNL     1      12.702   8.701  54.361  1.00  0.00     0.246 A 
HETATM    9  O   UNL     1      12.470   8.456  55.535  1.00  0.00    -0.271 OA
HETATM   10  N   UNL     1      13.088   7.761  53.412  1.00  0.00    -0.325 N 
HETATM   11  C   UNL     1      13.277   8.342  52.167  1.00  0.00     0.043 A 
HETATM   12  C   UNL     1      13.019   9.721  52.218  1.00  0.00     0.003 A 
HETATM   13  C   UNL     1      13.667   7.689  51.017  1.00  0.00     0.030 A 
HETATM   14  C   UNL     1      13.802   8.456  49.863  1.00  0.00     0.003 A 
HETATM   15  C   UNL     1      13.542   9.837  49.884  1.00  0.00     0.007 A 
HETATM   16  C   UNL     1      13.137  10.494  51.060  1.00  0.00    -0.051 A 
HETATM   17  C   UNL     1      12.885  11.972  51.032  1.00  0.00     0.049 C 
HETATM   18  C   UNL     1      11.201  10.626  53.778  1.00  0.00     0.081 A 
HETATM   19  C   UNL     1      10.057   9.683  53.445  1.00  0.00     0.021 C 
HETATM   20  N   UNL     1       9.107   8.899  53.170  1.00  0.00    -0.096 N 
HETATM   21  C   UNL     1      10.936  11.874  54.247  1.00  0.00     0.140 A 
HETATM   22  O   UNL     1      11.965  12.754  54.632  1.00  0.00    -0.279 OA
HETATM   23  H   UNL     1      13.204   6.780  53.628  1.00  0.00     0.169 HD
ENDROOT
BRANCH  21  24
HETATM   24  N   UNL     1       9.682  12.417  54.411  1.00  0.00    -0.282 NA
HETATM   25  H   UNL     1       9.247  12.251  55.316  1.00  0.00     0.126 HD
HETATM   26  H   UNL     1       9.657  13.398  54.142  1.00  0.00     0.126 HD
ENDBRANCH  21  24
BRANCH   1  27
HETATM   27  C   UNL     1      16.000   9.910  54.280  1.00  0.00     0.062 C 
BRANCH  27  28
HETATM   28  C   UNL     1      16.592   9.844  52.872  1.00  0.00     0.006 C 
BRANCH  28  29
HETATM   29  C   UNL     1      17.021   8.419  52.524  1.00  0.00    -0.004 C 
HETATM   30  C   UNL     1      17.455   8.305  51.072  1.00  0.00     0.005 C 
ENDBRANCH  28  29
ENDBRANCH  27  28
ENDBRANCH   1  27
TORSDOF 4
ENDMDL
