MODEL 1
REMARK VINA RESULT:      -9.9      0.000      0.000
REMARK  5 active torsions:
REMARK  status: ('A' for Active; 'I' for Inactive)
REMARK    1  A    between atoms: C_2  and  O_3 
REMARK    2  A    between atoms: O_3  and  C_4 
REMARK    3  A    between atoms: C_5  and  C_6 
REMARK    4  A    between atoms: C_7  and  C_8 
REMARK       I    between atoms: C_8  and  N_9 
REMARK    5  A    between atoms: N_9  and  C_10 
ROOT
HETATM    1  C   UNL     1       7.724  28.734  57.844  1.00  0.00     0.042 C 
HETATM    2  C   UNL     1       8.650  29.704  57.726  1.00  0.00     0.113 C 
HETATM    3  C   UNL     1       9.645  29.702  56.716  1.00  0.00     0.105 C 
HETATM    4  N   UNL     1      10.489  29.759  55.921  1.00  0.00    -0.191 NA
ENDROOT
BRANCH   2   5
HETATM    5  C   UNL     1       8.627  30.778  58.780  1.00  0.00     0.266 C 
HETATM    6  N   UNL     1       7.828  30.519  59.880  1.00  0.00    -0.321 N 
HETATM    7  H   UNL     1       7.603  29.552  60.080  1.00  0.00     0.169 HD
HETATM    8  O   UNL     1       9.323  31.781  58.646  1.00  0.00    -0.267 OA
BRANCH   6   9
HETATM    9  C   UNL     1       7.566  31.432  60.935  1.00  0.00     0.047 A 
HETATM   10  C   UNL     1       6.557  32.420  60.873  1.00  0.00    -0.035 A 
HETATM   11  C   UNL     1       5.560  32.552  59.751  1.00  0.00     0.050 C 
HETATM   12  C   UNL     1       6.413  33.325  61.941  1.00  0.00     0.009 A 
HETATM   13  C   UNL     1       7.196  33.219  63.084  1.00  0.00     0.001 A 
HETATM   14  C   UNL     1       8.133  32.197  63.183  1.00  0.00     0.009 A 
HETATM   15  C   UNL     1       8.326  31.294  62.124  1.00  0.00    -0.035 A 
HETATM   16  C   UNL     1       9.379  30.229  62.291  1.00  0.00     0.050 C 
ENDBRANCH   6   9
ENDBRANCH   2   5
BRANCH   1  17
HETATM   17  C   UNL     1       7.581  27.548  56.986  1.00  0.00     0.002 A 
HETATM   18  C   UNL     1       6.965  27.657  55.717  1.00  0.00     0.079 A 
HETATM   19  C   UNL     1       6.942  26.585  54.821  1.00  0.00     0.047 A 
HETATM   20  C   UNL     1       7.495  25.389  55.234  1.00  0.00    -0.020 A 
HETATM   21  C   UNL     1       8.063  25.264  56.492  1.00  0.00     0.076 A 
HETATM   22  C   UNL     1       7.690  24.130  54.480  1.00  0.00     0.073 C 
HETATM   23  C   UNL     1       8.130  26.321  57.381  1.00  0.00     0.051 A 
HETATM   24  O   UNL     1       8.588  24.021  56.735  1.00  0.00    -0.345 OA
HETATM   25  C   UNL     1       8.072  23.208  55.647  1.00  0.00     0.129 C 
HETATM   26  C   UNL     1       9.122  22.180  55.257  1.00  0.00     0.040 C 
BRANCH  18  27
HETATM   27  O   UNL     1       6.433  28.849  55.294  1.00  0.00    -0.351 OA
BRANCH  27  28
HETATM   28  C   UNL     1       5.095  28.669  54.810  1.00  0.00     0.171 C 
HETATM   29  C   UNL     1       4.140  28.664  55.991  1.00  0.00     0.034 C 
ENDBRANCH  27  28
ENDBRANCH  18  27
ENDBRANCH   1  17
TORSDOF 5
ENDMDL
MODEL 2
REMARK VINA RESULT:      -9.7      2.194      8.592
REMARK  5 active torsions:
REMARK  status: ('A' for Active; 'I' for Inactive)
REMARK    1  A    between atoms: C_2  and  O_3 
REMARK    2  A    between atoms: O_3  and  C_4 
REMARK    3  A    between atoms: C_5  and  C_6 
REMARK    4  A    between atoms: C_7  and  C_8 
REMARK       I    between atoms: C_8  and  N_9 
REMARK    5  A    between atoms: N_9  and  C_10 
ROOT
HETATM    1  C   UNL     1       6.901  27.027  56.897  1.00  0.00     0.042 C 
HETATM    2  C   UNL     1       7.192  26.648  55.639  1.00  0.00     0.113 C 
HETATM    3  C   UNL     1       7.643  27.552  54.644  1.00  0.00     0.105 C 
HETATM    4  N   UNL     1       8.007  28.239  53.783  1.00  0.00    -0.191 NA
ENDROOT
BRANCH   2   5
HETATM    5  C   UNL     1       6.945  25.201  55.305  1.00  0.00     0.266 C 
HETATM    6  N   UNL     1       8.078  24.434  55.094  1.00  0.00    -0.321 N 
HETATM    7  H   UNL     1       8.948  24.761  55.495  1.00  0.00     0.169 HD
HETATM    8  O   UNL     1       5.796  24.768  55.277  1.00  0.00    -0.267 OA
BRANCH   6   9
HETATM    9  C   UNL     1       8.082  23.082  54.659  1.00  0.00     0.047 A 
HETATM   10  C   UNL     1       8.189  21.984  55.543  1.00  0.00    -0.035 A 
HETATM   11  C   UNL     1       8.187  22.094  57.046  1.00  0.00     0.050 C 
HETATM   12  C   UNL     1       8.250  20.680  55.017  1.00  0.00     0.009 A 
HETATM   13  C   UNL     1       8.135  20.450  53.651  1.00  0.00     0.001 A 
HETATM   14  C   UNL     1       7.947  21.521  52.787  1.00  0.00     0.009 A 
HETATM   15  C   UNL     1       7.911  22.839  53.273  1.00  0.00    -0.035 A 
HETATM   16  C   UNL     1       7.731  23.953  52.274  1.00  0.00     0.050 C 
ENDBRANCH   6   9
ENDBRANCH   2   5
BRANCH   1  17
HETATM   17  C   UNL     1       6.991  28.387  57.447  1.00  0.00     0.002 A 
HETATM   18  C   UNL     1       5.894  29.274  57.337  1.00  0.00     0.079 A 
HETATM   19  C   UNL     1       5.893  30.519  57.972  1.00  0.00     0.047 A 
HETATM   20  C   UNL     1       7.027  30.886  58.670  1.00  0.00    -0.020 A 
HETATM   21  C   UNL     1       8.121  30.039  58.745  1.00  0.00     0.076 A 
HETATM   22  C   UNL     1       7.275  32.085  59.500  1.00  0.00     0.073 C 
HETATM   23  C   UNL     1       8.130  28.788  58.157  1.00  0.00     0.051 A 
HETATM   24  O   UNL     1       9.152  30.543  59.496  1.00  0.00    -0.345 OA
HETATM   25  C   UNL     1       8.792  31.937  59.689  1.00  0.00     0.129 C 
HETATM   26  C   UNL     1       9.254  32.381  61.067  1.00  0.00     0.040 C 
BRANCH  18  27
HETATM   27  O   UNL     1       4.757  28.905  56.662  1.00  0.00    -0.351 OA
BRANCH  27  28
HETATM   28  C   UNL     1       4.622  29.648  55.443  1.00  0.00     0.171 C 
HETATM   29  C   UNL     1       4.158  28.710  54.343  1.00  0.00     0.034 C 
ENDBRANCH  27  28
ENDBRANCH  18  27
ENDBRANCH   1  17
TORSDOF 5
ENDMDL
MODEL 3
REMARK VINA RESULT:      -9.1      2.904      8.846
REMARK  5 active torsions:
REMARK  status: ('A' for Active; 'I' for Inactive)
REMARK    1  A    between atoms: C_2  and  O_3 
REMARK    2  A    between atoms: O_3  and  C_4 
REMARK    3  A    between atoms: C_5  and  C_6 
REMARK    4  A    between atoms: C_7  and  C_8 
REMARK       I    between atoms: C_8  and  N_9 
REMARK    5  A    between atoms: N_9  and  C_10 
ROOT
HETATM    1  C   UNL     1       6.183  27.287  56.985  1.00  0.00     0.042 C 
HETATM    2  C   UNL     1       6.800  26.842  55.875  1.00  0.00     0.113 C 
HETATM    3  C   UNL     1       7.393  27.707  54.921  1.00  0.00     0.105 C 
HETATM    4  N   UNL     1       7.890  28.358  54.098  1.00  0.00    -0.191 NA
ENDROOT
BRANCH   2   5
HETATM    5  C   UNL     1       6.771  25.354  55.649  1.00  0.00     0.266 C 
HETATM    6  N   UNL     1       7.918  24.810  55.099  1.00  0.00    -0.321 N 
HETATM    7  H   UNL     1       8.781  25.329  55.203  1.00  0.00     0.169 HD
HETATM    8  O   UNL     1       5.785  24.704  55.986  1.00  0.00    -0.267 OA
BRANCH   6   9
HETATM    9  C   UNL     1       8.071  23.457  54.697  1.00  0.00     0.047 A 
HETATM   10  C   UNL     1       8.326  22.403  55.604  1.00  0.00    -0.035 A 
HETATM   11  C   UNL     1       8.344  22.552  57.103  1.00  0.00     0.050 C 
HETATM   12  C   UNL     1       8.528  21.101  55.108  1.00  0.00     0.009 A 
HETATM   13  C   UNL     1       8.411  20.822  53.752  1.00  0.00     0.001 A 
HETATM   14  C   UNL     1       8.079  21.841  52.867  1.00  0.00     0.009 A 
HETATM   15  C   UNL     1       7.900  23.158  53.321  1.00  0.00    -0.035 A 
HETATM   16  C   UNL     1       7.569  24.217  52.300  1.00  0.00     0.050 C 
ENDBRANCH   6   9
ENDBRANCH   2   5
BRANCH   1  17
HETATM   17  C   UNL     1       6.016  28.690  57.393  1.00  0.00     0.002 A 
HETATM   18  C   UNL     1       7.108  29.407  57.937  1.00  0.00     0.079 A 
HETATM   19  C   UNL     1       7.025  30.777  58.200  1.00  0.00     0.047 A 
HETATM   20  C   UNL     1       5.818  31.406  57.964  1.00  0.00    -0.020 A 
HETATM   21  C   UNL     1       4.732  30.699  57.471  1.00  0.00     0.076 A 
HETATM   22  C   UNL     1       5.466  32.839  58.065  1.00  0.00     0.073 C 
HETATM   23  C   UNL     1       4.802  29.352  57.168  1.00  0.00     0.051 A 
HETATM   24  O   UNL     1       3.620  31.476  57.269  1.00  0.00    -0.345 OA
HETATM   25  C   UNL     1       3.940  32.722  57.944  1.00  0.00     0.129 C 
HETATM   26  C   UNL     1       3.327  33.876  57.167  1.00  0.00     0.040 C 
BRANCH  18  27
HETATM   27  O   UNL     1       8.316  28.792  58.154  1.00  0.00    -0.351 OA
BRANCH  27  28
HETATM   28  C   UNL     1       9.398  29.720  57.996  1.00  0.00     0.171 C 
HETATM   29  C   UNL     1      10.235  29.301  56.800  1.00  0.00     0.034 C 
ENDBRANCH  27  28
ENDBRANCH  18  27
ENDBRANCH   1  17
TORSDOF 5
ENDMDL
MODEL 4
REMARK VINA RESULT:      -8.8      2.924      8.681
REMARK  5 active torsions:
REMARK  status: ('A' for Active; 'I' for Inactive)
REMARK    1  A    between atoms: C_2  and  O_3 
REMARK    2  A    between atoms: O_3  and  C_4 
REMARK    3  A    between atoms: C_5  and  C_6 
REMARK    4  A    between atoms: C_7  and  C_8 
REMARK       I    between atoms: C_8  and  N_9 
REMARK    5  A    between atoms: N_9  and  C_10 
ROOT
HETATM    1  C   UNL     1       6.170  27.717  56.959  1.00  0.00     0.042 C 
HETATM    2  C   UNL     1       6.132  27.370  55.659  1.00  0.00     0.113 C 
HETATM    3  C   UNL     1       5.905  28.304  54.616  1.00  0.00     0.105 C 
HETATM    4  N   UNL     1       5.717  29.013  53.717  1.00  0.00    -0.191 NA
ENDROOT
BRANCH   2   5
HETATM    5  C   UNL     1       6.274  25.902  55.358  1.00  0.00     0.266 C 
HETATM    6  N   UNL     1       7.552  25.478  55.037  1.00  0.00    -0.321 N 
HETATM    7  H   UNL     1       8.328  26.049  55.347  1.00  0.00     0.169 HD
HETATM    8  O   UNL     1       5.297  25.163  55.447  1.00  0.00    -0.267 OA
BRANCH   6   9
HETATM    9  C   UNL     1       7.896  24.168  54.609  1.00  0.00     0.047 A 
HETATM   10  C   UNL     1       7.866  23.763  53.255  1.00  0.00    -0.035 A 
HETATM   11  C   UNL     1       7.591  24.683  52.094  1.00  0.00     0.050 C 
HETATM   12  C   UNL     1       8.161  22.425  52.931  1.00  0.00     0.009 A 
HETATM   13  C   UNL     1       8.551  21.518  53.908  1.00  0.00     0.001 A 
HETATM   14  C   UNL     1       8.661  21.935  55.229  1.00  0.00     0.009 A 
HETATM   15  C   UNL     1       8.346  23.254  55.595  1.00  0.00    -0.035 A 
HETATM   16  C   UNL     1       8.462  23.628  57.050  1.00  0.00     0.050 C 
ENDBRANCH   6   9
ENDBRANCH   2   5
BRANCH   1  17
HETATM   17  C   UNL     1       5.990  29.068  57.512  1.00  0.00     0.002 A 
HETATM   18  C   UNL     1       7.107  29.804  57.972  1.00  0.00     0.079 A 
HETATM   19  C   UNL     1       6.991  31.139  58.367  1.00  0.00     0.047 A 
HETATM   20  C   UNL     1       5.733  31.709  58.349  1.00  0.00    -0.020 A 
HETATM   21  C   UNL     1       4.628  30.979  57.940  1.00  0.00     0.076 A 
HETATM   22  C   UNL     1       5.326  33.104  58.626  1.00  0.00     0.073 C 
HETATM   23  C   UNL     1       4.724  29.669  57.509  1.00  0.00     0.051 A 
HETATM   24  O   UNL     1       3.461  31.699  57.958  1.00  0.00    -0.345 OA
HETATM   25  C   UNL     1       3.805  32.902  58.695  1.00  0.00     0.129 C 
HETATM   26  C   UNL     1       3.035  34.076  58.115  1.00  0.00     0.040 C 
BRANCH  18  27
HETATM   27  O   UNL     1       8.363  29.250  57.971  1.00  0.00    -0.351 OA
BRANCH  27  28
HETATM   28  C   UNL     1       9.367  30.257  58.158  1.00  0.00     0.171 C 
HETATM   29  C   UNL     1      10.460  30.061  57.123  1.00  0.00     0.034 C 
ENDBRANCH  27  28
ENDBRANCH  18  27
ENDBRANCH   1  17
TORSDOF 5
ENDMDL
MODEL 5
REMARK VINA RESULT:      -8.5      2.581      3.538
REMARK  5 active torsions:
REMARK  status: ('A' for Active; 'I' for Inactive)
REMARK    1  A    between atoms: C_2  and  O_3 
REMARK    2  A    between atoms: O_3  and  C_4 
REMARK    3  A    between atoms: C_5  and  C_6 
REMARK    4  A    between atoms: C_7  and  C_8 
REMARK       I    between atoms: C_8  and  N_9 
REMARK    5  A    between atoms: N_9  and  C_10 
ROOT
HETATM    1  C   UNL     1       6.733  30.361  57.846  1.00  0.00     0.042 C 
HETATM    2  C   UNL     1       6.027  31.503  57.927  1.00  0.00     0.113 C 
HETATM    3  C   UNL     1       5.268  32.020  56.847  1.00  0.00     0.105 C 
HETATM    4  N   UNL     1       4.634  32.501  56.002  1.00  0.00    -0.191 NA
ENDROOT
BRANCH   2   5
HETATM    5  C   UNL     1       6.137  32.264  59.222  1.00  0.00     0.266 C 
HETATM    6  N   UNL     1       6.607  31.539  60.303  1.00  0.00    -0.321 N 
HETATM    7  H   UNL     1       7.151  30.707  60.110  1.00  0.00     0.169 HD
HETATM    8  O   UNL     1       5.856  33.459  59.254  1.00  0.00    -0.267 OA
BRANCH   6   9
HETATM    9  C   UNL     1       6.684  32.017  61.638  1.00  0.00     0.047 A 
HETATM   10  C   UNL     1       5.545  32.273  62.435  1.00  0.00    -0.035 A 
HETATM   11  C   UNL     1       4.129  31.960  62.028  1.00  0.00     0.050 C 
HETATM   12  C   UNL     1       5.716  32.808  63.726  1.00  0.00     0.009 A 
HETATM   13  C   UNL     1       6.983  33.020  64.255  1.00  0.00     0.001 A 
HETATM   14  C   UNL     1       8.105  32.692  63.504  1.00  0.00     0.009 A 
HETATM   15  C   UNL     1       7.974  32.184  62.201  1.00  0.00    -0.035 A 
HETATM   16  C   UNL     1       9.235  31.877  61.435  1.00  0.00     0.050 C 
ENDBRANCH   6   9
ENDBRANCH   2   5
BRANCH   1  17
HETATM   17  C   UNL     1       6.844  29.478  56.675  1.00  0.00     0.002 A 
HETATM   18  C   UNL     1       8.076  29.356  55.990  1.00  0.00     0.079 A 
HETATM   19  C   UNL     1       8.254  28.421  54.967  1.00  0.00     0.047 A 
HETATM   20  C   UNL     1       7.167  27.652  54.602  1.00  0.00    -0.020 A 
HETATM   21  C   UNL     1       5.946  27.797  55.241  1.00  0.00     0.076 A 
HETATM   22  C   UNL     1       7.084  26.540  53.629  1.00  0.00     0.073 C 
HETATM   23  C   UNL     1       5.757  28.688  56.281  1.00  0.00     0.051 A 
HETATM   24  O   UNL     1       4.980  26.941  54.777  1.00  0.00    -0.345 OA
HETATM   25  C   UNL     1       5.556  26.395  53.560  1.00  0.00     0.129 C 
HETATM   26  C   UNL     1       5.114  24.949  53.409  1.00  0.00     0.040 C 
BRANCH  18  27
HETATM   27  O   UNL     1       9.166  30.103  56.363  1.00  0.00    -0.351 OA
BRANCH  27  28
HETATM   28  C   UNL     1      10.294  29.261  56.636  1.00  0.00     0.171 C 
HETATM   29  C   UNL     1      11.333  30.062  57.401  1.00  0.00     0.034 C 
ENDBRANCH  27  28
ENDBRANCH  18  27
ENDBRANCH   1  17
TORSDOF 5
ENDMDL
MODEL 6
REMARK VINA RESULT:      -8.5      2.010      8.060
REMARK  5 active torsions:
REMARK  status: ('A' for Active; 'I' for Inactive)
REMARK    1  A    between atoms: C_2  and  O_3 
REMARK    2  A    between atoms: O_3  and  C_4 
REMARK    3  A    between atoms: C_5  and  C_6 
REMARK    4  A    between atoms: C_7  and  C_8 
REMARK       I    between atoms: C_8  and  N_9 
REMARK    5  A    between atoms: N_9  and  C_10 
ROOT
HETATM    1  C   UNL     1       7.807  30.023  58.875  1.00  0.00     0.042 C 
HETATM    2  C   UNL     1       8.915  29.978  58.111  1.00  0.00     0.113 C 
HETATM    3  C   UNL     1       9.902  30.995  58.121  1.00  0.00     0.105 C 
HETATM    4  N   UNL     1      10.742  31.794  58.074  1.00  0.00    -0.191 NA
ENDROOT
BRANCH   2   5
HETATM    5  C   UNL     1       9.027  28.807  57.171  1.00  0.00     0.266 C 
HETATM    6  N   UNL     1       7.837  28.171  56.863  1.00  0.00    -0.321 N 
HETATM    7  H   UNL     1       6.979  28.697  56.981  1.00  0.00     0.169 HD
HETATM    8  O   UNL     1      10.121  28.503  56.702  1.00  0.00    -0.267 OA
BRANCH   6   9
HETATM    9  C   UNL     1       7.719  26.984  56.093  1.00  0.00     0.047 A 
HETATM   10  C   UNL     1       7.866  25.689  56.640  1.00  0.00    -0.035 A 
HETATM   11  C   UNL     1       8.039  25.396  58.108  1.00  0.00     0.050 C 
HETATM   12  C   UNL     1       7.796  24.570  55.788  1.00  0.00     0.009 A 
HETATM   13  C   UNL     1       7.515  24.713  54.435  1.00  0.00     0.001 A 
HETATM   14  C   UNL     1       7.289  25.980  53.910  1.00  0.00     0.009 A 
HETATM   15  C   UNL     1       7.379  27.122  54.724  1.00  0.00    -0.035 A 
HETATM   16  C   UNL     1       7.149  28.465  54.080  1.00  0.00     0.050 C 
ENDBRANCH   6   9
ENDBRANCH   2   5
BRANCH   1  17
HETATM   17  C   UNL     1       7.434  31.089  59.817  1.00  0.00     0.002 A 
HETATM   18  C   UNL     1       6.435  32.028  59.470  1.00  0.00     0.079 A 
HETATM   19  C   UNL     1       5.956  32.961  60.393  1.00  0.00     0.047 A 
HETATM   20  C   UNL     1       6.531  32.977  61.649  1.00  0.00    -0.020 A 
HETATM   21  C   UNL     1       7.540  32.087  61.981  1.00  0.00     0.076 A 
HETATM   22  C   UNL     1       6.174  33.782  62.838  1.00  0.00     0.073 C 
HETATM   23  C   UNL     1       8.003  31.131  61.097  1.00  0.00     0.051 A 
HETATM   24  O   UNL     1       7.982  32.219  63.272  1.00  0.00    -0.345 OA
HETATM   25  C   UNL     1       7.398  33.474  63.714  1.00  0.00     0.129 C 
HETATM   26  C   UNL     1       7.047  33.364  65.188  1.00  0.00     0.040 C 
BRANCH  18  27
HETATM   27  O   UNL     1       5.846  32.003  58.231  1.00  0.00    -0.351 OA
BRANCH  27  28
HETATM   28  C   UNL     1       4.452  31.681  58.333  1.00  0.00     0.171 C 
HETATM   29  C   UNL     1       4.210  30.327  57.691  1.00  0.00     0.034 C 
ENDBRANCH  27  28
ENDBRANCH  18  27
ENDBRANCH   1  17
TORSDOF 5
ENDMDL
MODEL 7
REMARK VINA RESULT:      -8.4      4.726      8.861
REMARK  5 active torsions:
REMARK  status: ('A' for Active; 'I' for Inactive)
REMARK    1  A    between atoms: C_2  and  O_3 
REMARK    2  A    between atoms: O_3  and  C_4 
REMARK    3  A    between atoms: C_5  and  C_6 
REMARK    4  A    between atoms: C_7  and  C_8 
REMARK       I    between atoms: C_8  and  N_9 
REMARK    5  A    between atoms: N_9  and  C_10 
ROOT
HETATM    1  C   UNL     1       5.665  25.625  52.781  1.00  0.00     0.042 C 
HETATM    2  C   UNL     1       5.930  26.924  52.546  1.00  0.00     0.113 C 
HETATM    3  C   UNL     1       6.963  27.634  53.208  1.00  0.00     0.105 C 
HETATM    4  N   UNL     1       7.785  28.275  53.718  1.00  0.00    -0.191 NA
ENDROOT
BRANCH   2   5
HETATM    5  C   UNL     1       5.013  27.625  51.579  1.00  0.00     0.266 C 
HETATM    6  N   UNL     1       5.370  27.535  50.245  1.00  0.00    -0.321 N 
HETATM    7  H   UNL     1       5.971  26.768  49.970  1.00  0.00     0.169 HD
HETATM    8  O   UNL     1       4.004  28.190  51.994  1.00  0.00    -0.267 OA
BRANCH   6   9
HETATM    9  C   UNL     1       4.721  28.210  49.177  1.00  0.00     0.047 A 
HETATM   10  C   UNL     1       4.921  29.580  48.891  1.00  0.00    -0.035 A 
HETATM   11  C   UNL     1       5.925  30.460  49.588  1.00  0.00     0.050 C 
HETATM   12  C   UNL     1       4.185  30.180  47.852  1.00  0.00     0.009 A 
HETATM   13  C   UNL     1       3.321  29.435  47.059  1.00  0.00     0.001 A 
HETATM   14  C   UNL     1       3.185  28.071  47.285  1.00  0.00     0.009 A 
HETATM   15  C   UNL     1       3.880  27.443  48.332  1.00  0.00    -0.035 A 
HETATM   16  C   UNL     1       3.662  25.965  48.536  1.00  0.00     0.050 C 
ENDBRANCH   6   9
ENDBRANCH   2   5
BRANCH   1  17
HETATM   17  C   UNL     1       6.367  24.744  53.726  1.00  0.00     0.002 A 
HETATM   18  C   UNL     1       6.165  24.888  55.119  1.00  0.00     0.079 A 
HETATM   19  C   UNL     1       6.701  23.979  56.034  1.00  0.00     0.047 A 
HETATM   20  C   UNL     1       7.488  22.957  55.540  1.00  0.00    -0.020 A 
HETATM   21  C   UNL     1       7.725  22.836  54.180  1.00  0.00     0.076 A 
HETATM   22  C   UNL     1       8.107  21.816  56.250  1.00  0.00     0.073 C 
HETATM   23  C   UNL     1       7.175  23.701  53.253  1.00  0.00     0.051 A 
HETATM   24  O   UNL     1       8.504  21.755  53.855  1.00  0.00    -0.345 OA
HETATM   25  C   UNL     1       9.031  21.309  55.133  1.00  0.00     0.129 C 
HETATM   26  C   UNL     1       9.149  19.794  55.118  1.00  0.00     0.040 C 
BRANCH  18  27
HETATM   27  O   UNL     1       5.366  25.889  55.614  1.00  0.00    -0.351 OA
BRANCH  27  28
HETATM   28  C   UNL     1       6.016  26.577  56.692  1.00  0.00     0.171 C 
HETATM   29  C   UNL     1       5.478  27.994  56.767  1.00  0.00     0.034 C 
ENDBRANCH  27  28
ENDBRANCH  18  27
ENDBRANCH   1  17
TORSDOF 5
ENDMDL
MODEL 8
REMARK VINA RESULT:      -8.4      2.531      4.253
REMARK  5 active torsions:
REMARK  status: ('A' for Active; 'I' for Inactive)
REMARK    1  A    between atoms: C_2  and  O_3 
REMARK    2  A    between atoms: O_3  and  C_4 
REMARK    3  A    between atoms: C_5  and  C_6 
REMARK    4  A    between atoms: C_7  and  C_8 
REMARK       I    between atoms: C_8  and  N_9 
REMARK    5  A    between atoms: N_9  and  C_10 
ROOT
HETATM    1  C   UNL     1       7.312  26.658  55.088  1.00  0.00     0.042 C 
HETATM    2  C   UNL     1       6.486  27.089  56.060  1.00  0.00     0.113 C 
HETATM    3  C   UNL     1       5.558  26.241  56.717  1.00  0.00     0.105 C 
HETATM    4  N   UNL     1       4.773  25.605  57.288  1.00  0.00    -0.191 NA
ENDROOT
BRANCH   2   5
HETATM    5  C   UNL     1       6.541  28.559  56.377  1.00  0.00     0.266 C 
HETATM    6  N   UNL     1       5.886  28.946  57.533  1.00  0.00    -0.321 N 
HETATM    7  H   UNL     1       5.726  28.240  58.242  1.00  0.00     0.169 HD
HETATM    8  O   UNL     1       7.174  29.318  55.648  1.00  0.00    -0.267 OA
BRANCH   6   9
HETATM    9  C   UNL     1       5.711  30.288  57.965  1.00  0.00     0.047 A 
HETATM   10  C   UNL     1       6.693  31.002  58.689  1.00  0.00    -0.035 A 
HETATM   11  C   UNL     1       8.079  30.490  58.983  1.00  0.00     0.050 C 
HETATM   12  C   UNL     1       6.407  32.307  59.132  1.00  0.00     0.009 A 
HETATM   13  C   UNL     1       5.207  32.929  58.810  1.00  0.00     0.001 A 
HETATM   14  C   UNL     1       4.273  32.259  58.029  1.00  0.00     0.009 A 
HETATM   15  C   UNL     1       4.511  30.945  57.594  1.00  0.00    -0.035 A 
HETATM   16  C   UNL     1       3.441  30.270  56.774  1.00  0.00     0.050 C 
ENDBRANCH   6   9
ENDBRANCH   2   5
BRANCH   1  17
HETATM   17  C   UNL     1       7.399  25.292  54.553  1.00  0.00     0.002 A 
HETATM   18  C   UNL     1       7.347  25.069  53.156  1.00  0.00     0.079 A 
HETATM   19  C   UNL     1       7.572  23.804  52.608  1.00  0.00     0.047 A 
HETATM   20  C   UNL     1       7.793  22.755  53.480  1.00  0.00    -0.020 A 
HETATM   21  C   UNL     1       7.803  22.959  54.851  1.00  0.00     0.076 A 
HETATM   22  C   UNL     1       8.140  21.346  53.190  1.00  0.00     0.073 C 
HETATM   23  C   UNL     1       7.621  24.208  55.414  1.00  0.00     0.051 A 
HETATM   24  O   UNL     1       8.061  21.822  55.571  1.00  0.00    -0.345 OA
HETATM   25  C   UNL     1       7.937  20.755  54.593  1.00  0.00     0.129 C 
HETATM   26  C   UNL     1       8.945  19.665  54.918  1.00  0.00     0.040 C 
BRANCH  18  27
HETATM   27  O   UNL     1       7.149  26.111  52.285  1.00  0.00    -0.351 OA
BRANCH  27  28
HETATM   28  C   UNL     1       5.889  25.983  51.612  1.00  0.00     0.171 C 
HETATM   29  C   UNL     1       4.999  27.147  52.007  1.00  0.00     0.034 C 
ENDBRANCH  27  28
ENDBRANCH  18  27
ENDBRANCH   1  17
TORSDOF 5
ENDMDL
MODEL 9
REMARK VINA RESULT:      -8.4      4.236      6.313
REMARK  5 active torsions:
REMARK  status: ('A' for Active; 'I' for Inactive)
REMARK    1  A    between atoms: C_2  and  O_3 
REMARK    2  A    between atoms: O_3  and  C_4 
REMARK    3  A    between atoms: C_5  and  C_6 
REMARK    4  A    between atoms: C_7  and  C_8 
REMARK       I    between atoms: C_8  and  N_9 
REMARK    5  A    between atoms: N_9  and  C_10 
ROOT
HETATM    1  C   UNL     1       5.303  26.244  54.132  1.00  0.00     0.042 C 
HETATM    2  C   UNL     1       5.645  27.526  53.901  1.00  0.00     0.113 C 
HETATM    3  C   UNL     1       6.989  27.977  53.893  1.00  0.00     0.105 C 
HETATM    4  N   UNL     1       8.065  28.413  53.879  1.00  0.00    -0.191 NA
ENDROOT
BRANCH   2   5
HETATM    5  C   UNL     1       4.509  28.496  53.719  1.00  0.00     0.266 C 
HETATM    6  N   UNL     1       4.807  29.822  53.981  1.00  0.00    -0.321 N 
HETATM    7  H   UNL     1       5.778  30.104  53.932  1.00  0.00     0.169 HD
HETATM    8  O   UNL     1       3.418  28.092  53.322  1.00  0.00    -0.267 OA
BRANCH   6   9
HETATM    9  C   UNL     1       3.867  30.887  53.985  1.00  0.00     0.047 A 
HETATM   10  C   UNL     1       3.137  31.270  55.133  1.00  0.00    -0.035 A 
HETATM   11  C   UNL     1       3.347  30.696  56.511  1.00  0.00     0.050 C 
HETATM   12  C   UNL     1       2.179  32.296  55.029  1.00  0.00     0.009 A 
HETATM   13  C   UNL     1       1.989  32.984  53.836  1.00  0.00     0.001 A 
HETATM   14  C   UNL     1       2.763  32.664  52.728  1.00  0.00     0.009 A 
HETATM   15  C   UNL     1       3.709  31.626  52.786  1.00  0.00    -0.035 A 
HETATM   16  C   UNL     1       4.492  31.316  51.537  1.00  0.00     0.050 C 
ENDBRANCH   6   9
ENDBRANCH   2   5
BRANCH   1  17
HETATM   17  C   UNL     1       6.219  25.127  54.405  1.00  0.00     0.002 A 
HETATM   18  C   UNL     1       6.587  24.818  55.736  1.00  0.00     0.079 A 
HETATM   19  C   UNL     1       7.337  23.679  56.042  1.00  0.00     0.047 A 
HETATM   20  C   UNL     1       7.761  22.887  54.993  1.00  0.00    -0.020 A 
HETATM   21  C   UNL     1       7.439  23.208  53.684  1.00  0.00     0.076 A 
HETATM   22  C   UNL     1       8.482  21.595  55.019  1.00  0.00     0.073 C 
HETATM   23  C   UNL     1       6.667  24.309  53.360  1.00  0.00     0.051 A 
HETATM   24  O   UNL     1       7.914  22.306  52.767  1.00  0.00    -0.345 OA
HETATM   25  C   UNL     1       8.844  21.492  53.530  1.00  0.00     0.129 C 
HETATM   26  C   UNL     1       8.787  20.063  53.015  1.00  0.00     0.040 C 
BRANCH  18  27
HETATM   27  O   UNL     1       6.151  25.590  56.784  1.00  0.00    -0.351 OA
BRANCH  27  28
HETATM   28  C   UNL     1       7.225  25.874  57.692  1.00  0.00     0.171 C 
HETATM   29  C   UNL     1       7.734  27.280  57.429  1.00  0.00     0.034 C 
ENDBRANCH  27  28
ENDBRANCH  18  27
ENDBRANCH   1  17
TORSDOF 5
ENDMDL
MODEL 10
REMARK VINA RESULT:      -8.3      5.338      9.337
REMARK  5 active torsions:
REMARK  status: ('A' for Active; 'I' for Inactive)
REMARK    1  A    between atoms: C_2  and  O_3 
REMARK    2  A    between atoms: O_3  and  C_4 
REMARK    3  A    between atoms: C_5  and  C_6 
REMARK    4  A    between atoms: C_7  and  C_8 
REMARK       I    between atoms: C_8  and  N_9 
REMARK    5  A    between atoms: N_9  and  C_10 
ROOT
HETATM    1  C   UNL     1       5.802  25.631  51.772  1.00  0.00     0.042 C 
HETATM    2  C   UNL     1       5.886  26.967  51.637  1.00  0.00     0.113 C 
HETATM    3  C   UNL     1       6.571  27.796  52.561  1.00  0.00     0.105 C 
HETATM    4  N   UNL     1       7.108  28.531  53.281  1.00  0.00    -0.191 NA
ENDROOT
BRANCH   2   5
HETATM    5  C   UNL     1       5.142  27.566  50.473  1.00  0.00     0.266 C 
HETATM    6  N   UNL     1       3.817  27.185  50.350  1.00  0.00    -0.321 N 
HETATM    7  H   UNL     1       3.348  26.840  51.179  1.00  0.00     0.169 HD
HETATM    8  O   UNL     1       5.707  28.369  49.735  1.00  0.00    -0.267 OA
BRANCH   6   9
HETATM    9  C   UNL     1       2.962  27.533  49.272  1.00  0.00     0.047 A 
HETATM   10  C   UNL     1       2.802  26.730  48.119  1.00  0.00    -0.035 A 
HETATM   11  C   UNL     1       3.410  25.362  47.940  1.00  0.00     0.050 C 
HETATM   12  C   UNL     1       1.982  27.186  47.071  1.00  0.00     0.009 A 
HETATM   13  C   UNL     1       1.272  28.376  47.179  1.00  0.00     0.001 A 
HETATM   14  C   UNL     1       1.362  29.127  48.344  1.00  0.00     0.009 A 
HETATM   15  C   UNL     1       2.194  28.718  49.400  1.00  0.00    -0.035 A 
HETATM   16  C   UNL     1       2.264  29.597  50.622  1.00  0.00     0.050 C 
ENDBRANCH   6   9
ENDBRANCH   2   5
BRANCH   1  17
HETATM   17  C   UNL     1       6.379  24.821  52.855  1.00  0.00     0.002 A 
HETATM   18  C   UNL     1       5.959  25.016  54.192  1.00  0.00     0.079 A 
HETATM   19  C   UNL     1       6.378  24.170  55.222  1.00  0.00     0.047 A 
HETATM   20  C   UNL     1       7.267  23.161  54.904  1.00  0.00    -0.020 A 
HETATM   21  C   UNL     1       7.715  22.991  53.604  1.00  0.00     0.076 A 
HETATM   22  C   UNL     1       7.807  22.078  55.756  1.00  0.00     0.073 C 
HETATM   23  C   UNL     1       7.285  23.793  52.563  1.00  0.00     0.051 A 
HETATM   24  O   UNL     1       8.571  21.931  53.454  1.00  0.00    -0.345 OA
HETATM   25  C   UNL     1       8.909  21.562  54.818  1.00  0.00     0.129 C 
HETATM   26  C   UNL     1       9.080  20.054  54.895  1.00  0.00     0.040 C 
BRANCH  18  27
HETATM   27  O   UNL     1       5.060  26.003  54.510  1.00  0.00    -0.351 OA
BRANCH  27  28
HETATM   28  C   UNL     1       5.330  26.543  55.811  1.00  0.00     0.171 C 
HETATM   29  C   UNL     1       4.684  27.912  55.920  1.00  0.00     0.034 C 
ENDBRANCH  27  28
ENDBRANCH  18  27
ENDBRANCH   1  17
TORSDOF 5
ENDMDL
