MODEL 1
REMARK VINA RESULT:     -11.2      0.000      0.000
REMARK  7 active torsions:
REMARK  status: ('A' for Active; 'I' for Inactive)
REMARK    1  A    between atoms: C_2  and  O_3 
REMARK    2  A    between atoms: O_3  and  C_4 
REMARK    3  A    between atoms: C_5  and  O_6 
REMARK    4  A    between atoms: C_7  and  C_8 
REMARK    5  A    between atoms: N_9  and  N_10 
REMARK       I    between atoms: N_10  and  C_11 
REMARK    6  A    between atoms: C_11  and  C_12 
REMARK    7  A    between atoms: C_16  and  C_17 
ROOT
HETATM    1  C   UNL     1       7.642  29.788  57.976  1.00  0.00     0.121 A 
HETATM    2  N   UNL     1       8.939  29.362  57.905  1.00  0.00    -0.272 N 
HETATM    3  H   UNL     1       9.735  29.759  58.397  1.00  0.00     0.189 HD
HETATM    4  N   UNL     1       9.139  28.343  57.057  1.00  0.00    -0.174 NA
HETATM    5  C   UNL     1       7.922  28.058  56.571  1.00  0.00     0.090 A 
HETATM    6  C   UNL     1       6.950  28.932  57.143  1.00  0.00     0.071 A 
ENDROOT
BRANCH   1   7
HETATM    7  C   UNL     1       7.277  30.927  58.781  1.00  0.00     0.289 C 
HETATM    8  N   UNL     1       7.576  30.803  60.128  1.00  0.00    -0.242 N 
HETATM    9  H   UNL     1       8.013  29.961  60.479  1.00  0.00     0.192 HD
HETATM   10  O   UNL     1       6.713  31.898  58.282  1.00  0.00    -0.264 OA
BRANCH   8  11
HETATM   11  N   UNL     1       7.098  31.717  61.023  1.00  0.00    -0.183 NA
HETATM   12  C   UNL     1       7.456  31.529  62.254  1.00  0.00     0.153 C 
BRANCH  12  13
HETATM   13  C   UNL     1       6.958  32.389  63.345  1.00  0.00     0.019 A 
HETATM   14  C   UNL     1       5.585  32.532  63.554  1.00  0.00     0.110 A 
HETATM   15  C   UNL     1       5.094  33.390  64.549  1.00  0.00     0.102 A 
HETATM   16  C   UNL     1       5.996  34.090  65.352  1.00  0.00     0.040 A 
HETATM   17  C   UNL     1       7.372  33.943  65.153  1.00  0.00     0.004 A 
HETATM   18  C   UNL     1       7.854  33.098  64.150  1.00  0.00     0.016 A 
BRANCH  14  19
HETATM   19  O   UNL     1       4.687  31.844  62.776  1.00  0.00    -0.357 OA
HETATM   20  H   UNL     1       5.022  31.935  61.861  1.00  0.00     0.218 HD
ENDBRANCH  14  19
BRANCH  15  21
HETATM   21  O   UNL     1       3.726  33.450  64.632  1.00  0.00    -0.349 OA
BRANCH  21  22
HETATM   22  C   UNL     1       3.104  34.623  64.102  1.00  0.00     0.171 C 
HETATM   23  C   UNL     1       2.233  34.198  62.933  1.00  0.00     0.034 C 
ENDBRANCH  21  22
ENDBRANCH  15  21
ENDBRANCH  12  13
ENDBRANCH   8  11
ENDBRANCH   1   7
BRANCH   5  24
HETATM   24  C   UNL     1       7.698  27.027  55.548  1.00  0.00     0.005 A 
HETATM   25  C   UNL     1       7.881  25.634  55.805  1.00  0.00    -0.012 A 
HETATM   26  C   UNL     1       7.660  24.793  54.739  1.00  0.00    -0.012 A 
HETATM   27  C   UNL     1       8.253  24.978  57.007  1.00  0.00     0.013 A 
HETATM   28  C   UNL     1       7.796  23.417  54.785  1.00  0.00    -0.046 A 
HETATM   29  C   UNL     1       7.276  25.212  53.479  1.00  0.00    -0.046 A 
HETATM   30  C   UNL     1       8.171  22.766  55.951  1.00  0.00     0.008 A 
HETATM   31  C   UNL     1       7.495  22.819  53.456  1.00  0.00     0.044 A 
HETATM   32  C   UNL     1       8.396  23.577  57.070  1.00  0.00     0.001 A 
HETATM   33  C   UNL     1       7.130  24.046  52.565  1.00  0.00     0.044 A 
HETATM   34  C   UNL     1       7.083  26.553  53.193  1.00  0.00     0.009 A 
HETATM   35  C   UNL     1       7.304  27.451  54.249  1.00  0.00     0.015 A 
ENDBRANCH   5  24
TORSDOF 7
ENDMDL
MODEL 2
REMARK VINA RESULT:     -11.2      0.871      2.117
REMARK  7 active torsions:
REMARK  status: ('A' for Active; 'I' for Inactive)
REMARK    1  A    between atoms: C_2  and  O_3 
REMARK    2  A    between atoms: O_3  and  C_4 
REMARK    3  A    between atoms: C_5  and  O_6 
REMARK    4  A    between atoms: C_7  and  C_8 
REMARK    5  A    between atoms: N_9  and  N_10 
REMARK       I    between atoms: N_10  and  C_11 
REMARK    6  A    between atoms: C_11  and  C_12 
REMARK    7  A    between atoms: C_16  and  C_17 
ROOT
HETATM    1  C   UNL     1       7.335  29.314  57.427  1.00  0.00     0.121 A 
HETATM    2  N   UNL     1       7.702  29.469  56.119  1.00  0.00    -0.272 N 
HETATM    3  H   UNL     1       7.772  30.346  55.611  1.00  0.00     0.189 HD
HETATM    4  N   UNL     1       7.943  28.319  55.475  1.00  0.00    -0.174 NA
HETATM    5  C   UNL     1       7.761  27.363  56.397  1.00  0.00     0.090 A 
HETATM    6  C   UNL     1       7.400  27.952  57.646  1.00  0.00     0.071 A 
ENDROOT
BRANCH   1   7
HETATM    7  C   UNL     1       6.963  30.448  58.235  1.00  0.00     0.289 C 
HETATM    8  N   UNL     1       7.653  30.556  59.433  1.00  0.00    -0.242 N 
HETATM    9  H   UNL     1       8.351  29.869  59.684  1.00  0.00     0.192 HD
HETATM   10  O   UNL     1       6.075  31.217  57.875  1.00  0.00    -0.264 OA
BRANCH   8  11
HETATM   11  N   UNL     1       7.253  31.460  60.374  1.00  0.00    -0.183 NA
HETATM   12  C   UNL     1       7.605  31.189  61.591  1.00  0.00     0.153 C 
BRANCH  12  13
HETATM   13  C   UNL     1       7.183  32.031  62.726  1.00  0.00     0.019 A 
HETATM   14  C   UNL     1       5.826  32.206  63.002  1.00  0.00     0.110 A 
HETATM   15  C   UNL     1       5.407  33.050  64.041  1.00  0.00     0.102 A 
HETATM   16  C   UNL     1       6.364  33.702  64.821  1.00  0.00     0.040 A 
HETATM   17  C   UNL     1       7.725  33.521  64.554  1.00  0.00     0.004 A 
HETATM   18  C   UNL     1       8.136  32.691  63.508  1.00  0.00     0.016 A 
BRANCH  14  19
HETATM   19  O   UNL     1       4.873  31.567  62.249  1.00  0.00    -0.357 OA
HETATM   20  H   UNL     1       5.118  30.620  62.281  1.00  0.00     0.218 HD
ENDBRANCH  14  19
BRANCH  15  21
HETATM   21  O   UNL     1       4.046  33.146  64.190  1.00  0.00    -0.349 OA
BRANCH  21  22
HETATM   22  C   UNL     1       3.458  34.413  63.884  1.00  0.00     0.171 C 
HETATM   23  C   UNL     1       2.422  34.193  62.796  1.00  0.00     0.034 C 
ENDBRANCH  21  22
ENDBRANCH  15  21
ENDBRANCH  12  13
ENDBRANCH   8  11
ENDBRANCH   1   7
BRANCH   5  24
HETATM   24  C   UNL     1       7.869  25.931  56.088  1.00  0.00     0.005 A 
HETATM   25  C   UNL     1       7.732  25.415  54.763  1.00  0.00    -0.012 A 
HETATM   26  C   UNL     1       7.831  24.050  54.637  1.00  0.00    -0.012 A 
HETATM   27  C   UNL     1       7.513  26.107  53.543  1.00  0.00     0.013 A 
HETATM   28  C   UNL     1       7.714  23.362  53.442  1.00  0.00    -0.046 A 
HETATM   29  C   UNL     1       8.057  23.182  55.689  1.00  0.00    -0.046 A 
HETATM   30  C   UNL     1       7.488  24.025  52.245  1.00  0.00     0.008 A 
HETATM   31  C   UNL     1       7.859  21.898  53.667  1.00  0.00     0.044 A 
HETATM   32  C   UNL     1       7.391  25.421  52.318  1.00  0.00     0.001 A 
HETATM   33  C   UNL     1       8.103  21.775  55.202  1.00  0.00     0.044 A 
HETATM   34  C   UNL     1       8.202  23.644  56.986  1.00  0.00     0.009 A 
HETATM   35  C   UNL     1       8.101  25.033  57.166  1.00  0.00     0.015 A 
ENDBRANCH   5  24
TORSDOF 7
ENDMDL
MODEL 3
REMARK VINA RESULT:     -10.7      1.627      2.475
REMARK  7 active torsions:
REMARK  status: ('A' for Active; 'I' for Inactive)
REMARK    1  A    between atoms: C_2  and  O_3 
REMARK    2  A    between atoms: O_3  and  C_4 
REMARK    3  A    between atoms: C_5  and  O_6 
REMARK    4  A    between atoms: C_7  and  C_8 
REMARK    5  A    between atoms: N_9  and  N_10 
REMARK       I    between atoms: N_10  and  C_11 
REMARK    6  A    between atoms: C_11  and  C_12 
REMARK    7  A    between atoms: C_16  and  C_17 
ROOT
HETATM    1  C   UNL     1       7.030  28.410  56.129  1.00  0.00     0.121 A 
HETATM    2  N   UNL     1       7.541  28.748  54.907  1.00  0.00    -0.272 N 
HETATM    3  H   UNL     1       7.692  29.689  54.554  1.00  0.00     0.189 HD
HETATM    4  N   UNL     1       7.817  27.702  54.117  1.00  0.00    -0.174 NA
HETATM    5  C   UNL     1       7.508  26.625  54.853  1.00  0.00     0.090 A 
HETATM    6  C   UNL     1       7.030  27.029  56.135  1.00  0.00     0.071 A 
ENDROOT
BRANCH   1   7
HETATM    7  C   UNL     1       6.605  29.422  57.064  1.00  0.00     0.289 C 
HETATM    8  N   UNL     1       7.624  30.235  57.537  1.00  0.00    -0.242 N 
HETATM    9  H   UNL     1       8.576  30.092  57.229  1.00  0.00     0.192 HD
HETATM   10  O   UNL     1       5.432  29.503  57.418  1.00  0.00    -0.264 OA
BRANCH   8  11
HETATM   11  N   UNL     1       7.390  31.090  58.576  1.00  0.00    -0.183 NA
HETATM   12  C   UNL     1       7.876  30.721  59.719  1.00  0.00     0.153 C 
BRANCH  12  13
HETATM   13  C   UNL     1       7.642  31.502  60.948  1.00  0.00     0.019 A 
HETATM   14  C   UNL     1       6.383  32.047  61.203  1.00  0.00     0.110 A 
HETATM   15  C   UNL     1       6.159  32.840  62.338  1.00  0.00     0.102 A 
HETATM   16  C   UNL     1       7.207  33.066  63.232  1.00  0.00     0.040 A 
HETATM   17  C   UNL     1       8.468  32.513  62.986  1.00  0.00     0.004 A 
HETATM   18  C   UNL     1       8.688  31.737  61.846  1.00  0.00     0.016 A 
BRANCH  14  19
HETATM   19  O   UNL     1       5.341  31.829  60.337  1.00  0.00    -0.357 OA
HETATM   20  H   UNL     1       5.748  31.411  59.551  1.00  0.00     0.218 HD
ENDBRANCH  14  19
BRANCH  15  21
HETATM   21  O   UNL     1       4.882  33.328  62.456  1.00  0.00    -0.349 OA
BRANCH  21  22
HETATM   22  C   UNL     1       4.751  34.739  62.640  1.00  0.00     0.171 C 
HETATM   23  C   UNL     1       4.553  35.370  61.273  1.00  0.00     0.034 C 
ENDBRANCH  21  22
ENDBRANCH  15  21
ENDBRANCH  12  13
ENDBRANCH   8  11
ENDBRANCH   1   7
BRANCH   5  24
HETATM   24  C   UNL     1       7.607  25.254  54.332  1.00  0.00     0.005 A 
HETATM   25  C   UNL     1       7.879  24.129  55.169  1.00  0.00    -0.012 A 
HETATM   26  C   UNL     1       7.970  22.914  54.531  1.00  0.00    -0.012 A 
HETATM   27  C   UNL     1       8.066  24.073  56.575  1.00  0.00     0.013 A 
HETATM   28  C   UNL     1       8.238  21.714  55.164  1.00  0.00    -0.046 A 
HETATM   29  C   UNL     1       7.809  22.732  53.170  1.00  0.00    -0.046 A 
HETATM   30  C   UNL     1       8.435  21.648  56.535  1.00  0.00     0.008 A 
HETATM   31  C   UNL     1       8.280  20.601  54.177  1.00  0.00     0.044 A 
HETATM   32  C   UNL     1       8.340  22.858  57.235  1.00  0.00     0.001 A 
HETATM   33  C   UNL     1       7.976  21.296  52.814  1.00  0.00     0.044 A 
HETATM   34  C   UNL     1       7.538  23.796  52.327  1.00  0.00     0.009 A 
HETATM   35  C   UNL     1       7.443  25.060  52.933  1.00  0.00     0.015 A 
ENDBRANCH   5  24
TORSDOF 7
ENDMDL
MODEL 4
REMARK VINA RESULT:     -10.1      1.451      2.862
REMARK  7 active torsions:
REMARK  status: ('A' for Active; 'I' for Inactive)
REMARK    1  A    between atoms: C_2  and  O_3 
REMARK    2  A    between atoms: O_3  and  C_4 
REMARK    3  A    between atoms: C_5  and  O_6 
REMARK    4  A    between atoms: C_7  and  C_8 
REMARK    5  A    between atoms: N_9  and  N_10 
REMARK       I    between atoms: N_10  and  C_11 
REMARK    6  A    between atoms: C_11  and  C_12 
REMARK    7  A    between atoms: C_16  and  C_17 
ROOT
HETATM    1  C   UNL     1       7.032  28.512  57.460  1.00  0.00     0.121 A 
HETATM    2  N   UNL     1       8.396  28.475  57.374  1.00  0.00    -0.272 N 
HETATM    3  H   UNL     1       9.036  29.232  57.593  1.00  0.00     0.189 HD
HETATM    4  N   UNL     1       8.887  27.317  56.913  1.00  0.00    -0.174 NA
HETATM    5  C   UNL     1       7.811  26.542  56.714  1.00  0.00     0.090 A 
HETATM    6  C   UNL     1       6.625  27.252  57.068  1.00  0.00     0.071 A 
ENDROOT
BRANCH   1   7
HETATM    7  C   UNL     1       6.344  29.714  57.861  1.00  0.00     0.289 C 
HETATM    8  N   UNL     1       7.108  30.593  58.614  1.00  0.00    -0.242 N 
HETATM    9  H   UNL     1       8.067  30.368  58.844  1.00  0.00     0.192 HD
HETATM   10  O   UNL     1       5.163  29.893  57.572  1.00  0.00    -0.264 OA
BRANCH   8  11
HETATM   11  N   UNL     1       6.518  31.661  59.226  1.00  0.00    -0.183 NA
HETATM   12  C   UNL     1       6.359  31.549  60.507  1.00  0.00     0.153 C 
BRANCH  12  13
HETATM   13  C   UNL     1       5.670  32.588  61.296  1.00  0.00     0.019 A 
HETATM   14  C   UNL     1       5.379  32.368  62.643  1.00  0.00     0.110 A 
HETATM   15  C   UNL     1       4.674  33.321  63.391  1.00  0.00     0.102 A 
HETATM   16  C   UNL     1       4.280  34.514  62.782  1.00  0.00     0.040 A 
HETATM   17  C   UNL     1       4.578  34.743  61.435  1.00  0.00     0.004 A 
HETATM   18  C   UNL     1       5.268  33.783  60.691  1.00  0.00     0.016 A 
BRANCH  14  19
HETATM   19  O   UNL     1       5.765  31.203  63.258  1.00  0.00    -0.357 OA
HETATM   20  H   UNL     1       5.451  31.287  64.181  1.00  0.00     0.218 HD
ENDBRANCH  14  19
BRANCH  15  21
HETATM   21  O   UNL     1       4.438  32.968  64.697  1.00  0.00    -0.349 OA
BRANCH  21  22
HETATM   22  C   UNL     1       4.896  33.879  65.698  1.00  0.00     0.171 C 
HETATM   23  C   UNL     1       6.412  33.810  65.731  1.00  0.00     0.034 C 
ENDBRANCH  21  22
ENDBRANCH  15  21
ENDBRANCH  12  13
ENDBRANCH   8  11
ENDBRANCH   1   7
BRANCH   5  24
HETATM   24  C   UNL     1       7.902  25.189  56.147  1.00  0.00     0.005 A 
HETATM   25  C   UNL     1       7.807  24.931  54.746  1.00  0.00    -0.012 A 
HETATM   26  C   UNL     1       7.882  23.609  54.372  1.00  0.00    -0.012 A 
HETATM   27  C   UNL     1       7.651  25.841  53.668  1.00  0.00     0.013 A 
HETATM   28  C   UNL     1       7.799  23.158  53.068  1.00  0.00    -0.046 A 
HETATM   29  C   UNL     1       8.048  22.557  55.252  1.00  0.00    -0.046 A 
HETATM   30  C   UNL     1       7.634  24.036  52.007  1.00  0.00     0.008 A 
HETATM   31  C   UNL     1       7.904  21.674  53.022  1.00  0.00     0.044 A 
HETATM   32  C   UNL     1       7.564  25.397  52.334  1.00  0.00     0.001 A 
HETATM   33  C   UNL     1       8.084  21.263  54.515  1.00  0.00     0.044 A 
HETATM   34  C   UNL     1       8.151  22.767  56.617  1.00  0.00     0.009 A 
HETATM   35  C   UNL     1       8.072  24.101  57.048  1.00  0.00     0.015 A 
ENDBRANCH   5  24
TORSDOF 7
ENDMDL
MODEL 5
REMARK VINA RESULT:     -10.0      2.891     11.553
REMARK  7 active torsions:
REMARK  status: ('A' for Active; 'I' for Inactive)
REMARK    1  A    between atoms: C_2  and  O_3 
REMARK    2  A    between atoms: O_3  and  C_4 
REMARK    3  A    between atoms: C_5  and  O_6 
REMARK    4  A    between atoms: C_7  and  C_8 
REMARK    5  A    between atoms: N_9  and  N_10 
REMARK       I    between atoms: N_10  and  C_11 
REMARK    6  A    between atoms: C_11  and  C_12 
REMARK    7  A    between atoms: C_16  and  C_17 
ROOT
HETATM    1  C   UNL     1       8.013  30.098  58.250  1.00  0.00     0.121 A 
HETATM    2  N   UNL     1       7.306  31.183  57.812  1.00  0.00    -0.272 N 
HETATM    3  H   UNL     1       7.059  31.397  56.850  1.00  0.00     0.189 HD
HETATM    4  N   UNL     1       6.962  32.043  58.781  1.00  0.00    -0.174 NA
HETATM    5  C   UNL     1       7.430  31.493  59.910  1.00  0.00     0.090 A 
HETATM    6  C   UNL     1       8.078  30.256  59.620  1.00  0.00     0.071 A 
ENDROOT
BRANCH   1   7
HETATM    7  C   UNL     1       8.527  29.122  57.321  1.00  0.00     0.289 C 
HETATM    8  N   UNL     1       7.566  28.298  56.758  1.00  0.00    -0.242 N 
HETATM    9  H   UNL     1       6.591  28.403  57.009  1.00  0.00     0.192 HD
HETATM   10  O   UNL     1       9.732  29.033  57.100  1.00  0.00    -0.264 OA
BRANCH   8  11
HETATM   11  N   UNL     1       7.941  27.207  56.028  1.00  0.00    -0.183 NA
HETATM   12  C   UNL     1       7.102  26.832  55.115  1.00  0.00     0.153 C 
BRANCH  12  13
HETATM   13  C   UNL     1       7.334  25.626  54.298  1.00  0.00     0.019 A 
HETATM   14  C   UNL     1       7.272  24.361  54.882  1.00  0.00     0.110 A 
HETATM   15  C   UNL     1       7.546  23.208  54.132  1.00  0.00     0.102 A 
HETATM   16  C   UNL     1       7.862  23.332  52.778  1.00  0.00     0.040 A 
HETATM   17  C   UNL     1       7.915  24.598  52.186  1.00  0.00     0.004 A 
HETATM   18  C   UNL     1       7.656  25.743  52.942  1.00  0.00     0.016 A 
BRANCH  14  19
HETATM   19  O   UNL     1       6.956  24.222  56.211  1.00  0.00    -0.357 OA
HETATM   20  H   UNL     1       7.528  24.865  56.676  1.00  0.00     0.218 HD
ENDBRANCH  14  19
BRANCH  15  21
HETATM   21  O   UNL     1       7.469  22.032  54.836  1.00  0.00    -0.349 OA
BRANCH  21  22
HETATM   22  C   UNL     1       7.895  20.850  54.154  1.00  0.00     0.171 C 
HETATM   23  C   UNL     1       8.703  20.016  55.132  1.00  0.00     0.034 C 
ENDBRANCH  21  22
ENDBRANCH  15  21
ENDBRANCH  12  13
ENDBRANCH   8  11
ENDBRANCH   1   7
BRANCH   5  24
HETATM   24  C   UNL     1       7.316  32.152  61.219  1.00  0.00     0.005 A 
HETATM   25  C   UNL     1       6.292  33.100  61.520  1.00  0.00    -0.012 A 
HETATM   26  C   UNL     1       6.334  33.652  62.779  1.00  0.00    -0.012 A 
HETATM   27  C   UNL     1       5.221  33.560  60.709  1.00  0.00     0.013 A 
HETATM   28  C   UNL     1       5.439  34.594  63.252  1.00  0.00    -0.046 A 
HETATM   29  C   UNL     1       7.279  33.339  63.737  1.00  0.00    -0.046 A 
HETATM   30  C   UNL     1       4.397  35.061  62.466  1.00  0.00     0.008 A 
HETATM   31  C   UNL     1       5.783  34.985  64.646  1.00  0.00     0.044 A 
HETATM   32  C   UNL     1       4.302  34.521  61.177  1.00  0.00     0.001 A 
HETATM   33  C   UNL     1       7.036  34.119  64.982  1.00  0.00     0.044 A 
HETATM   34  C   UNL     1       8.284  32.420  63.486  1.00  0.00     0.009 A 
HETATM   35  C   UNL     1       8.286  31.835  62.210  1.00  0.00     0.015 A 
ENDBRANCH   5  24
TORSDOF 7
ENDMDL
MODEL 6
REMARK VINA RESULT:     -10.0      1.917      2.860
REMARK  7 active torsions:
REMARK  status: ('A' for Active; 'I' for Inactive)
REMARK    1  A    between atoms: C_2  and  O_3 
REMARK    2  A    between atoms: O_3  and  C_4 
REMARK    3  A    between atoms: C_5  and  O_6 
REMARK    4  A    between atoms: C_7  and  C_8 
REMARK    5  A    between atoms: N_9  and  N_10 
REMARK       I    between atoms: N_10  and  C_11 
REMARK    6  A    between atoms: C_11  and  C_12 
REMARK    7  A    between atoms: C_16  and  C_17 
ROOT
HETATM    1  C   UNL     1       7.577  28.775  56.526  1.00  0.00     0.121 A 
HETATM    2  N   UNL     1       7.043  29.116  55.314  1.00  0.00    -0.272 N 
HETATM    3  H   UNL     1       6.677  30.026  55.049  1.00  0.00     0.189 HD
HETATM    4  N   UNL     1       6.980  28.106  54.436  1.00  0.00    -0.174 NA
HETATM    5  C   UNL     1       7.522  27.060  55.076  1.00  0.00     0.090 A 
HETATM    6  C   UNL     1       7.931  27.447  56.387  1.00  0.00     0.071 A 
ENDROOT
BRANCH   1   7
HETATM    7  C   UNL     1       7.640  29.728  57.606  1.00  0.00     0.289 C 
HETATM    8  N   UNL     1       6.408  30.197  58.035  1.00  0.00    -0.242 N 
HETATM    9  H   UNL     1       5.557  29.874  57.595  1.00  0.00     0.192 HD
HETATM   10  O   UNL     1       8.720  30.099  58.059  1.00  0.00    -0.264 OA
BRANCH   8  11
HETATM   11  N   UNL     1       6.341  31.249  58.903  1.00  0.00    -0.183 NA
HETATM   12  C   UNL     1       5.152  31.714  59.121  1.00  0.00     0.153 C 
BRANCH  12  13
HETATM   13  C   UNL     1       4.927  32.896  59.976  1.00  0.00     0.019 A 
HETATM   14  C   UNL     1       5.162  32.822  61.349  1.00  0.00     0.110 A 
HETATM   15  C   UNL     1       4.899  33.919  62.184  1.00  0.00     0.102 A 
HETATM   16  C   UNL     1       4.417  35.103  61.624  1.00  0.00     0.040 A 
HETATM   17  C   UNL     1       4.190  35.184  60.246  1.00  0.00     0.004 A 
HETATM   18  C   UNL     1       4.440  34.084  59.423  1.00  0.00     0.016 A 
BRANCH  14  19
HETATM   19  O   UNL     1       5.642  31.666  61.913  1.00  0.00    -0.357 OA
HETATM   20  H   UNL     1       6.219  31.962  62.647  1.00  0.00     0.218 HD
ENDBRANCH  14  19
BRANCH  15  21
HETATM   21  O   UNL     1       5.156  33.703  63.514  1.00  0.00    -0.349 OA
BRANCH  21  22
HETATM   22  C   UNL     1       6.249  34.430  64.080  1.00  0.00     0.171 C 
HETATM   23  C   UNL     1       7.327  33.430  64.458  1.00  0.00     0.034 C 
ENDBRANCH  21  22
ENDBRANCH  15  21
ENDBRANCH  12  13
ENDBRANCH   8  11
ENDBRANCH   1   7
BRANCH   5  24
HETATM   24  C   UNL     1       7.596  25.718  54.482  1.00  0.00     0.005 A 
HETATM   25  C   UNL     1       7.855  24.545  55.254  1.00  0.00    -0.012 A 
HETATM   26  C   UNL     1       7.922  23.365  54.551  1.00  0.00    -0.012 A 
HETATM   27  C   UNL     1       8.050  24.410  56.654  1.00  0.00     0.013 A 
HETATM   28  C   UNL     1       8.175  22.129  55.117  1.00  0.00    -0.046 A 
HETATM   29  C   UNL     1       7.749  23.260  53.184  1.00  0.00    -0.046 A 
HETATM   30  C   UNL     1       8.379  21.985  56.481  1.00  0.00     0.008 A 
HETATM   31  C   UNL     1       8.191  21.070  54.071  1.00  0.00     0.044 A 
HETATM   32  C   UNL     1       8.309  23.157  57.245  1.00  0.00     0.001 A 
HETATM   33  C   UNL     1       7.890  21.842  52.749  1.00  0.00     0.044 A 
HETATM   34  C   UNL     1       7.489  24.372  52.402  1.00  0.00     0.009 A 
HETATM   35  C   UNL     1       7.419  25.602  53.075  1.00  0.00     0.015 A 
ENDBRANCH   5  24
TORSDOF 7
ENDMDL
MODEL 7
REMARK VINA RESULT:      -9.9      1.841      3.015
REMARK  7 active torsions:
REMARK  status: ('A' for Active; 'I' for Inactive)
REMARK    1  A    between atoms: C_2  and  O_3 
REMARK    2  A    between atoms: O_3  and  C_4 
REMARK    3  A    between atoms: C_5  and  O_6 
REMARK    4  A    between atoms: C_7  and  C_8 
REMARK    5  A    between atoms: N_9  and  N_10 
REMARK       I    between atoms: N_10  and  C_11 
REMARK    6  A    between atoms: C_11  and  C_12 
REMARK    7  A    between atoms: C_16  and  C_17 
ROOT
HETATM    1  C   UNL     1       6.250  29.364  57.512  1.00  0.00     0.121 A 
HETATM    2  N   UNL     1       5.107  28.626  57.374  1.00  0.00    -0.272 N 
HETATM    3  H   UNL     1       4.162  28.931  57.587  1.00  0.00     0.189 HD
HETATM    4  N   UNL     1       5.310  27.370  56.954  1.00  0.00    -0.174 NA
HETATM    5  C   UNL     1       6.635  27.278  56.773  1.00  0.00     0.090 A 
HETATM    6  C   UNL     1       7.260  28.521  57.092  1.00  0.00     0.071 A 
ENDROOT
BRANCH   1   7
HETATM    7  C   UNL     1       6.210  30.708  58.032  1.00  0.00     0.289 C 
HETATM    8  N   UNL     1       7.014  30.923  59.141  1.00  0.00    -0.242 N 
HETATM    9  H   UNL     1       7.566  30.168  59.525  1.00  0.00     0.192 HD
HETATM   10  O   UNL     1       5.480  31.559  57.529  1.00  0.00    -0.264 OA
BRANCH   8  11
HETATM   11  N   UNL     1       6.908  32.086  59.848  1.00  0.00    -0.183 NA
HETATM   12  C   UNL     1       6.613  31.949  61.102  1.00  0.00     0.153 C 
BRANCH  12  13
HETATM   13  C   UNL     1       6.391  33.116  61.977  1.00  0.00     0.019 A 
HETATM   14  C   UNL     1       6.866  33.108  63.289  1.00  0.00     0.110 A 
HETATM   15  C   UNL     1       6.614  34.185  64.152  1.00  0.00     0.102 A 
HETATM   16  C   UNL     1       5.898  35.286  63.680  1.00  0.00     0.040 A 
HETATM   17  C   UNL     1       5.428  35.302  62.362  1.00  0.00     0.004 A 
HETATM   18  C   UNL     1       5.670  34.220  61.513  1.00  0.00     0.016 A 
BRANCH  14  19
HETATM   19  O   UNL     1       7.578  32.035  63.766  1.00  0.00    -0.357 OA
HETATM   20  H   UNL     1       7.442  32.051  64.736  1.00  0.00     0.218 HD
ENDBRANCH  14  19
BRANCH  15  21
HETATM   21  O   UNL     1       7.121  34.037  65.419  1.00  0.00    -0.349 OA
BRANCH  21  22
HETATM   22  C   UNL     1       6.180  34.085  66.494  1.00  0.00     0.171 C 
HETATM   23  C   UNL     1       6.951  34.342  67.776  1.00  0.00     0.034 C 
ENDBRANCH  21  22
ENDBRANCH  15  21
ENDBRANCH  12  13
ENDBRANCH   8  11
ENDBRANCH   1   7
BRANCH   5  24
HETATM   24  C   UNL     1       7.295  26.030  56.366  1.00  0.00     0.005 A 
HETATM   25  C   UNL     1       7.330  25.581  55.011  1.00  0.00    -0.012 A 
HETATM   26  C   UNL     1       7.961  24.379  54.792  1.00  0.00    -0.012 A 
HETATM   27  C   UNL     1       6.813  26.199  53.842  1.00  0.00     0.013 A 
HETATM   28  C   UNL     1       8.088  23.775  53.554  1.00  0.00    -0.046 A 
HETATM   29  C   UNL     1       8.549  23.614  55.781  1.00  0.00    -0.046 A 
HETATM   30  C   UNL     1       7.576  24.361  52.407  1.00  0.00     0.008 A 
HETATM   31  C   UNL     1       8.811  22.480  53.679  1.00  0.00     0.044 A 
HETATM   32  C   UNL     1       6.934  25.595  52.574  1.00  0.00     0.001 A 
HETATM   33  C   UNL     1       9.135  22.374  55.201  1.00  0.00     0.044 A 
HETATM   34  C   UNL     1       8.541  24.017  57.106  1.00  0.00     0.009 A 
HETATM   35  C   UNL     1       7.901  25.237  57.380  1.00  0.00     0.015 A 
ENDBRANCH   5  24
TORSDOF 7
ENDMDL
MODEL 8
REMARK VINA RESULT:      -9.9      2.449      3.697
REMARK  7 active torsions:
REMARK  status: ('A' for Active; 'I' for Inactive)
REMARK    1  A    between atoms: C_2  and  O_3 
REMARK    2  A    between atoms: O_3  and  C_4 
REMARK    3  A    between atoms: C_5  and  O_6 
REMARK    4  A    between atoms: C_7  and  C_8 
REMARK    5  A    between atoms: N_9  and  N_10 
REMARK       I    between atoms: N_10  and  C_11 
REMARK    6  A    between atoms: C_11  and  C_12 
REMARK    7  A    between atoms: C_16  and  C_17 
ROOT
HETATM    1  C   UNL     1       6.148  27.406  56.414  1.00  0.00     0.121 A 
HETATM    2  N   UNL     1       7.422  27.239  56.881  1.00  0.00    -0.272 N 
HETATM    3  H   UNL     1       7.927  27.867  57.499  1.00  0.00     0.189 HD
HETATM    4  N   UNL     1       8.039  26.143  56.418  1.00  0.00    -0.174 NA
HETATM    5  C   UNL     1       7.129  25.541  55.638  1.00  0.00     0.090 A 
HETATM    6  C   UNL     1       5.918  26.295  55.628  1.00  0.00     0.071 A 
ENDROOT
BRANCH   1   7
HETATM    7  C   UNL     1       5.379  28.578  56.754  1.00  0.00     0.289 C 
HETATM    8  N   UNL     1       6.003  29.441  57.642  1.00  0.00    -0.242 N 
HETATM    9  H   UNL     1       6.924  29.226  58.001  1.00  0.00     0.192 HD
HETATM   10  O   UNL     1       4.249  28.745  56.303  1.00  0.00    -0.264 OA
BRANCH   8  11
HETATM   11  N   UNL     1       5.303  30.472  58.200  1.00  0.00    -0.183 NA
HETATM   12  C   UNL     1       5.908  31.618  58.200  1.00  0.00     0.153 C 
BRANCH  12  13
HETATM   13  C   UNL     1       5.311  32.808  58.835  1.00  0.00     0.019 A 
HETATM   14  C   UNL     1       5.321  32.941  60.224  1.00  0.00     0.110 A 
HETATM   15  C   UNL     1       4.707  34.038  60.847  1.00  0.00     0.102 A 
HETATM   16  C   UNL     1       4.099  35.018  60.060  1.00  0.00     0.040 A 
HETATM   17  C   UNL     1       4.095  34.893  58.667  1.00  0.00     0.004 A 
HETATM   18  C   UNL     1       4.695  33.791  58.054  1.00  0.00     0.016 A 
BRANCH  14  19
HETATM   19  O   UNL     1       5.921  31.989  61.011  1.00  0.00    -0.357 OA
HETATM   20  H   UNL     1       5.272  31.800  61.719  1.00  0.00     0.218 HD
ENDBRANCH  14  19
BRANCH  15  21
HETATM   21  O   UNL     1       4.775  34.034  62.217  1.00  0.00    -0.349 OA
BRANCH  21  22
HETATM   22  C   UNL     1       5.710  34.934  62.814  1.00  0.00     0.171 C 
HETATM   23  C   UNL     1       6.378  34.211  63.970  1.00  0.00     0.034 C 
ENDBRANCH  21  22
ENDBRANCH  15  21
ENDBRANCH  12  13
ENDBRANCH   8  11
ENDBRANCH   1   7
BRANCH   5  24
HETATM   24  C   UNL     1       7.422  24.319  54.877  1.00  0.00     0.005 A 
HETATM   25  C   UNL     1       7.826  23.099  55.501  1.00  0.00    -0.012 A 
HETATM   26  C   UNL     1       8.092  22.050  54.654  1.00  0.00    -0.012 A 
HETATM   27  C   UNL     1       7.990  22.802  56.880  1.00  0.00     0.013 A 
HETATM   28  C   UNL     1       8.505  20.796  55.065  1.00  0.00    -0.046 A 
HETATM   29  C   UNL     1       7.984  22.110  53.277  1.00  0.00    -0.046 A 
HETATM   30  C   UNL     1       8.681  20.496  56.407  1.00  0.00     0.008 A 
HETATM   31  C   UNL     1       8.715  19.905  53.891  1.00  0.00     0.044 A 
HETATM   32  C   UNL     1       8.411  21.529  57.314  1.00  0.00     0.001 A 
HETATM   33  C   UNL     1       8.349  20.801  52.668  1.00  0.00     0.044 A 
HETATM   34  C   UNL     1       7.589  23.272  52.635  1.00  0.00     0.009 A 
HETATM   35  C   UNL     1       7.314  24.374  53.460  1.00  0.00     0.015 A 
ENDBRANCH   5  24
TORSDOF 7
ENDMDL
MODEL 9
REMARK VINA RESULT:      -9.9      1.833      2.086
REMARK  7 active torsions:
REMARK  status: ('A' for Active; 'I' for Inactive)
REMARK    1  A    between atoms: C_2  and  O_3 
REMARK    2  A    between atoms: O_3  and  C_4 
REMARK    3  A    between atoms: C_5  and  O_6 
REMARK    4  A    between atoms: C_7  and  C_8 
REMARK    5  A    between atoms: N_9  and  N_10 
REMARK       I    between atoms: N_10  and  C_11 
REMARK    6  A    between atoms: C_11  and  C_12 
REMARK    7  A    between atoms: C_16  and  C_17 
ROOT
HETATM    1  C   UNL     1       5.172  29.471  56.816  1.00  0.00     0.121 A 
HETATM    2  N   UNL     1       4.404  29.544  55.688  1.00  0.00    -0.272 N 
HETATM    3  H   UNL     1       3.695  30.242  55.482  1.00  0.00     0.189 HD
HETATM    4  N   UNL     1       4.614  28.550  54.814  1.00  0.00    -0.174 NA
HETATM    5  C   UNL     1       5.582  27.805  55.367  1.00  0.00     0.090 A 
HETATM    6  C   UNL     1       5.976  28.367  56.619  1.00  0.00     0.071 A 
ENDROOT
BRANCH   1   7
HETATM    7  C   UNL     1       5.008  30.420  57.890  1.00  0.00     0.289 C 
HETATM    8  N   UNL     1       6.192  30.841  58.475  1.00  0.00    -0.242 N 
HETATM    9  H   UNL     1       7.079  30.483  58.148  1.00  0.00     0.192 HD
HETATM   10  O   UNL     1       3.889  30.775  58.254  1.00  0.00    -0.264 OA
BRANCH   8  11
HETATM   11  N   UNL     1       6.163  31.572  59.628  1.00  0.00    -0.183 NA
HETATM   12  C   UNL     1       6.980  31.181  60.554  1.00  0.00     0.153 C 
BRANCH  12  13
HETATM   13  C   UNL     1       7.011  31.825  61.882  1.00  0.00     0.019 A 
HETATM   14  C   UNL     1       5.833  31.976  62.615  1.00  0.00     0.110 A 
HETATM   15  C   UNL     1       5.835  32.636  63.852  1.00  0.00     0.102 A 
HETATM   16  C   UNL     1       7.038  33.127  64.363  1.00  0.00     0.040 A 
HETATM   17  C   UNL     1       8.223  32.968  63.636  1.00  0.00     0.004 A 
HETATM   18  C   UNL     1       8.211  32.323  62.397  1.00  0.00     0.016 A 
BRANCH  14  19
HETATM   19  O   UNL     1       4.643  31.493  62.129  1.00  0.00    -0.357 OA
HETATM   20  H   UNL     1       4.599  30.566  62.439  1.00  0.00     0.218 HD
ENDBRANCH  14  19
BRANCH  15  21
HETATM   21  O   UNL     1       4.606  32.732  64.455  1.00  0.00    -0.349 OA
BRANCH  21  22
HETATM   22  C   UNL     1       4.239  34.019  64.957  1.00  0.00     0.171 C 
HETATM   23  C   UNL     1       3.787  34.865  63.781  1.00  0.00     0.034 C 
ENDBRANCH  21  22
ENDBRANCH  15  21
ENDBRANCH  12  13
ENDBRANCH   8  11
ENDBRANCH   1   7
BRANCH   5  24
HETATM   24  C   UNL     1       6.077  26.565  54.754  1.00  0.00     0.005 A 
HETATM   25  C   UNL     1       7.022  25.709  55.397  1.00  0.00    -0.012 A 
HETATM   26  C   UNL     1       7.411  24.600  54.684  1.00  0.00    -0.012 A 
HETATM   27  C   UNL     1       7.623  25.829  56.678  1.00  0.00     0.013 A 
HETATM   28  C   UNL     1       8.323  23.661  55.131  1.00  0.00    -0.046 A 
HETATM   29  C   UNL     1       6.943  24.278  53.424  1.00  0.00    -0.046 A 
HETATM   30  C   UNL     1       8.926  23.773  56.374  1.00  0.00     0.008 A 
HETATM   31  C   UNL     1       8.523  22.600  54.106  1.00  0.00     0.044 A 
HETATM   32  C   UNL     1       8.554  24.880  57.147  1.00  0.00     0.001 A 
HETATM   33  C   UNL     1       7.572  23.017  52.942  1.00  0.00     0.044 A 
HETATM   34  C   UNL     1       6.022  25.078  52.770  1.00  0.00     0.009 A 
HETATM   35  C   UNL     1       5.601  26.228  53.457  1.00  0.00     0.015 A 
ENDBRANCH   5  24
TORSDOF 7
ENDMDL
MODEL 10
REMARK VINA RESULT:      -9.6      2.715      3.437
REMARK  7 active torsions:
REMARK  status: ('A' for Active; 'I' for Inactive)
REMARK    1  A    between atoms: C_2  and  O_3 
REMARK    2  A    between atoms: O_3  and  C_4 
REMARK    3  A    between atoms: C_5  and  O_6 
REMARK    4  A    between atoms: C_7  and  C_8 
REMARK    5  A    between atoms: N_9  and  N_10 
REMARK       I    between atoms: N_10  and  C_11 
REMARK    6  A    between atoms: C_11  and  C_12 
REMARK    7  A    between atoms: C_16  and  C_17 
ROOT
HETATM    1  C   UNL     1       6.458  28.853  55.644  1.00  0.00     0.121 A 
HETATM    2  N   UNL     1       7.643  29.066  54.996  1.00  0.00    -0.272 N 
HETATM    3  H   UNL     1       8.125  29.954  54.893  1.00  0.00     0.189 HD
HETATM    4  N   UNL     1       8.161  27.971  54.422  1.00  0.00    -0.174 NA
HETATM    5  C   UNL     1       7.304  26.986  54.726  1.00  0.00     0.090 A 
HETATM    6  C   UNL     1       6.230  27.497  55.514  1.00  0.00     0.071 A 
ENDROOT
BRANCH   1   7
HETATM    7  C   UNL     1       5.732  29.945  56.244  1.00  0.00     0.289 C 
HETATM    8  N   UNL     1       5.783  29.981  57.629  1.00  0.00    -0.242 N 
HETATM    9  H   UNL     1       6.297  29.274  58.140  1.00  0.00     0.192 HD
HETATM   10  O   UNL     1       5.100  30.739  55.553  1.00  0.00    -0.264 OA
BRANCH   8  11
HETATM   11  N   UNL     1       4.974  30.835  58.322  1.00  0.00    -0.183 NA
HETATM   12  C   UNL     1       5.562  31.879  58.815  1.00  0.00     0.153 C 
BRANCH  12  13
HETATM   13  C   UNL     1       4.835  32.853  59.651  1.00  0.00     0.019 A 
HETATM   14  C   UNL     1       3.567  33.295  59.271  1.00  0.00     0.110 A 
HETATM   15  C   UNL     1       2.887  34.263  60.024  1.00  0.00     0.102 A 
HETATM   16  C   UNL     1       3.482  34.772  61.180  1.00  0.00     0.040 A 
HETATM   17  C   UNL     1       4.749  34.325  61.570  1.00  0.00     0.004 A 
HETATM   18  C   UNL     1       5.426  33.371  60.808  1.00  0.00     0.016 A 
BRANCH  14  19
HETATM   19  O   UNL     1       2.967  32.799  58.141  1.00  0.00    -0.357 OA
HETATM   20  H   UNL     1       2.149  32.364  58.458  1.00  0.00     0.218 HD
ENDBRANCH  14  19
BRANCH  15  21
HETATM   21  O   UNL     1       1.659  34.621  59.526  1.00  0.00    -0.349 OA
BRANCH  21  22
HETATM   22  C   UNL     1       1.411  36.021  59.382  1.00  0.00     0.171 C 
HETATM   23  C   UNL     1       2.041  36.473  58.077  1.00  0.00     0.034 C 
ENDBRANCH  21  22
ENDBRANCH  15  21
ENDBRANCH  12  13
ENDBRANCH   8  11
ENDBRANCH   1   7
BRANCH   5  24
HETATM   24  C   UNL     1       7.469  25.612  54.232  1.00  0.00     0.005 A 
HETATM   25  C   UNL     1       7.798  24.518  55.090  1.00  0.00    -0.012 A 
HETATM   26  C   UNL     1       7.947  23.297  54.476  1.00  0.00    -0.012 A 
HETATM   27  C   UNL     1       7.992  24.500  56.496  1.00  0.00     0.013 A 
HETATM   28  C   UNL     1       8.275  22.124  55.133  1.00  0.00    -0.046 A 
HETATM   29  C   UNL     1       7.790  23.079  53.120  1.00  0.00    -0.046 A 
HETATM   30  C   UNL     1       8.479  22.096  56.504  1.00  0.00     0.008 A 
HETATM   31  C   UNL     1       8.368  20.995  54.168  1.00  0.00     0.044 A 
HETATM   32  C   UNL     1       8.327  23.313  57.179  1.00  0.00     0.001 A 
HETATM   33  C   UNL     1       8.027  21.646  52.792  1.00  0.00     0.044 A 
HETATM   34  C   UNL     1       7.465  24.112  52.257  1.00  0.00     0.009 A 
HETATM   35  C   UNL     1       7.310  25.381  52.838  1.00  0.00     0.015 A 
ENDBRANCH   5  24
TORSDOF 7
ENDMDL
