MODEL 1
REMARK VINA RESULT:     -12.0      0.000      0.000
REMARK  6 active torsions:
REMARK  status: ('A' for Active; 'I' for Inactive)
REMARK    1  A    between atoms: C_8  and  C_9 
REMARK    2  A    between atoms: C_9  and  C_10 
REMARK    3  A    between atoms: C_10  and  N_11 
REMARK       I    between atoms: N_11  and  C_12 
REMARK    4  A    between atoms: C_12  and  C_13 
REMARK    5  A    between atoms: C_18  and  C_19 
REMARK    6  A    between atoms: C_29  and  C_30 
ROOT
HETATM    1  C   UNL     1       6.746  28.441  57.146  1.00  0.00     0.148 C 
HETATM    2  N   UNL     1       8.036  28.292  57.535  1.00  0.00    -0.165 NA
HETATM    3  N   UNL     1       8.361  29.515  57.986  1.00  0.00    -0.240 N 
HETATM    4  C   UNL     1       7.313  30.386  58.043  1.00  0.00     0.123 C 
HETATM    5  N   UNL     1       7.453  31.595  58.620  1.00  0.00    -0.366 N 
HETATM    6  C   UNL     1       8.511  31.865  59.598  1.00  0.00     0.118 C 
HETATM    7  C   UNL     1       9.499  30.685  59.775  1.00  0.00     0.066 C 
HETATM    8  C   UNL     1       9.671  29.840  58.507  1.00  0.00     0.221 C 
HETATM    9  C   UNL     1       6.268  29.752  57.429  1.00  0.00     0.088 C 
HETATM   10  H   UNL     1       6.647  32.217  58.692  1.00  0.00     0.161 HD
ENDROOT
BRANCH   1  11
HETATM   11  C   UNL     1       5.972  27.345  56.543  1.00  0.00     0.272 C 
HETATM   12  N   UNL     1       6.415  26.985  55.292  1.00  0.00    -0.355 N 
HETATM   13  H   UNL     1       7.280  27.424  54.988  1.00  0.00     0.162 HD
HETATM   14  O   UNL     1       5.036  26.796  57.117  1.00  0.00    -0.266 OA
BRANCH  12  15
HETATM   15  C   UNL     1       5.839  25.874  54.568  1.00  0.00     0.127 C 
BRANCH  15  16
HETATM   16  C   UNL     1       6.881  25.010  53.858  1.00  0.00     0.060 C 
BRANCH  16  17
HETATM   17  C   UNL     1       7.395  23.892  54.714  1.00  0.00    -0.029 A 
HETATM   18  C   UNL     1       7.812  22.590  54.288  1.00  0.00    -0.002 A 
HETATM   19  C   UNL     1       7.887  21.938  53.038  1.00  0.00     0.014 A 
HETATM   20  C   UNL     1       8.208  21.884  55.426  1.00  0.00     0.042 A 
HETATM   21  C   UNL     1       8.351  20.618  52.974  1.00  0.00     0.001 A 
HETATM   22  C   UNL     1       8.738  19.944  54.129  1.00  0.00     0.002 A 
HETATM   23  C   UNL     1       8.675  20.566  55.379  1.00  0.00     0.030 A 
HETATM   24  N   UNL     1       8.040  22.724  56.502  1.00  0.00    -0.365 N 
HETATM   25  H   UNL     1       8.248  22.476  57.459  1.00  0.00     0.165 HD
HETATM   26  C   UNL     1       7.548  23.931  56.087  1.00  0.00     0.096 A 
ENDBRANCH  16  17
ENDBRANCH  15  16
ENDBRANCH  12  15
ENDBRANCH   1  11
BRANCH   8  27
HETATM   27  C   UNL     1      10.499  30.534  57.451  1.00  0.00     0.409 C 
HETATM   28  F   UNL     1      10.018  30.334  56.204  1.00  0.00    -0.169 F 
HETATM   29  F   UNL     1      10.623  31.863  57.641  1.00  0.00    -0.169 F 
HETATM   30  F   UNL     1      11.761  30.026  57.460  1.00  0.00    -0.169 F 
ENDBRANCH   8  27
BRANCH   6  31
HETATM   31  C   UNL     1       7.848  32.222  60.923  1.00  0.00    -0.033 A 
HETATM   32  C   UNL     1       6.518  32.671  60.958  1.00  0.00     0.049 A 
HETATM   33  C   UNL     1       5.962  32.961  62.189  1.00  0.00     0.105 A 
HETATM   34  C   UNL     1       6.671  32.827  63.360  1.00  0.00     0.105 A 
HETATM   35  O   UNL     1       4.692  33.399  62.402  1.00  0.00    -0.323 OA
HETATM   36  O   UNL     1       5.939  33.164  64.455  1.00  0.00    -0.323 OA
HETATM   37  C   UNL     1       7.973  32.386  63.373  1.00  0.00     0.040 A 
HETATM   38  C   UNL     1       4.682  33.513  63.842  1.00  0.00     0.352 A 
HETATM   39  C   UNL     1       8.560  32.075  62.144  1.00  0.00     0.012 A 
ENDBRANCH   6  31
TORSDOF 6
ENDMDL
MODEL 2
REMARK VINA RESULT:     -11.9      3.060     10.787
REMARK  6 active torsions:
REMARK  status: ('A' for Active; 'I' for Inactive)
REMARK    1  A    between atoms: C_8  and  C_9 
REMARK    2  A    between atoms: C_9  and  C_10 
REMARK    3  A    between atoms: C_10  and  N_11 
REMARK       I    between atoms: N_11  and  C_12 
REMARK    4  A    between atoms: C_12  and  C_13 
REMARK    5  A    between atoms: C_18  and  C_19 
REMARK    6  A    between atoms: C_29  and  C_30 
ROOT
HETATM    1  C   UNL     1       8.084  29.308  57.637  1.00  0.00     0.148 C 
HETATM    2  N   UNL     1       6.795  28.916  57.777  1.00  0.00    -0.165 NA
HETATM    3  N   UNL     1       6.532  28.313  56.606  1.00  0.00    -0.240 N 
HETATM    4  C   UNL     1       7.619  28.169  55.795  1.00  0.00     0.123 C 
HETATM    5  N   UNL     1       7.541  27.446  54.661  1.00  0.00    -0.366 N 
HETATM    6  C   UNL     1       6.510  26.422  54.469  1.00  0.00     0.118 C 
HETATM    7  C   UNL     1       5.471  26.372  55.618  1.00  0.00     0.066 C 
HETATM    8  C   UNL     1       5.245  27.731  56.291  1.00  0.00     0.221 C 
HETATM    9  C   UNL     1       8.625  28.876  56.393  1.00  0.00     0.088 C 
HETATM   10  H   UNL     1       8.375  27.313  54.089  1.00  0.00     0.161 HD
ENDROOT
BRANCH   1  11
HETATM   11  C   UNL     1       8.800  30.056  58.683  1.00  0.00     0.272 C 
HETATM   12  N   UNL     1       8.087  30.178  59.854  1.00  0.00    -0.355 N 
HETATM   13  H   UNL     1       7.223  29.647  59.901  1.00  0.00     0.162 HD
HETATM   14  O   UNL     1       9.931  30.505  58.525  1.00  0.00    -0.266 OA
BRANCH  12  15
HETATM   15  C   UNL     1       8.651  30.806  61.028  1.00  0.00     0.127 C 
BRANCH  15  16
HETATM   16  C   UNL     1       8.316  32.294  61.136  1.00  0.00     0.060 C 
BRANCH  16  17
HETATM   17  C   UNL     1       7.020  32.552  61.841  1.00  0.00    -0.029 A 
HETATM   18  C   UNL     1       6.835  32.991  63.192  1.00  0.00    -0.002 A 
HETATM   19  C   UNL     1       7.709  33.312  64.252  1.00  0.00     0.014 A 
HETATM   20  C   UNL     1       5.460  33.090  63.416  1.00  0.00     0.042 A 
HETATM   21  C   UNL     1       7.181  33.717  65.485  1.00  0.00     0.001 A 
HETATM   22  C   UNL     1       5.804  33.804  65.674  1.00  0.00     0.002 A 
HETATM   23  C   UNL     1       4.916  33.493  64.641  1.00  0.00     0.030 A 
HETATM   24  N   UNL     1       4.833  32.726  62.248  1.00  0.00    -0.365 N 
HETATM   25  H   UNL     1       3.831  32.703  62.119  1.00  0.00     0.165 HD
HETATM   26  C   UNL     1       5.759  32.396  61.296  1.00  0.00     0.096 A 
ENDBRANCH  16  17
ENDBRANCH  15  16
ENDBRANCH  12  15
ENDBRANCH   1  11
BRANCH   8  27
HETATM   27  C   UNL     1       4.435  28.678  55.437  1.00  0.00     0.409 C 
HETATM   28  F   UNL     1       5.179  29.691  54.942  1.00  0.00    -0.169 F 
HETATM   29  F   UNL     1       3.807  28.080  54.404  1.00  0.00    -0.169 F 
HETATM   30  F   UNL     1       3.462  29.253  56.196  1.00  0.00    -0.169 F 
ENDBRANCH   8  27
BRANCH   6  31
HETATM   31  C   UNL     1       7.206  25.076  54.307  1.00  0.00    -0.033 A 
HETATM   32  C   UNL     1       7.641  24.356  55.432  1.00  0.00     0.049 A 
HETATM   33  C   UNL     1       8.248  23.133  55.227  1.00  0.00     0.105 A 
HETATM   34  C   UNL     1       8.437  22.614  53.967  1.00  0.00     0.105 A 
HETATM   35  O   UNL     1       8.720  22.309  56.200  1.00  0.00    -0.323 OA
HETATM   36  O   UNL     1       9.052  21.402  53.989  1.00  0.00    -0.323 OA
HETATM   37  C   UNL     1       8.023  23.282  52.839  1.00  0.00     0.040 A 
HETATM   38  C   UNL     1       9.217  21.208  55.408  1.00  0.00     0.352 A 
HETATM   39  C   UNL     1       7.397  24.518  53.015  1.00  0.00     0.012 A 
ENDBRANCH   6  31
TORSDOF 6
ENDMDL
MODEL 3
REMARK VINA RESULT:     -11.5      1.255      2.033
REMARK  6 active torsions:
REMARK  status: ('A' for Active; 'I' for Inactive)
REMARK    1  A    between atoms: C_8  and  C_9 
REMARK    2  A    between atoms: C_9  and  C_10 
REMARK    3  A    between atoms: C_10  and  N_11 
REMARK       I    between atoms: N_11  and  C_12 
REMARK    4  A    between atoms: C_12  and  C_13 
REMARK    5  A    between atoms: C_18  and  C_19 
REMARK    6  A    between atoms: C_29  and  C_30 
ROOT
HETATM    1  C   UNL     1       6.309  29.100  57.481  1.00  0.00     0.148 C 
HETATM    2  N   UNL     1       7.498  28.863  58.087  1.00  0.00    -0.165 NA
HETATM    3  N   UNL     1       7.776  30.035  58.680  1.00  0.00    -0.240 N 
HETATM    4  C   UNL     1       6.766  30.950  58.611  1.00  0.00     0.123 C 
HETATM    5  N   UNL     1       6.839  32.109  59.293  1.00  0.00    -0.366 N 
HETATM    6  C   UNL     1       7.705  32.260  60.466  1.00  0.00     0.118 C 
HETATM    7  C   UNL     1       8.602  31.024  60.731  1.00  0.00     0.066 C 
HETATM    8  C   UNL     1       8.977  30.260  59.455  1.00  0.00     0.221 C 
HETATM    9  C   UNL     1       5.833  30.410  57.770  1.00  0.00     0.088 C 
HETATM   10  H   UNL     1       6.056  32.763  59.263  1.00  0.00     0.161 HD
ENDROOT
BRANCH   1  11
HETATM   11  C   UNL     1       5.623  28.086  56.665  1.00  0.00     0.272 C 
HETATM   12  N   UNL     1       6.325  26.909  56.549  1.00  0.00    -0.355 N 
HETATM   13  H   UNL     1       7.158  26.834  57.125  1.00  0.00     0.162 HD
HETATM   14  O   UNL     1       4.520  28.273  56.159  1.00  0.00    -0.266 OA
BRANCH  12  15
HETATM   15  C   UNL     1       5.782  25.761  55.857  1.00  0.00     0.127 C 
BRANCH  15  16
HETATM   16  C   UNL     1       6.516  24.459  56.178  1.00  0.00     0.060 C 
BRANCH  16  17
HETATM   17  C   UNL     1       6.984  23.734  54.953  1.00  0.00    -0.029 A 
HETATM   18  C   UNL     1       7.562  22.425  54.883  1.00  0.00    -0.002 A 
HETATM   19  C   UNL     1       7.876  21.434  55.838  1.00  0.00     0.014 A 
HETATM   20  C   UNL     1       7.847  22.165  53.541  1.00  0.00     0.042 A 
HETATM   21  C   UNL     1       8.458  20.230  55.418  1.00  0.00     0.001 A 
HETATM   22  C   UNL     1       8.728  20.003  54.072  1.00  0.00     0.002 A 
HETATM   23  C   UNL     1       8.426  20.967  53.106  1.00  0.00     0.030 A 
HETATM   24  N   UNL     1       7.457  23.270  52.823  1.00  0.00    -0.365 N 
HETATM   25  H   UNL     1       7.545  23.362  51.821  1.00  0.00     0.165 HD
HETATM   26  C   UNL     1       6.941  24.221  53.660  1.00  0.00     0.096 A 
ENDBRANCH  16  17
ENDBRANCH  15  16
ENDBRANCH  12  15
ENDBRANCH   1  11
BRANCH   8  27
HETATM   27  C   UNL     1      10.011  30.984  58.624  1.00  0.00     0.409 C 
HETATM   28  F   UNL     1      10.571  32.020  59.286  1.00  0.00    -0.169 F 
HETATM   29  F   UNL     1      11.004  30.190  58.176  1.00  0.00    -0.169 F 
HETATM   30  F   UNL     1       9.415  31.512  57.521  1.00  0.00    -0.169 F 
ENDBRANCH   8  27
BRANCH   6  31
HETATM   31  C   UNL     1       6.821  32.558  61.670  1.00  0.00    -0.033 A 
HETATM   32  C   UNL     1       7.388  32.946  62.895  1.00  0.00     0.049 A 
HETATM   33  C   UNL     1       6.537  33.223  63.947  1.00  0.00     0.105 A 
HETATM   34  C   UNL     1       5.170  33.125  63.826  1.00  0.00     0.105 A 
HETATM   35  O   UNL     1       6.917  33.615  65.193  1.00  0.00    -0.323 OA
HETATM   36  O   UNL     1       4.520  33.440  64.978  1.00  0.00    -0.323 OA
HETATM   37  C   UNL     1       4.572  32.754  62.644  1.00  0.00     0.040 A 
HETATM   38  C   UNL     1       5.632  33.763  65.836  1.00  0.00     0.352 A 
HETATM   39  C   UNL     1       5.407  32.476  61.559  1.00  0.00     0.012 A 
ENDBRANCH   6  31
TORSDOF 6
ENDMDL
MODEL 4
REMARK VINA RESULT:     -11.4      3.261     10.679
REMARK  6 active torsions:
REMARK  status: ('A' for Active; 'I' for Inactive)
REMARK    1  A    between atoms: C_8  and  C_9 
REMARK    2  A    between atoms: C_9  and  C_10 
REMARK    3  A    between atoms: C_10  and  N_11 
REMARK       I    between atoms: N_11  and  C_12 
REMARK    4  A    between atoms: C_12  and  C_13 
REMARK    5  A    between atoms: C_18  and  C_19 
REMARK    6  A    between atoms: C_29  and  C_30 
ROOT
HETATM    1  C   UNL     1       6.843  28.731  55.551  1.00  0.00     0.148 C 
HETATM    2  N   UNL     1       5.635  28.295  55.118  1.00  0.00    -0.165 NA
HETATM    3  N   UNL     1       5.957  27.362  54.207  1.00  0.00    -0.240 N 
HETATM    4  C   UNL     1       7.289  27.077  54.146  1.00  0.00     0.123 C 
HETATM    5  N   UNL     1       7.740  26.055  53.394  1.00  0.00    -0.366 N 
HETATM    6  C   UNL     1       6.870  24.941  53.005  1.00  0.00     0.118 C 
HETATM    7  C   UNL     1       5.391  25.142  53.420  1.00  0.00     0.066 C 
HETATM    8  C   UNL     1       4.967  26.616  53.461  1.00  0.00     0.221 C 
HETATM    9  C   UNL     1       7.904  28.003  54.943  1.00  0.00     0.088 C 
HETATM   10  H   UNL     1       8.735  25.829  53.394  1.00  0.00     0.161 HD
ENDROOT
BRANCH   1  11
HETATM   11  C   UNL     1       6.984  29.801  56.550  1.00  0.00     0.272 C 
HETATM   12  N   UNL     1       8.185  29.770  57.221  1.00  0.00    -0.355 N 
HETATM   13  H   UNL     1       8.867  29.103  56.872  1.00  0.00     0.162 HD
HETATM   14  O   UNL     1       6.118  30.649  56.745  1.00  0.00    -0.266 OA
BRANCH  12  15
HETATM   15  C   UNL     1       8.549  30.787  58.182  1.00  0.00     0.127 C 
BRANCH  15  16
HETATM   16  C   UNL     1       8.078  30.471  59.602  1.00  0.00     0.060 C 
BRANCH  16  17
HETATM   17  C   UNL     1       7.220  31.551  60.187  1.00  0.00    -0.029 A 
HETATM   18  C   UNL     1       7.319  32.132  61.493  1.00  0.00    -0.002 A 
HETATM   19  C   UNL     1       8.171  31.928  62.600  1.00  0.00     0.014 A 
HETATM   20  C   UNL     1       6.312  33.093  61.601  1.00  0.00     0.042 A 
HETATM   21  C   UNL     1       7.985  32.687  63.763  1.00  0.00     0.001 A 
HETATM   22  C   UNL     1       6.972  33.638  63.837  1.00  0.00     0.002 A 
HETATM   23  C   UNL     1       6.115  33.860  62.755  1.00  0.00     0.030 A 
HETATM   24  N   UNL     1       5.628  33.098  60.409  1.00  0.00    -0.365 N 
HETATM   25  H   UNL     1       4.842  33.699  60.203  1.00  0.00     0.165 HD
HETATM   26  C   UNL     1       6.160  32.173  59.553  1.00  0.00     0.096 A 
ENDBRANCH  16  17
ENDBRANCH  15  16
ENDBRANCH  12  15
ENDBRANCH   1  11
BRANCH   8  27
HETATM   27  C   UNL     1       4.788  27.210  52.084  1.00  0.00     0.409 C 
HETATM   28  F   UNL     1       3.687  27.990  51.998  1.00  0.00    -0.169 F 
HETATM   29  F   UNL     1       5.844  27.932  51.659  1.00  0.00    -0.169 F 
HETATM   30  F   UNL     1       4.619  26.209  51.178  1.00  0.00    -0.169 F 
ENDBRANCH   8  27
BRANCH   6  31
HETATM   31  C   UNL     1       7.437  23.665  53.614  1.00  0.00    -0.033 A 
HETATM   32  C   UNL     1       7.537  23.521  55.008  1.00  0.00     0.049 A 
HETATM   33  C   UNL     1       8.040  22.335  55.505  1.00  0.00     0.105 A 
HETATM   34  C   UNL     1       8.441  21.310  54.681  1.00  0.00     0.105 A 
HETATM   35  O   UNL     1       8.198  22.031  56.821  1.00  0.00    -0.323 OA
HETATM   36  O   UNL     1       8.904  20.234  55.373  1.00  0.00    -0.323 OA
HETATM   37  C   UNL     1       8.356  21.404  53.312  1.00  0.00     0.040 A 
HETATM   38  C   UNL     1       8.735  20.692  56.729  1.00  0.00     0.352 A 
HETATM   39  C   UNL     1       7.843  22.589  52.779  1.00  0.00     0.012 A 
ENDBRANCH   6  31
TORSDOF 6
ENDMDL
MODEL 5
REMARK VINA RESULT:     -11.0      3.639     10.537
REMARK  6 active torsions:
REMARK  status: ('A' for Active; 'I' for Inactive)
REMARK    1  A    between atoms: C_8  and  C_9 
REMARK    2  A    between atoms: C_9  and  C_10 
REMARK    3  A    between atoms: C_10  and  N_11 
REMARK       I    between atoms: N_11  and  C_12 
REMARK    4  A    between atoms: C_12  and  C_13 
REMARK    5  A    between atoms: C_18  and  C_19 
REMARK    6  A    between atoms: C_29  and  C_30 
ROOT
HETATM    1  C   UNL     1       4.992  28.847  54.945  1.00  0.00     0.148 C 
HETATM    2  N   UNL     1       4.181  28.242  54.043  1.00  0.00    -0.165 NA
HETATM    3  N   UNL     1       5.015  27.415  53.391  1.00  0.00    -0.240 N 
HETATM    4  C   UNL     1       6.268  27.352  53.924  1.00  0.00     0.123 C 
HETATM    5  N   UNL     1       7.163  26.450  53.474  1.00  0.00    -0.366 N 
HETATM    6  C   UNL     1       6.744  25.229  52.779  1.00  0.00     0.118 C 
HETATM    7  C   UNL     1       5.220  25.171  52.503  1.00  0.00     0.066 C 
HETATM    8  C   UNL     1       4.584  26.553  52.312  1.00  0.00     0.221 C 
HETATM    9  C   UNL     1       6.316  28.328  54.881  1.00  0.00     0.088 C 
HETATM   10  H   UNL     1       8.082  26.389  53.913  1.00  0.00     0.161 HD
ENDROOT
BRANCH   1  11
HETATM   11  C   UNL     1       4.508  29.880  55.874  1.00  0.00     0.272 C 
HETATM   12  N   UNL     1       5.226  29.943  57.046  1.00  0.00    -0.355 N 
HETATM   13  H   UNL     1       6.061  29.366  57.082  1.00  0.00     0.162 HD
HETATM   14  O   UNL     1       3.568  30.624  55.612  1.00  0.00    -0.266 OA
BRANCH  12  15
HETATM   15  C   UNL     1       4.959  30.947  58.051  1.00  0.00     0.127 C 
BRANCH  15  16
HETATM   16  C   UNL     1       6.129  31.906  58.273  1.00  0.00     0.060 C 
BRANCH  16  17
HETATM   17  C   UNL     1       7.039  31.471  59.381  1.00  0.00    -0.029 A 
HETATM   18  C   UNL     1       7.142  32.034  60.695  1.00  0.00    -0.002 A 
HETATM   19  C   UNL     1       6.496  33.094  61.366  1.00  0.00     0.014 A 
HETATM   20  C   UNL     1       8.121  31.314  61.383  1.00  0.00     0.042 A 
HETATM   21  C   UNL     1       6.850  33.392  62.689  1.00  0.00     0.001 A 
HETATM   22  C   UNL     1       7.831  32.654  63.345  1.00  0.00     0.002 A 
HETATM   23  C   UNL     1       8.486  31.598  62.704  1.00  0.00     0.030 A 
HETATM   24  N   UNL     1       8.595  30.352  60.523  1.00  0.00    -0.365 N 
HETATM   25  H   UNL     1       9.315  29.682  60.754  1.00  0.00     0.165 HD
HETATM   26  C   UNL     1       7.956  30.439  59.316  1.00  0.00     0.096 A 
ENDBRANCH  16  17
ENDBRANCH  15  16
ENDBRANCH  12  15
ENDBRANCH   1  11
BRANCH   8  27
HETATM   27  C   UNL     1       4.924  27.173  50.976  1.00  0.00     0.409 C 
HETATM   28  F   UNL     1       5.877  28.125  51.078  1.00  0.00    -0.169 F 
HETATM   29  F   UNL     1       5.323  26.281  50.047  1.00  0.00    -0.169 F 
HETATM   30  F   UNL     1       3.821  27.787  50.469  1.00  0.00    -0.169 F 
ENDBRANCH   8  27
BRANCH   6  31
HETATM   31  C   UNL     1       7.192  24.035  53.612  1.00  0.00    -0.033 A 
HETATM   32  C   UNL     1       7.650  22.862  52.990  1.00  0.00     0.049 A 
HETATM   33  C   UNL     1       8.062  21.818  53.795  1.00  0.00     0.105 A 
HETATM   34  C   UNL     1       8.031  21.898  55.168  1.00  0.00     0.105 A 
HETATM   35  O   UNL     1       8.536  20.620  53.359  1.00  0.00    -0.323 OA
HETATM   36  O   UNL     1       8.479  20.763  55.767  1.00  0.00    -0.323 OA
HETATM   37  C   UNL     1       7.595  23.029  55.818  1.00  0.00     0.040 A 
HETATM   38  C   UNL     1       8.810  19.962  54.616  1.00  0.00     0.352 A 
HETATM   39  C   UNL     1       7.181  24.105  55.031  1.00  0.00     0.012 A 
ENDBRANCH   6  31
TORSDOF 6
ENDMDL
MODEL 6
REMARK VINA RESULT:     -10.9      3.570     10.726
REMARK  6 active torsions:
REMARK  status: ('A' for Active; 'I' for Inactive)
REMARK    1  A    between atoms: C_8  and  C_9 
REMARK    2  A    between atoms: C_9  and  C_10 
REMARK    3  A    between atoms: C_10  and  N_11 
REMARK       I    between atoms: N_11  and  C_12 
REMARK    4  A    between atoms: C_12  and  C_13 
REMARK    5  A    between atoms: C_18  and  C_19 
REMARK    6  A    between atoms: C_29  and  C_30 
ROOT
HETATM    1  C   UNL     1       7.492  28.925  57.709  1.00  0.00     0.148 C 
HETATM    2  N   UNL     1       8.262  27.846  57.427  1.00  0.00    -0.165 NA
HETATM    3  N   UNL     1       7.457  27.088  56.665  1.00  0.00    -0.240 N 
HETATM    4  C   UNL     1       6.281  27.689  56.326  1.00  0.00     0.123 C 
HETATM    5  N   UNL     1       5.445  27.114  55.440  1.00  0.00    -0.366 N 
HETATM    6  C   UNL     1       5.915  26.124  54.466  1.00  0.00     0.118 C 
HETATM    7  C   UNL     1       7.399  25.724  54.665  1.00  0.00     0.066 C 
HETATM    8  C   UNL     1       7.861  25.808  56.125  1.00  0.00     0.221 C 
HETATM    9  C   UNL     1       6.231  28.846  57.053  1.00  0.00     0.088 C 
HETATM   10  H   UNL     1       4.589  27.598  55.166  1.00  0.00     0.161 HD
ENDROOT
BRANCH   1  11
HETATM   11  C   UNL     1       7.959  30.027  58.565  1.00  0.00     0.272 C 
HETATM   12  N   UNL     1       6.948  30.861  58.984  1.00  0.00    -0.355 N 
HETATM   13  H   UNL     1       6.005  30.557  58.760  1.00  0.00     0.162 HD
HETATM   14  O   UNL     1       9.135  30.168  58.886  1.00  0.00    -0.266 OA
BRANCH  12  15
HETATM   15  C   UNL     1       7.191  31.954  59.899  1.00  0.00     0.127 C 
BRANCH  15  16
HETATM   16  C   UNL     1       7.293  31.508  61.358  1.00  0.00     0.060 C 
BRANCH  16  17
HETATM   17  C   UNL     1       6.203  32.071  62.219  1.00  0.00    -0.029 A 
HETATM   18  C   UNL     1       6.345  32.733  63.481  1.00  0.00    -0.002 A 
HETATM   19  C   UNL     1       7.444  33.068  64.301  1.00  0.00     0.014 A 
HETATM   20  C   UNL     1       5.065  33.081  63.917  1.00  0.00     0.042 A 
HETATM   21  C   UNL     1       7.224  33.732  65.515  1.00  0.00     0.001 A 
HETATM   22  C   UNL     1       5.934  34.064  65.919  1.00  0.00     0.002 A 
HETATM   23  C   UNL     1       4.828  33.746  65.126  1.00  0.00     0.030 A 
HETATM   24  N   UNL     1       4.179  32.649  62.959  1.00  0.00    -0.365 N 
HETATM   25  H   UNL     1       3.177  32.766  63.011  1.00  0.00     0.165 HD
HETATM   26  C   UNL     1       4.851  32.037  61.936  1.00  0.00     0.096 A 
ENDBRANCH  16  17
ENDBRANCH  15  16
ENDBRANCH  12  15
ENDBRANCH   1  11
BRANCH   8  27
HETATM   27  C   UNL     1       7.317  24.683  56.975  1.00  0.00     0.409 C 
HETATM   28  F   UNL     1       8.224  24.226  57.866  1.00  0.00    -0.169 F 
HETATM   29  F   UNL     1       6.195  25.003  57.650  1.00  0.00    -0.169 F 
HETATM   30  F   UNL     1       6.998  23.628  56.178  1.00  0.00    -0.169 F 
ENDBRANCH   8  27
BRANCH   6  31
HETATM   31  C   UNL     1       5.687  26.690  53.070  1.00  0.00    -0.033 A 
HETATM   32  C   UNL     1       5.943  28.044  52.797  1.00  0.00     0.049 A 
HETATM   33  C   UNL     1       5.737  28.498  51.509  1.00  0.00     0.105 A 
HETATM   34  C   UNL     1       5.293  27.670  50.506  1.00  0.00     0.105 A 
HETATM   35  O   UNL     1       5.940  29.771  51.076  1.00  0.00    -0.323 OA
HETATM   36  O   UNL     1       5.157  28.316  49.317  1.00  0.00    -0.323 OA
HETATM   37  C   UNL     1       5.035  26.337  50.726  1.00  0.00     0.040 A 
HETATM   38  C   UNL     1       5.582  29.644  49.682  1.00  0.00     0.352 A 
HETATM   39  C   UNL     1       5.242  25.846  52.017  1.00  0.00     0.012 A 
ENDBRANCH   6  31
TORSDOF 6
ENDMDL
MODEL 7
REMARK VINA RESULT:     -10.8      3.439     10.132
REMARK  6 active torsions:
REMARK  status: ('A' for Active; 'I' for Inactive)
REMARK    1  A    between atoms: C_8  and  C_9 
REMARK    2  A    between atoms: C_9  and  C_10 
REMARK    3  A    between atoms: C_10  and  N_11 
REMARK       I    between atoms: N_11  and  C_12 
REMARK    4  A    between atoms: C_12  and  C_13 
REMARK    5  A    between atoms: C_18  and  C_19 
REMARK    6  A    between atoms: C_29  and  C_30 
ROOT
HETATM    1  C   UNL     1       5.591  28.262  55.505  1.00  0.00     0.148 C 
HETATM    2  N   UNL     1       4.688  27.774  54.620  1.00  0.00    -0.165 NA
HETATM    3  N   UNL     1       5.435  26.993  53.822  1.00  0.00    -0.240 N 
HETATM    4  C   UNL     1       6.724  26.841  54.239  1.00  0.00     0.123 C 
HETATM    5  N   UNL     1       7.546  25.965  53.629  1.00  0.00    -0.366 N 
HETATM    6  C   UNL     1       7.027  24.832  52.856  1.00  0.00     0.118 C 
HETATM    7  C   UNL     1       5.485  24.845  52.706  1.00  0.00     0.066 C 
HETATM    8  C   UNL     1       4.886  26.256  52.705  1.00  0.00     0.221 C 
HETATM    9  C   UNL     1       6.886  27.715  55.278  1.00  0.00     0.088 C 
HETATM   10  H   UNL     1       8.495  25.833  53.980  1.00  0.00     0.161 HD
ENDROOT
BRANCH   1  11
HETATM   11  C   UNL     1       5.222  29.210  56.568  1.00  0.00     0.272 C 
HETATM   12  N   UNL     1       4.770  30.419  56.091  1.00  0.00    -0.355 N 
HETATM   13  H   UNL     1       4.632  30.472  55.086  1.00  0.00     0.162 HD
HETATM   14  O   UNL     1       5.294  28.934  57.762  1.00  0.00    -0.266 OA
BRANCH  12  15
HETATM   15  C   UNL     1       4.282  31.453  56.975  1.00  0.00     0.127 C 
BRANCH  15  16
HETATM   16  C   UNL     1       5.348  32.485  57.346  1.00  0.00     0.060 C 
BRANCH  16  17
HETATM   17  C   UNL     1       5.803  32.369  58.769  1.00  0.00    -0.029 A 
HETATM   18  C   UNL     1       7.002  31.751  59.252  1.00  0.00    -0.002 A 
HETATM   19  C   UNL     1       8.087  31.090  58.636  1.00  0.00     0.014 A 
HETATM   20  C   UNL     1       7.006  31.876  60.642  1.00  0.00     0.042 A 
HETATM   21  C   UNL     1       9.126  30.584  59.428  1.00  0.00     0.001 A 
HETATM   22  C   UNL     1       9.099  30.727  60.812  1.00  0.00     0.002 A 
HETATM   23  C   UNL     1       8.037  31.377  61.447  1.00  0.00     0.030 A 
HETATM   24  N   UNL     1       5.857  32.544  60.992  1.00  0.00    -0.365 N 
HETATM   25  H   UNL     1       5.595  32.775  61.940  1.00  0.00     0.165 HD
HETATM   26  C   UNL     1       5.124  32.841  59.876  1.00  0.00     0.096 A 
ENDBRANCH  16  17
ENDBRANCH  15  16
ENDBRANCH  12  15
ENDBRANCH   1  11
BRANCH   8  27
HETATM   27  C   UNL     1       5.139  26.997  51.412  1.00  0.00     0.409 C 
HETATM   28  F   UNL     1       5.662  26.199  50.455  1.00  0.00    -0.169 F 
HETATM   29  F   UNL     1       4.044  27.595  50.903  1.00  0.00    -0.169 F 
HETATM   30  F   UNL     1       6.050  27.984  51.627  1.00  0.00    -0.169 F 
ENDBRANCH   8  27
BRANCH   6  31
HETATM   31  C   UNL     1       7.498  23.548  53.527  1.00  0.00    -0.033 A 
HETATM   32  C   UNL     1       7.653  23.486  54.922  1.00  0.00     0.049 A 
HETATM   33  C   UNL     1       8.064  22.291  55.478  1.00  0.00     0.105 A 
HETATM   34  C   UNL     1       8.323  21.179  54.710  1.00  0.00     0.105 A 
HETATM   35  O   UNL     1       8.258  22.058  56.804  1.00  0.00    -0.323 OA
HETATM   36  O   UNL     1       8.713  20.110  55.454  1.00  0.00    -0.323 OA
HETATM   37  C   UNL     1       8.179  21.193  53.343  1.00  0.00     0.040 A 
HETATM   38  C   UNL     1       8.657  20.670  56.782  1.00  0.00     0.352 A 
HETATM   39  C   UNL     1       7.756  22.386  52.752  1.00  0.00     0.012 A 
ENDBRANCH   6  31
TORSDOF 6
ENDMDL
MODEL 8
REMARK VINA RESULT:     -10.7      5.082      9.477
REMARK  6 active torsions:
REMARK  status: ('A' for Active; 'I' for Inactive)
REMARK    1  A    between atoms: C_8  and  C_9 
REMARK    2  A    between atoms: C_9  and  C_10 
REMARK    3  A    between atoms: C_10  and  N_11 
REMARK       I    between atoms: N_11  and  C_12 
REMARK    4  A    between atoms: C_12  and  C_13 
REMARK    5  A    between atoms: C_18  and  C_19 
REMARK    6  A    between atoms: C_29  and  C_30 
ROOT
HETATM    1  C   UNL     1       5.348  27.796  53.432  1.00  0.00     0.148 C 
HETATM    2  N   UNL     1       6.443  28.200  54.121  1.00  0.00    -0.165 NA
HETATM    3  N   UNL     1       6.570  27.257  55.070  1.00  0.00    -0.240 N 
HETATM    4  C   UNL     1       5.713  26.206  54.931  1.00  0.00     0.123 C 
HETATM    5  N   UNL     1       5.829  25.115  55.713  1.00  0.00    -0.366 N 
HETATM    6  C   UNL     1       7.088  24.777  56.384  1.00  0.00     0.118 C 
HETATM    7  C   UNL     1       8.184  25.859  56.212  1.00  0.00     0.066 C 
HETATM    8  C   UNL     1       7.621  27.278  56.064  1.00  0.00     0.221 C 
HETATM    9  C   UNL     1       4.849  26.559  53.931  1.00  0.00     0.088 C 
HETATM   10  H   UNL     1       5.206  24.320  55.567  1.00  0.00     0.161 HD
ENDROOT
BRANCH   1  11
HETATM   11  C   UNL     1       4.802  28.559  52.299  1.00  0.00     0.272 C 
HETATM   12  N   UNL     1       5.686  29.476  51.779  1.00  0.00    -0.355 N 
HETATM   13  H   UNL     1       6.631  29.435  52.150  1.00  0.00     0.162 HD
HETATM   14  O   UNL     1       3.673  28.375  51.854  1.00  0.00    -0.266 OA
BRANCH  12  15
HETATM   15  C   UNL     1       5.368  30.265  50.610  1.00  0.00     0.127 C 
BRANCH  15  16
HETATM   16  C   UNL     1       5.831  29.622  49.303  1.00  0.00     0.060 C 
BRANCH  16  17
HETATM   17  C   UNL     1       4.693  29.164  48.442  1.00  0.00    -0.029 A 
HETATM   18  C   UNL     1       4.161  27.839  48.334  1.00  0.00    -0.002 A 
HETATM   19  C   UNL     1       4.472  26.600  48.933  1.00  0.00     0.014 A 
HETATM   20  C   UNL     1       3.114  27.883  47.411  1.00  0.00     0.042 A 
HETATM   21  C   UNL     1       3.732  25.461  48.590  1.00  0.00     0.001 A 
HETATM   22  C   UNL     1       2.694  25.540  47.665  1.00  0.00     0.002 A 
HETATM   23  C   UNL     1       2.364  26.755  47.058  1.00  0.00     0.030 A 
HETATM   24  N   UNL     1       3.013  29.183  46.974  1.00  0.00    -0.365 N 
HETATM   25  H   UNL     1       2.337  29.508  46.298  1.00  0.00     0.165 HD
HETATM   26  C   UNL     1       3.959  29.961  47.583  1.00  0.00     0.096 A 
ENDBRANCH  16  17
ENDBRANCH  15  16
ENDBRANCH  12  15
ENDBRANCH   1  11
BRANCH   8  27
HETATM   27  C   UNL     1       7.100  27.838  57.368  1.00  0.00     0.409 C 
HETATM   28  F   UNL     1       5.752  27.919  57.392  1.00  0.00    -0.169 F 
HETATM   29  F   UNL     1       7.496  27.147  58.455  1.00  0.00    -0.169 F 
HETATM   30  F   UNL     1       7.563  29.107  57.531  1.00  0.00    -0.169 F 
ENDBRANCH   8  27
BRANCH   6  31
HETATM   31  C   UNL     1       7.563  23.433  55.847  1.00  0.00    -0.033 A 
HETATM   32  C   UNL     1       7.460  23.133  54.478  1.00  0.00     0.049 A 
HETATM   33  C   UNL     1       7.924  21.906  54.045  1.00  0.00     0.105 A 
HETATM   34  C   UNL     1       8.472  20.987  54.908  1.00  0.00     0.105 A 
HETATM   35  O   UNL     1       7.905  21.461  52.761  1.00  0.00    -0.323 OA
HETATM   36  O   UNL     1       8.865  19.848  54.278  1.00  0.00    -0.323 OA
HETATM   37  C   UNL     1       8.598  21.241  56.254  1.00  0.00     0.040 A 
HETATM   38  C   UNL     1       8.515  20.160  52.915  1.00  0.00     0.352 A 
HETATM   39  C   UNL     1       8.145  22.476  56.721  1.00  0.00     0.012 A 
ENDBRANCH   6  31
TORSDOF 6
ENDMDL
MODEL 9
REMARK VINA RESULT:     -10.7      5.244      9.793
REMARK  6 active torsions:
REMARK  status: ('A' for Active; 'I' for Inactive)
REMARK    1  A    between atoms: C_8  and  C_9 
REMARK    2  A    between atoms: C_9  and  C_10 
REMARK    3  A    between atoms: C_10  and  N_11 
REMARK       I    between atoms: N_11  and  C_12 
REMARK    4  A    between atoms: C_12  and  C_13 
REMARK    5  A    between atoms: C_18  and  C_19 
REMARK    6  A    between atoms: C_29  and  C_30 
ROOT
HETATM    1  C   UNL     1       5.236  27.777  53.079  1.00  0.00     0.148 C 
HETATM    2  N   UNL     1       6.292  28.226  53.800  1.00  0.00    -0.165 NA
HETATM    3  N   UNL     1       6.397  27.317  54.783  1.00  0.00    -0.240 N 
HETATM    4  C   UNL     1       5.569  26.243  54.642  1.00  0.00     0.123 C 
HETATM    5  N   UNL     1       5.674  25.180  55.462  1.00  0.00    -0.366 N 
HETATM    6  C   UNL     1       6.910  24.891  56.196  1.00  0.00     0.118 C 
HETATM    7  C   UNL     1       7.990  25.991  56.037  1.00  0.00     0.066 C 
HETATM    8  C   UNL     1       7.404  27.392  55.820  1.00  0.00     0.221 C 
HETATM    9  C   UNL     1       4.742  26.546  53.595  1.00  0.00     0.088 C 
HETATM   10  H   UNL     1       5.074  24.367  55.315  1.00  0.00     0.161 HD
ENDROOT
BRANCH   1  11
HETATM   11  C   UNL     1       4.724  28.493  51.900  1.00  0.00     0.272 C 
HETATM   12  N   UNL     1       5.704  28.830  50.995  1.00  0.00    -0.355 N 
HETATM   13  H   UNL     1       6.626  28.448  51.182  1.00  0.00     0.162 HD
HETATM   14  O   UNL     1       3.533  28.743  51.737  1.00  0.00    -0.266 OA
BRANCH  12  15
HETATM   15  C   UNL     1       5.392  29.463  49.733  1.00  0.00     0.127 C 
BRANCH  15  16
HETATM   16  C   UNL     1       5.444  28.502  48.545  1.00  0.00     0.060 C 
BRANCH  16  17
HETATM   17  C   UNL     1       4.170  27.736  48.357  1.00  0.00    -0.029 A 
HETATM   18  C   UNL     1       2.976  28.178  47.702  1.00  0.00    -0.002 A 
HETATM   19  C   UNL     1       2.590  29.373  47.057  1.00  0.00     0.014 A 
HETATM   20  C   UNL     1       2.049  27.136  47.772  1.00  0.00     0.042 A 
HETATM   21  C   UNL     1       1.305  29.479  46.510  1.00  0.00     0.001 A 
HETATM   22  C   UNL     1       0.406  28.420  46.597  1.00  0.00     0.002 A 
HETATM   23  C   UNL     1       0.762  27.226  47.229  1.00  0.00     0.030 A 
HETATM   24  N   UNL     1       2.655  26.100  48.442  1.00  0.00    -0.365 N 
HETATM   25  H   UNL     1       2.216  25.211  48.640  1.00  0.00     0.165 HD
HETATM   26  C   UNL     1       3.928  26.450  48.803  1.00  0.00     0.096 A 
ENDBRANCH  16  17
ENDBRANCH  15  16
ENDBRANCH  12  15
ENDBRANCH   1  11
BRANCH   8  27
HETATM   27  C   UNL     1       6.817  27.981  57.081  1.00  0.00     0.409 C 
HETATM   28  F   UNL     1       5.484  27.778  57.173  1.00  0.00    -0.169 F 
HETATM   29  F   UNL     1       7.386  27.522  58.214  1.00  0.00    -0.169 F 
HETATM   30  F   UNL     1       6.999  29.329  57.079  1.00  0.00    -0.169 F 
ENDBRANCH   8  27
BRANCH   6  31
HETATM   31  C   UNL     1       7.435  23.542  55.723  1.00  0.00    -0.033 A 
HETATM   32  C   UNL     1       7.357  23.179  54.368  1.00  0.00     0.049 A 
HETATM   33  C   UNL     1       7.867  21.951  53.994  1.00  0.00     0.105 A 
HETATM   34  C   UNL     1       8.436  21.089  54.901  1.00  0.00     0.105 A 
HETATM   35  O   UNL     1       7.877  21.450  52.729  1.00  0.00    -0.323 OA
HETATM   36  O   UNL     1       8.873  19.938  54.324  1.00  0.00    -0.323 OA
HETATM   37  C   UNL     1       8.538  21.405  56.235  1.00  0.00     0.040 A 
HETATM   38  C   UNL     1       8.528  20.178  52.946  1.00  0.00     0.352 A 
HETATM   39  C   UNL     1       8.039  22.644  56.644  1.00  0.00     0.012 A 
ENDBRANCH   6  31
TORSDOF 6
ENDMDL
MODEL 10
REMARK VINA RESULT:     -10.6      4.132     10.659
REMARK  6 active torsions:
REMARK  status: ('A' for Active; 'I' for Inactive)
REMARK    1  A    between atoms: C_8  and  C_9 
REMARK    2  A    between atoms: C_9  and  C_10 
REMARK    3  A    between atoms: C_10  and  N_11 
REMARK       I    between atoms: N_11  and  C_12 
REMARK    4  A    between atoms: C_12  and  C_13 
REMARK    5  A    between atoms: C_18  and  C_19 
REMARK    6  A    between atoms: C_29  and  C_30 
ROOT
HETATM    1  C   UNL     1       6.673  27.551  56.100  1.00  0.00     0.148 C 
HETATM    2  N   UNL     1       7.660  26.818  55.529  1.00  0.00    -0.165 NA
HETATM    3  N   UNL     1       7.028  26.183  54.528  1.00  0.00    -0.240 N 
HETATM    4  C   UNL     1       5.738  26.584  54.340  1.00  0.00     0.123 C 
HETATM    5  N   UNL     1       5.030  26.151  53.279  1.00  0.00    -0.366 N 
HETATM    6  C   UNL     1       5.687  25.654  52.066  1.00  0.00     0.118 C 
HETATM    7  C   UNL     1       7.227  25.551  52.199  1.00  0.00     0.066 C 
HETATM    8  C   UNL     1       7.696  25.266  53.631  1.00  0.00     0.221 C 
HETATM    9  C   UNL     1       5.446  27.407  55.392  1.00  0.00     0.088 C 
HETATM   10  H   UNL     1       4.081  26.494  53.131  1.00  0.00     0.161 HD
ENDROOT
BRANCH   1  11
HETATM   11  C   UNL     1       6.901  28.397  57.282  1.00  0.00     0.272 C 
HETATM   12  N   UNL     1       6.222  29.592  57.239  1.00  0.00    -0.355 N 
HETATM   13  H   UNL     1       5.563  29.697  56.473  1.00  0.00     0.162 HD
HETATM   14  O   UNL     1       7.613  28.052  58.220  1.00  0.00    -0.266 OA
BRANCH  12  15
HETATM   15  C   UNL     1       6.250  30.526  58.343  1.00  0.00     0.127 C 
BRANCH  15  16
HETATM   16  C   UNL     1       7.595  31.235  58.501  1.00  0.00     0.060 C 
BRANCH  16  17
HETATM   17  C   UNL     1       8.069  31.278  59.922  1.00  0.00    -0.029 A 
HETATM   18  C   UNL     1       7.553  32.082  60.989  1.00  0.00    -0.002 A 
HETATM   19  C   UNL     1       6.515  33.034  61.093  1.00  0.00     0.014 A 
HETATM   20  C   UNL     1       8.305  31.796  62.130  1.00  0.00     0.042 A 
HETATM   21  C   UNL     1       6.271  33.657  62.323  1.00  0.00     0.001 A 
HETATM   22  C   UNL     1       7.040  33.349  63.441  1.00  0.00     0.002 A 
HETATM   23  C   UNL     1       8.072  32.410  63.366  1.00  0.00     0.030 A 
HETATM   24  N   UNL     1       9.241  30.855  61.773  1.00  0.00    -0.365 N 
HETATM   25  H   UNL     1       9.926  30.461  62.403  1.00  0.00     0.165 HD
HETATM   26  C   UNL     1       9.113  30.539  60.448  1.00  0.00     0.096 A 
ENDBRANCH  16  17
ENDBRANCH  15  16
ENDBRANCH  12  15
ENDBRANCH   1  11
BRANCH   8  27
HETATM   27  C   UNL     1       7.442  23.838  54.055  1.00  0.00     0.409 C 
HETATM   28  F   UNL     1       6.514  23.747  55.032  1.00  0.00    -0.169 F 
HETATM   29  F   UNL     1       7.065  23.028  53.046  1.00  0.00    -0.169 F 
HETATM   30  F   UNL     1       8.587  23.307  54.564  1.00  0.00    -0.169 F 
ENDBRANCH   8  27
BRANCH   6  31
HETATM   31  C   UNL     1       5.301  26.569  50.911  1.00  0.00    -0.033 A 
HETATM   32  C   UNL     1       5.553  27.950  50.979  1.00  0.00     0.049 A 
HETATM   33  C   UNL     1       5.199  28.729  49.895  1.00  0.00     0.105 A 
HETATM   34  C   UNL     1       4.614  28.195  48.771  1.00  0.00     0.105 A 
HETATM   35  O   UNL     1       5.377  30.074  49.794  1.00  0.00    -0.323 OA
HETATM   36  O   UNL     1       4.348  29.133  47.824  1.00  0.00    -0.323 OA
HETATM   37  C   UNL     1       4.354  26.849  48.660  1.00  0.00     0.040 A 
HETATM   38  C   UNL     1       4.846  30.320  48.473  1.00  0.00     0.352 A 
HETATM   39  C   UNL     1       4.708  26.033  49.737  1.00  0.00     0.012 A 
ENDBRANCH   6  31
TORSDOF 6
ENDMDL
