MODEL 1
REMARK VINA RESULT:      -8.5      0.000      0.000
REMARK  6 active torsions:
REMARK  status: ('A' for Active; 'I' for Inactive)
REMARK    1  A    between atoms: C_2  and  C_3 
REMARK    2  A    between atoms: C_5  and  C_6 
REMARK       I    between atoms: C_6  and  N_7 
REMARK    3  A    between atoms: N_7  and  C_8 
REMARK    4  A    between atoms: C_8  and  C_9 
REMARK    5  A    between atoms: C_9  and  C_10 
REMARK    6  A    between atoms: C_19  and  O_20 
ROOT
HETATM    1  C   UNL     1       7.230  25.304  56.270  1.00  0.00     0.254 C 
HETATM    2  N   UNL     1       8.098  26.356  56.451  1.00  0.00    -0.356 N 
HETATM    3  O   UNL     1       6.277  25.102  57.017  1.00  0.00    -0.268 OA
HETATM    4  H   UNL     1       8.821  26.482  55.748  1.00  0.00     0.162 HD
ENDROOT
BRANCH   1   5
HETATM    5  C   UNL     1       7.489  24.398  55.105  1.00  0.00     0.065 A 
HETATM    6  C   UNL     1       7.568  23.020  55.378  1.00  0.00     0.027 A 
HETATM    7  C   UNL     1       7.805  22.085  54.360  1.00  0.00    -0.057 A 
HETATM    8  C   UNL     1       7.954  22.539  53.046  1.00  0.00     0.010 A 
HETATM    9  C   UNL     1       7.879  23.903  52.755  1.00  0.00     0.038 A 
HETATM   10  C   UNL     1       7.648  24.828  53.779  1.00  0.00     0.081 A 
BRANCH   7  11
HETATM   11  C   UNL     1       7.861  20.613  54.677  1.00  0.00     0.034 C 
HETATM   12  C   UNL     1       7.963  20.360  56.174  1.00  0.00     0.010 C 
ENDBRANCH   7  11
BRANCH  10  13
HETATM   13  O   UNL     1       7.574  26.159  53.450  1.00  0.00    -0.360 OA
HETATM   14  H   UNL     1       7.602  26.240  52.480  1.00  0.00     0.217 HD
ENDBRANCH  10  13
ENDBRANCH   1   5
BRANCH   2  15
HETATM   15  C   UNL     1       7.889  27.344  57.492  1.00  0.00     0.136 C 
BRANCH  15  16
HETATM   16  C   UNL     1       7.471  28.756  56.985  1.00  0.00    -0.004 C 
HETATM   17  C   UNL     1       7.448  28.790  55.439  1.00  0.00     0.021 C 
HETATM   18  C   UNL     1       6.032  29.063  57.465  1.00  0.00     0.021 C 
BRANCH  16  19
HETATM   19  C   UNL     1       8.503  29.780  57.506  1.00  0.00    -0.046 A 
HETATM   20  C   UNL     1       8.138  30.727  58.478  1.00  0.00     0.027 A 
HETATM   21  C   UNL     1       9.074  31.649  58.928  1.00  0.00     0.116 A 
HETATM   22  N   UNL     1      10.344  31.704  58.486  1.00  0.00    -0.273 NA
HETATM   23  C   UNL     1      10.688  30.800  57.547  1.00  0.00     0.116 A 
HETATM   24  C   UNL     1       9.822  29.841  57.035  1.00  0.00     0.027 A 
ENDBRANCH  16  19
ENDBRANCH  15  16
ENDBRANCH   2  15
TORSDOF 6
ENDMDL
MODEL 2
REMARK VINA RESULT:      -8.5      1.527      2.539
REMARK  6 active torsions:
REMARK  status: ('A' for Active; 'I' for Inactive)
REMARK    1  A    between atoms: C_2  and  C_3 
REMARK    2  A    between atoms: C_5  and  C_6 
REMARK       I    between atoms: C_6  and  N_7 
REMARK    3  A    between atoms: N_7  and  C_8 
REMARK    4  A    between atoms: C_8  and  C_9 
REMARK    5  A    between atoms: C_9  and  C_10 
REMARK    6  A    between atoms: C_19  and  O_20 
ROOT
HETATM    1  C   UNL     1       8.443  24.657  57.279  1.00  0.00     0.254 C 
HETATM    2  N   UNL     1       7.872  25.844  56.882  1.00  0.00    -0.356 N 
HETATM    3  O   UNL     1       9.075  24.550  58.326  1.00  0.00    -0.268 OA
HETATM    4  H   UNL     1       7.314  25.824  56.032  1.00  0.00     0.162 HD
ENDROOT
BRANCH   1   5
HETATM    5  C   UNL     1       8.260  23.475  56.376  1.00  0.00     0.065 A 
HETATM    6  C   UNL     1       8.139  23.741  55.000  1.00  0.00     0.027 A 
HETATM    7  C   UNL     1       7.966  22.707  54.069  1.00  0.00    -0.057 A 
HETATM    8  C   UNL     1       7.923  21.386  54.524  1.00  0.00     0.010 A 
HETATM    9  C   UNL     1       8.041  21.102  55.886  1.00  0.00     0.038 A 
HETATM   10  C   UNL     1       8.209  22.141  56.808  1.00  0.00     0.081 A 
BRANCH   7  11
HETATM   11  C   UNL     1       7.863  23.017  52.597  1.00  0.00     0.034 C 
HETATM   12  C   UNL     1       7.801  24.516  52.338  1.00  0.00     0.010 C 
ENDBRANCH   7  11
BRANCH  10  13
HETATM   13  O   UNL     1       8.328  21.820  58.138  1.00  0.00    -0.360 OA
HETATM   14  H   UNL     1       8.851  22.513  58.578  1.00  0.00     0.217 HD
ENDBRANCH  10  13
ENDBRANCH   1   5
BRANCH   2  15
HETATM   15  C   UNL     1       7.910  27.026  57.722  1.00  0.00     0.136 C 
BRANCH  15  16
HETATM   16  C   UNL     1       7.595  28.363  56.991  1.00  0.00    -0.004 C 
HETATM   17  C   UNL     1       7.595  28.155  55.458  1.00  0.00     0.021 C 
HETATM   18  C   UNL     1       6.173  28.834  57.383  1.00  0.00     0.021 C 
BRANCH  16  19
HETATM   19  C   UNL     1       8.686  29.389  57.370  1.00  0.00    -0.046 A 
HETATM   20  C   UNL     1       8.402  30.430  58.271  1.00  0.00     0.027 A 
HETATM   21  C   UNL     1       9.390  31.351  58.593  1.00  0.00     0.116 A 
HETATM   22  N   UNL     1      10.638  31.318  58.089  1.00  0.00    -0.273 NA
HETATM   23  C   UNL     1      10.903  30.325  57.219  1.00  0.00     0.116 A 
HETATM   24  C   UNL     1       9.981  29.358  56.834  1.00  0.00     0.027 A 
ENDBRANCH  16  19
ENDBRANCH  15  16
ENDBRANCH   2  15
TORSDOF 6
ENDMDL
MODEL 3
REMARK VINA RESULT:      -8.4      4.500      7.851
REMARK  6 active torsions:
REMARK  status: ('A' for Active; 'I' for Inactive)
REMARK    1  A    between atoms: C_2  and  C_3 
REMARK    2  A    between atoms: C_5  and  C_6 
REMARK       I    between atoms: C_6  and  N_7 
REMARK    3  A    between atoms: N_7  and  C_8 
REMARK    4  A    between atoms: C_8  and  C_9 
REMARK    5  A    between atoms: C_9  and  C_10 
REMARK    6  A    between atoms: C_19  and  O_20 
ROOT
HETATM    1  C   UNL     1       5.270  26.563  52.101  1.00  0.00     0.254 C 
HETATM    2  N   UNL     1       5.525  25.211  52.072  1.00  0.00    -0.356 N 
HETATM    3  O   UNL     1       5.183  27.192  53.152  1.00  0.00    -0.268 OA
HETATM    4  H   UNL     1       5.642  24.786  51.156  1.00  0.00     0.162 HD
ENDROOT
BRANCH   1   5
HETATM    5  C   UNL     1       5.105  27.257  50.783  1.00  0.00     0.065 A 
HETATM    6  C   UNL     1       4.560  26.498  49.731  1.00  0.00     0.027 A 
HETATM    7  C   UNL     1       4.363  27.051  48.458  1.00  0.00    -0.057 A 
HETATM    8  C   UNL     1       4.708  28.388  48.239  1.00  0.00     0.010 A 
HETATM    9  C   UNL     1       5.251  29.156  49.271  1.00  0.00     0.038 A 
HETATM   10  C   UNL     1       5.449  28.594  50.537  1.00  0.00     0.081 A 
BRANCH   7  11
HETATM   11  C   UNL     1       3.754  26.223  47.354  1.00  0.00     0.034 C 
HETATM   12  C   UNL     1       3.001  25.019  47.901  1.00  0.00     0.010 C 
ENDBRANCH   7  11
BRANCH  10  13
HETATM   13  O   UNL     1       5.978  29.386  51.526  1.00  0.00    -0.360 OA
HETATM   14  H   UNL     1       5.254  29.684  52.105  1.00  0.00     0.217 HD
ENDBRANCH  10  13
ENDBRANCH   1   5
BRANCH   2  15
HETATM   15  C   UNL     1       5.790  24.460  53.283  1.00  0.00     0.136 C 
BRANCH  15  16
HETATM   16  C   UNL     1       7.294  24.329  53.661  1.00  0.00    -0.004 C 
HETATM   17  C   UNL     1       8.187  24.878  52.523  1.00  0.00     0.021 C 
HETATM   18  C   UNL     1       7.580  25.191  54.914  1.00  0.00     0.021 C 
BRANCH  16  19
HETATM   19  C   UNL     1       7.608  22.833  53.883  1.00  0.00    -0.046 A 
HETATM   20  C   UNL     1       7.621  22.295  55.182  1.00  0.00     0.027 A 
HETATM   21  C   UNL     1       7.916  20.951  55.367  1.00  0.00     0.116 A 
HETATM   22  N   UNL     1       8.200  20.100  54.363  1.00  0.00    -0.273 NA
HETATM   23  C   UNL     1       8.195  20.622  53.121  1.00  0.00     0.116 A 
HETATM   24  C   UNL     1       7.914  21.954  52.836  1.00  0.00     0.027 A 
ENDBRANCH  16  19
ENDBRANCH  15  16
ENDBRANCH   2  15
TORSDOF 6
ENDMDL
MODEL 4
REMARK VINA RESULT:      -7.9      2.079      7.731
REMARK  6 active torsions:
REMARK  status: ('A' for Active; 'I' for Inactive)
REMARK    1  A    between atoms: C_2  and  C_3 
REMARK    2  A    between atoms: C_5  and  C_6 
REMARK       I    between atoms: C_6  and  N_7 
REMARK    3  A    between atoms: N_7  and  C_8 
REMARK    4  A    between atoms: C_8  and  C_9 
REMARK    5  A    between atoms: C_9  and  C_10 
REMARK    6  A    between atoms: C_19  and  O_20 
ROOT
HETATM    1  C   UNL     1       7.562  28.706  56.876  1.00  0.00     0.254 C 
HETATM    2  N   UNL     1       8.103  27.711  56.094  1.00  0.00    -0.356 N 
HETATM    3  O   UNL     1       6.352  28.834  57.034  1.00  0.00    -0.268 OA
HETATM    4  H   UNL     1       9.117  27.644  56.072  1.00  0.00     0.162 HD
ENDROOT
BRANCH   1   5
HETATM    5  C   UNL     1       8.520  29.643  57.549  1.00  0.00     0.065 A 
HETATM    6  C   UNL     1       8.214  30.021  58.869  1.00  0.00     0.027 A 
HETATM    7  C   UNL     1       9.043  30.892  59.589  1.00  0.00    -0.057 A 
HETATM    8  C   UNL     1      10.202  31.384  58.980  1.00  0.00     0.010 A 
HETATM    9  C   UNL     1      10.521  31.020  57.671  1.00  0.00     0.038 A 
HETATM   10  C   UNL     1       9.685  30.154  56.958  1.00  0.00     0.081 A 
BRANCH   7  11
HETATM   11  C   UNL     1       8.705  31.263  61.011  1.00  0.00     0.034 C 
HETATM   12  C   UNL     1       9.382  30.338  62.012  1.00  0.00     0.010 C 
ENDBRANCH   7  11
BRANCH  10  13
HETATM   13  O   UNL     1      10.038  29.815  55.675  1.00  0.00    -0.360 OA
HETATM   14  H   UNL     1       9.289  30.013  55.085  1.00  0.00     0.217 HD
ENDBRANCH  10  13
ENDBRANCH   1   5
BRANCH   2  15
HETATM   15  C   UNL     1       7.274  26.698  55.472  1.00  0.00     0.136 C 
BRANCH  15  16
HETATM   16  C   UNL     1       7.309  25.303  56.163  1.00  0.00    -0.004 C 
HETATM   17  C   UNL     1       8.463  25.238  57.191  1.00  0.00     0.021 C 
HETATM   18  C   UNL     1       5.991  25.093  56.949  1.00  0.00     0.021 C 
BRANCH  16  19
HETATM   19  C   UNL     1       7.529  24.230  55.074  1.00  0.00    -0.046 A 
HETATM   20  C   UNL     1       7.541  22.866  55.412  1.00  0.00     0.027 A 
HETATM   21  C   UNL     1       7.752  21.914  54.424  1.00  0.00     0.116 A 
HETATM   22  N   UNL     1       7.953  22.212  53.126  1.00  0.00    -0.273 NA
HETATM   23  C   UNL     1       7.950  23.521  52.808  1.00  0.00     0.116 A 
HETATM   24  C   UNL     1       7.749  24.545  53.727  1.00  0.00     0.027 A 
ENDBRANCH  16  19
ENDBRANCH  15  16
ENDBRANCH   2  15
TORSDOF 6
ENDMDL
MODEL 5
REMARK VINA RESULT:      -7.9      4.278      6.738
REMARK  6 active torsions:
REMARK  status: ('A' for Active; 'I' for Inactive)
REMARK    1  A    between atoms: C_2  and  C_3 
REMARK    2  A    between atoms: C_5  and  C_6 
REMARK       I    between atoms: C_6  and  N_7 
REMARK    3  A    between atoms: N_7  and  C_8 
REMARK    4  A    between atoms: C_8  and  C_9 
REMARK    5  A    between atoms: C_9  and  C_10 
REMARK    6  A    between atoms: C_19  and  O_20 
ROOT
HETATM    1  C   UNL     1       5.124  26.674  52.073  1.00  0.00     0.254 C 
HETATM    2  N   UNL     1       5.583  25.377  52.051  1.00  0.00    -0.356 N 
HETATM    3  O   UNL     1       4.827  27.248  53.117  1.00  0.00    -0.268 OA
HETATM    4  H   UNL     1       5.863  25.005  51.147  1.00  0.00     0.162 HD
ENDROOT
BRANCH   1   5
HETATM    5  C   UNL     1       5.002  27.379  50.756  1.00  0.00     0.065 A 
HETATM    6  C   UNL     1       4.397  26.662  49.707  1.00  0.00     0.027 A 
HETATM    7  C   UNL     1       4.232  27.229  48.435  1.00  0.00    -0.057 A 
HETATM    8  C   UNL     1       4.672  28.537  48.214  1.00  0.00     0.010 A 
HETATM    9  C   UNL     1       5.276  29.264  49.243  1.00  0.00     0.038 A 
HETATM   10  C   UNL     1       5.440  28.688  50.507  1.00  0.00     0.081 A 
BRANCH   7  11
HETATM   11  C   UNL     1       3.559  26.448  47.335  1.00  0.00     0.034 C 
HETATM   12  C   UNL     1       3.140  25.061  47.802  1.00  0.00     0.010 C 
ENDBRANCH   7  11
BRANCH  10  13
HETATM   13  O   UNL     1       6.031  29.439  51.494  1.00  0.00    -0.360 OA
HETATM   14  H   UNL     1       5.406  30.131  51.772  1.00  0.00     0.217 HD
ENDBRANCH  10  13
ENDBRANCH   1   5
BRANCH   2  15
HETATM   15  C   UNL     1       5.824  24.634  53.272  1.00  0.00     0.136 C 
BRANCH  15  16
HETATM   16  C   UNL     1       7.311  24.250  53.526  1.00  0.00    -0.004 C 
HETATM   17  C   UNL     1       7.500  22.719  53.415  1.00  0.00     0.021 C 
HETATM   18  C   UNL     1       8.196  24.895  52.433  1.00  0.00     0.021 C 
BRANCH  16  19
HETATM   19  C   UNL     1       7.692  24.712  54.950  1.00  0.00    -0.046 A 
HETATM   20  C   UNL     1       7.375  26.010  55.385  1.00  0.00     0.027 A 
HETATM   21  C   UNL     1       7.735  26.415  56.664  1.00  0.00     0.116 A 
HETATM   22  N   UNL     1       8.385  25.630  57.544  1.00  0.00    -0.273 NA
HETATM   23  C   UNL     1       8.695  24.390  57.119  1.00  0.00     0.116 A 
HETATM   24  C   UNL     1       8.379  23.896  55.858  1.00  0.00     0.027 A 
ENDBRANCH  16  19
ENDBRANCH  15  16
ENDBRANCH   2  15
TORSDOF 6
ENDMDL
MODEL 6
REMARK VINA RESULT:      -7.9      1.657      2.998
REMARK  6 active torsions:
REMARK  status: ('A' for Active; 'I' for Inactive)
REMARK    1  A    between atoms: C_2  and  C_3 
REMARK    2  A    between atoms: C_5  and  C_6 
REMARK       I    between atoms: C_6  and  N_7 
REMARK    3  A    between atoms: N_7  and  C_8 
REMARK    4  A    between atoms: C_8  and  C_9 
REMARK    5  A    between atoms: C_9  and  C_10 
REMARK    6  A    between atoms: C_19  and  O_20 
ROOT
HETATM    1  C   UNL     1       7.007  25.251  56.306  1.00  0.00     0.254 C 
HETATM    2  N   UNL     1       7.824  26.323  56.582  1.00  0.00    -0.356 N 
HETATM    3  O   UNL     1       6.024  24.981  56.991  1.00  0.00    -0.268 OA
HETATM    4  H   UNL     1       8.578  26.507  55.925  1.00  0.00     0.162 HD
ENDROOT
BRANCH   1   5
HETATM    5  C   UNL     1       7.359  24.411  55.116  1.00  0.00     0.065 A 
HETATM    6  C   UNL     1       7.458  23.024  55.326  1.00  0.00     0.027 A 
HETATM    7  C   UNL     1       7.781  22.148  54.280  1.00  0.00    -0.057 A 
HETATM    8  C   UNL     1       7.997  22.670  53.001  1.00  0.00     0.010 A 
HETATM    9  C   UNL     1       7.903  24.045  52.774  1.00  0.00     0.038 A 
HETATM   10  C   UNL     1       7.585  24.911  53.825  1.00  0.00     0.081 A 
BRANCH   7  11
HETATM   11  C   UNL     1       7.857  20.662  54.527  1.00  0.00     0.034 C 
HETATM   12  C   UNL     1       7.817  20.334  56.013  1.00  0.00     0.010 C 
ENDBRANCH   7  11
BRANCH  10  13
HETATM   13  O   UNL     1       7.495  26.255  53.558  1.00  0.00    -0.360 OA
HETATM   14  H   UNL     1       6.882  26.658  54.198  1.00  0.00     0.217 HD
ENDBRANCH  10  13
ENDBRANCH   1   5
BRANCH   2  15
HETATM   15  C   UNL     1       7.525  27.252  57.654  1.00  0.00     0.136 C 
BRANCH  15  16
HETATM   16  C   UNL     1       7.561  28.756  57.252  1.00  0.00    -0.004 C 
HETATM   17  C   UNL     1       8.257  29.593  58.351  1.00  0.00     0.021 C 
HETATM   18  C   UNL     1       8.403  28.916  55.962  1.00  0.00     0.021 C 
BRANCH  16  19
HETATM   19  C   UNL     1       6.107  29.244  57.077  1.00  0.00    -0.046 A 
HETATM   20  C   UNL     1       5.230  28.571  56.209  1.00  0.00     0.027 A 
HETATM   21  C   UNL     1       3.928  29.029  56.054  1.00  0.00     0.116 A 
HETATM   22  N   UNL     1       3.430  30.104  56.695  1.00  0.00    -0.273 NA
HETATM   23  C   UNL     1       4.277  30.751  57.518  1.00  0.00     0.116 A 
HETATM   24  C   UNL     1       5.596  30.370  57.737  1.00  0.00     0.027 A 
ENDBRANCH  16  19
ENDBRANCH  15  16
ENDBRANCH   2  15
TORSDOF 6
ENDMDL
MODEL 7
REMARK VINA RESULT:      -7.9      1.060      2.026
REMARK  6 active torsions:
REMARK  status: ('A' for Active; 'I' for Inactive)
REMARK    1  A    between atoms: C_2  and  C_3 
REMARK    2  A    between atoms: C_5  and  C_6 
REMARK       I    between atoms: C_6  and  N_7 
REMARK    3  A    between atoms: N_7  and  C_8 
REMARK    4  A    between atoms: C_8  and  C_9 
REMARK    5  A    between atoms: C_9  and  C_10 
REMARK    6  A    between atoms: C_19  and  O_20 
ROOT
HETATM    1  C   UNL     1       7.137  25.935  54.921  1.00  0.00     0.254 C 
HETATM    2  N   UNL     1       7.850  26.871  55.634  1.00  0.00    -0.356 N 
HETATM    3  O   UNL     1       6.266  26.247  54.114  1.00  0.00    -0.268 OA
HETATM    4  H   UNL     1       8.595  26.523  56.232  1.00  0.00     0.162 HD
ENDROOT
BRANCH   1   5
HETATM    5  C   UNL     1       7.468  24.493  55.163  1.00  0.00     0.065 A 
HETATM    6  C   UNL     1       7.506  23.654  54.034  1.00  0.00     0.027 A 
HETATM    7  C   UNL     1       7.808  22.289  54.148  1.00  0.00    -0.057 A 
HETATM    8  C   UNL     1       8.084  21.760  55.413  1.00  0.00     0.010 A 
HETATM    9  C   UNL     1       8.050  22.578  56.544  1.00  0.00     0.038 A 
HETATM   10  C   UNL     1       7.744  23.937  56.421  1.00  0.00     0.081 A 
BRANCH   7  11
HETATM   11  C   UNL     1       7.866  21.417  52.920  1.00  0.00     0.034 C 
HETATM   12  C   UNL     1       8.723  20.180  53.145  1.00  0.00     0.010 C 
ENDBRANCH   7  11
BRANCH  10  13
HETATM   13  O   UNL     1       7.729  24.708  57.557  1.00  0.00    -0.360 OA
HETATM   14  H   UNL     1       7.610  24.123  58.326  1.00  0.00     0.217 HD
ENDBRANCH  10  13
ENDBRANCH   1   5
BRANCH   2  15
HETATM   15  C   UNL     1       7.674  28.293  55.412  1.00  0.00     0.136 C 
BRANCH  15  16
HETATM   16  C   UNL     1       7.247  29.107  56.668  1.00  0.00    -0.004 C 
HETATM   17  C   UNL     1       6.134  30.118  56.304  1.00  0.00     0.021 C 
HETATM   18  C   UNL     1       6.653  28.142  57.722  1.00  0.00     0.021 C 
BRANCH  16  19
HETATM   19  C   UNL     1       8.483  29.871  57.190  1.00  0.00    -0.046 A 
HETATM   20  C   UNL     1       8.356  30.797  58.240  1.00  0.00     0.027 A 
HETATM   21  C   UNL     1       9.475  31.485  58.692  1.00  0.00     0.116 A 
HETATM   22  N   UNL     1      10.710  31.324  58.181  1.00  0.00    -0.273 NA
HETATM   23  C   UNL     1      10.826  30.443  57.168  1.00  0.00     0.116 A 
HETATM   24  C   UNL     1       9.765  29.710  56.648  1.00  0.00     0.027 A 
ENDBRANCH  16  19
ENDBRANCH  15  16
ENDBRANCH   2  15
TORSDOF 6
ENDMDL
MODEL 8
REMARK VINA RESULT:      -7.9      4.587      8.311
REMARK  6 active torsions:
REMARK  status: ('A' for Active; 'I' for Inactive)
REMARK    1  A    between atoms: C_2  and  C_3 
REMARK    2  A    between atoms: C_5  and  C_6 
REMARK       I    between atoms: C_6  and  N_7 
REMARK    3  A    between atoms: N_7  and  C_8 
REMARK    4  A    between atoms: C_8  and  C_9 
REMARK    5  A    between atoms: C_9  and  C_10 
REMARK    6  A    between atoms: C_19  and  O_20 
ROOT
HETATM    1  C   UNL     1       4.964  26.652  51.948  1.00  0.00     0.254 C 
HETATM    2  N   UNL     1       5.488  25.384  51.839  1.00  0.00    -0.356 N 
HETATM    3  O   UNL     1       4.598  27.121  53.021  1.00  0.00    -0.268 OA
HETATM    4  H   UNL     1       5.822  25.103  50.921  1.00  0.00     0.162 HD
ENDROOT
BRANCH   1   5
HETATM    5  C   UNL     1       4.859  27.459  50.689  1.00  0.00     0.065 A 
HETATM    6  C   UNL     1       5.345  28.778  50.740  1.00  0.00     0.027 A 
HETATM    7  C   UNL     1       5.296  29.618  49.619  1.00  0.00    -0.057 A 
HETATM    8  C   UNL     1       4.760  29.125  48.426  1.00  0.00     0.010 A 
HETATM    9  C   UNL     1       4.272  27.818  48.356  1.00  0.00     0.038 A 
HETATM   10  C   UNL     1       4.321  26.989  49.482  1.00  0.00     0.081 A 
BRANCH   7  11
HETATM   11  C   UNL     1       5.846  31.020  49.693  1.00  0.00     0.034 C 
HETATM   12  C   UNL     1       5.352  31.883  48.541  1.00  0.00     0.010 C 
ENDBRANCH   7  11
BRANCH  10  13
HETATM   13  O   UNL     1       3.838  25.709  49.370  1.00  0.00    -0.360 OA
HETATM   14  H   UNL     1       4.592  25.092  49.365  1.00  0.00     0.217 HD
ENDBRANCH  10  13
ENDBRANCH   1   5
BRANCH   2  15
HETATM   15  C   UNL     1       5.718  24.553  53.004  1.00  0.00     0.136 C 
BRANCH  15  16
HETATM   16  C   UNL     1       7.196  24.489  53.486  1.00  0.00    -0.004 C 
HETATM   17  C   UNL     1       8.156  24.888  52.341  1.00  0.00     0.021 C 
HETATM   18  C   UNL     1       7.404  25.516  54.627  1.00  0.00     0.021 C 
BRANCH  16  19
HETATM   19  C   UNL     1       7.498  23.040  53.928  1.00  0.00    -0.046 A 
HETATM   20  C   UNL     1       7.773  22.048  52.972  1.00  0.00     0.027 A 
HETATM   21  C   UNL     1       8.031  20.747  53.385  1.00  0.00     0.116 A 
HETATM   22  N   UNL     1       8.036  20.356  54.673  1.00  0.00    -0.273 NA
HETATM   23  C   UNL     1       7.762  21.309  55.586  1.00  0.00     0.116 A 
HETATM   24  C   UNL     1       7.490  22.635  55.270  1.00  0.00     0.027 A 
ENDBRANCH  16  19
ENDBRANCH  15  16
ENDBRANCH   2  15
TORSDOF 6
ENDMDL
MODEL 9
REMARK VINA RESULT:      -7.4      2.153      7.990
REMARK  6 active torsions:
REMARK  status: ('A' for Active; 'I' for Inactive)
REMARK    1  A    between atoms: C_2  and  C_3 
REMARK    2  A    between atoms: C_5  and  C_6 
REMARK       I    between atoms: C_6  and  N_7 
REMARK    3  A    between atoms: N_7  and  C_8 
REMARK    4  A    between atoms: C_8  and  C_9 
REMARK    5  A    between atoms: C_9  and  C_10 
REMARK    6  A    between atoms: C_19  and  O_20 
ROOT
HETATM    1  C   UNL     1       7.537  28.072  57.426  1.00  0.00     0.254 C 
HETATM    2  N   UNL     1       7.175  27.774  56.133  1.00  0.00    -0.356 N 
HETATM    3  O   UNL     1       8.129  27.271  58.144  1.00  0.00    -0.268 OA
HETATM    4  H   UNL     1       6.744  28.520  55.593  1.00  0.00     0.162 HD
ENDROOT
BRANCH   1   5
HETATM    5  C   UNL     1       7.184  29.435  57.939  1.00  0.00     0.065 A 
HETATM    6  C   UNL     1       8.177  30.116  58.665  1.00  0.00     0.027 A 
HETATM    7  C   UNL     1       7.951  31.397  59.188  1.00  0.00    -0.057 A 
HETATM    8  C   UNL     1       6.713  32.009  58.970  1.00  0.00     0.010 A 
HETATM    9  C   UNL     1       5.715  31.349  58.251  1.00  0.00     0.038 A 
HETATM   10  C   UNL     1       5.948  30.069  57.738  1.00  0.00     0.081 A 
BRANCH   7  11
HETATM   11  C   UNL     1       9.042  32.115  59.943  1.00  0.00     0.034 C 
HETATM   12  C   UNL     1       8.873  31.974  61.449  1.00  0.00     0.010 C 
ENDBRANCH   7  11
BRANCH  10  13
HETATM   13  O   UNL     1       4.943  29.456  57.030  1.00  0.00    -0.360 OA
HETATM   14  H   UNL     1       4.087  29.756  57.385  1.00  0.00     0.217 HD
ENDBRANCH  10  13
ENDBRANCH   1   5
BRANCH   2  15
HETATM   15  C   UNL     1       7.546  26.519  55.508  1.00  0.00     0.136 C 
BRANCH  15  16
HETATM   16  C   UNL     1       6.356  25.574  55.169  1.00  0.00    -0.004 C 
HETATM   17  C   UNL     1       5.465  25.359  56.414  1.00  0.00     0.021 C 
HETATM   18  C   UNL     1       5.470  26.242  54.089  1.00  0.00     0.021 C 
BRANCH  16  19
HETATM   19  C   UNL     1       6.933  24.218  54.709  1.00  0.00    -0.046 A 
HETATM   20  C   UNL     1       7.152  23.964  53.344  1.00  0.00     0.027 A 
HETATM   21  C   UNL     1       7.660  22.735  52.944  1.00  0.00     0.116 A 
HETATM   22  N   UNL     1       7.968  21.738  53.796  1.00  0.00    -0.273 NA
HETATM   23  C   UNL     1       7.748  21.983  55.103  1.00  0.00     0.116 A 
HETATM   24  C   UNL     1       7.242  23.179  55.597  1.00  0.00     0.027 A 
ENDBRANCH  16  19
ENDBRANCH  15  16
ENDBRANCH   2  15
TORSDOF 6
ENDMDL
MODEL 10
REMARK VINA RESULT:      -7.3      4.317      7.310
REMARK  6 active torsions:
REMARK  status: ('A' for Active; 'I' for Inactive)
REMARK    1  A    between atoms: C_2  and  C_3 
REMARK    2  A    between atoms: C_5  and  C_6 
REMARK       I    between atoms: C_6  and  N_7 
REMARK    3  A    between atoms: N_7  and  C_8 
REMARK    4  A    between atoms: C_8  and  C_9 
REMARK    5  A    between atoms: C_9  and  C_10 
REMARK    6  A    between atoms: C_19  and  O_20 
ROOT
HETATM    1  C   UNL     1       5.043  26.646  52.030  1.00  0.00     0.254 C 
HETATM    2  N   UNL     1       5.573  25.390  51.844  1.00  0.00    -0.356 N 
HETATM    3  O   UNL     1       4.691  27.054  53.133  1.00  0.00    -0.268 OA
HETATM    4  H   UNL     1       5.894  25.161  50.907  1.00  0.00     0.162 HD
ENDROOT
BRANCH   1   5
HETATM    5  C   UNL     1       4.912  27.519  50.819  1.00  0.00     0.065 A 
HETATM    6  C   UNL     1       5.368  28.844  50.941  1.00  0.00     0.027 A 
HETATM    7  C   UNL     1       5.293  29.745  49.869  1.00  0.00    -0.057 A 
HETATM    8  C   UNL     1       4.762  29.306  48.653  1.00  0.00     0.010 A 
HETATM    9  C   UNL     1       4.303  27.995  48.513  1.00  0.00     0.038 A 
HETATM   10  C   UNL     1       4.378  27.105  49.590  1.00  0.00     0.081 A 
BRANCH   7  11
HETATM   11  C   UNL     1       5.812  31.152  50.019  1.00  0.00     0.034 C 
HETATM   12  C   UNL     1       5.672  31.947  48.728  1.00  0.00     0.010 C 
ENDBRANCH   7  11
BRANCH  10  13
HETATM   13  O   UNL     1       3.923  25.822  49.409  1.00  0.00    -0.360 OA
HETATM   14  H   UNL     1       4.690  25.225  49.366  1.00  0.00     0.217 HD
ENDBRANCH  10  13
ENDBRANCH   1   5
BRANCH   2  15
HETATM   15  C   UNL     1       5.827  24.498  52.958  1.00  0.00     0.136 C 
BRANCH  15  16
HETATM   16  C   UNL     1       7.330  24.203  53.236  1.00  0.00    -0.004 C 
HETATM   17  C   UNL     1       7.632  22.700  53.033  1.00  0.00     0.021 C 
HETATM   18  C   UNL     1       8.197  24.980  52.215  1.00  0.00     0.021 C 
BRANCH  16  19
HETATM   19  C   UNL     1       7.637  24.596  54.697  1.00  0.00    -0.046 A 
HETATM   20  C   UNL     1       7.380  25.901  55.152  1.00  0.00     0.027 A 
HETATM   21  C   UNL     1       7.673  26.243  56.466  1.00  0.00     0.116 A 
HETATM   22  N   UNL     1       8.201  25.389  57.363  1.00  0.00    -0.273 NA
HETATM   23  C   UNL     1       8.455  24.142  56.920  1.00  0.00     0.116 A 
HETATM   24  C   UNL     1       8.198  23.708  55.625  1.00  0.00     0.027 A 
ENDBRANCH  16  19
ENDBRANCH  15  16
ENDBRANCH   2  15
TORSDOF 6
ENDMDL
