MODEL 1
REMARK VINA RESULT:      -9.3      0.000      0.000
REMARK  6 active torsions:
REMARK  status: ('A' for Active; 'I' for Inactive)
REMARK    1  A    between atoms: C_2  and  N_3 
REMARK       I    between atoms: N_3  and  C_4 
REMARK    2  A    between atoms: C_4  and  C_5 
REMARK    3  A    between atoms: C_5  and  O_6 
REMARK    4  A    between atoms: O_6  and  C_7 
REMARK    5  A    between atoms: C_9  and  N_10 
REMARK       I    between atoms: N_10  and  C_11 
REMARK    6  A    between atoms: C_11  and  C_12 
ROOT
HETATM    1  N   UNL     1       7.186  26.750  55.055  1.00  0.00    -0.322 N 
HETATM    2  C   UNL     1       6.472  25.565  55.031  1.00  0.00     0.277 C 
HETATM    3  O   UNL     1       5.517  25.279  55.745  1.00  0.00    -0.266 OA
HETATM    4  H   UNL     1       7.972  26.762  54.409  1.00  0.00     0.169 HD
ENDROOT
BRANCH   1   5
HETATM    5  C   UNL     1       6.981  27.867  55.883  1.00  0.00     0.037 A 
HETATM    6  C   UNL     1       7.716  28.112  57.042  1.00  0.00     0.066 A 
HETATM    7  C   UNL     1       7.486  29.256  57.815  1.00  0.00     0.071 A 
HETATM    8  C   UNL     1       6.496  30.159  57.438  1.00  0.00     0.037 A 
HETATM    9  C   UNL     1       5.745  29.916  56.286  1.00  0.00     0.005 A 
HETATM   10  C   UNL     1       5.985  28.776  55.514  1.00  0.00     0.029 A 
BRANCH   7  11
HETATM   11  O   UNL     1       8.283  29.353  58.919  1.00  0.00    -0.342 OA
BRANCH  11  12
HETATM   12  C   UNL     1       9.188  30.454  58.978  1.00  0.00     0.278 C 
BRANCH  12  13
HETATM   13  C   UNL     1       8.631  31.499  59.947  1.00  0.00     0.241 C 
HETATM   14  N   UNL     1       7.839  30.973  60.946  1.00  0.00    -0.360 N 
HETATM   15  H   UNL     1       7.566  30.000  60.836  1.00  0.00     0.162 HD
HETATM   16  O   UNL     1       8.915  32.691  59.857  1.00  0.00    -0.271 OA
BRANCH  14  17
HETATM   17  C   UNL     1       7.146  31.790  61.914  1.00  0.00     0.118 C 
HETATM   18  C   UNL     1       8.004  32.048  63.139  1.00  0.00     0.026 C 
ENDBRANCH  14  17
ENDBRANCH  12  13
ENDBRANCH  11  12
ENDBRANCH   7  11
ENDBRANCH   1   5
BRANCH   2  19
HETATM   19  C   UNL     1       7.009  24.618  54.037  1.00  0.00     0.157 A 
HETATM   20  N   UNL     1       7.200  24.977  52.748  1.00  0.00    -0.168 NA
HETATM   21  N   UNL     1       7.680  23.858  52.173  1.00  0.00    -0.277 N 
HETATM   22  H   UNL     1       7.892  23.878  51.183  1.00  0.00     0.189 HD
HETATM   23  C   UNL     1       7.838  22.804  53.030  1.00  0.00     0.063 A 
HETATM   24  C   UNL     1       7.406  23.267  54.266  1.00  0.00     0.029 A 
HETATM   25  C   UNL     1       8.318  21.506  52.828  1.00  0.00     0.032 A 
HETATM   26  C   UNL     1       7.454  22.398  55.373  1.00  0.00     0.023 A 
HETATM   27  C   UNL     1       7.942  21.090  55.207  1.00  0.00    -0.061 A 
HETATM   28  C   UNL     1       8.362  20.659  53.943  1.00  0.00     0.009 A 
HETATM   29  C   UNL     1       8.004  20.173  56.395  1.00  0.00     0.048 C 
ENDBRANCH   2  19
TORSDOF 6
ENDMDL
MODEL 2
REMARK VINA RESULT:      -9.0      4.606      7.829
REMARK  6 active torsions:
REMARK  status: ('A' for Active; 'I' for Inactive)
REMARK    1  A    between atoms: C_2  and  N_3 
REMARK       I    between atoms: N_3  and  C_4 
REMARK    2  A    between atoms: C_4  and  C_5 
REMARK    3  A    between atoms: C_5  and  O_6 
REMARK    4  A    between atoms: O_6  and  C_7 
REMARK    5  A    between atoms: C_9  and  N_10 
REMARK       I    between atoms: N_10  and  C_11 
REMARK    6  A    between atoms: C_11  and  C_12 
ROOT
HETATM    1  N   UNL     1       5.824  26.204  54.691  1.00  0.00    -0.322 N 
HETATM    2  C   UNL     1       7.099  25.727  54.446  1.00  0.00     0.277 C 
HETATM    3  O   UNL     1       7.850  26.091  53.547  1.00  0.00    -0.266 OA
HETATM    4  H   UNL     1       5.356  25.731  55.460  1.00  0.00     0.169 HD
ENDROOT
BRANCH   1   5
HETATM    5  C   UNL     1       5.119  27.192  53.983  1.00  0.00     0.037 A 
HETATM    6  C   UNL     1       4.911  27.150  52.604  1.00  0.00     0.066 A 
HETATM    7  C   UNL     1       4.178  28.151  51.954  1.00  0.00     0.071 A 
HETATM    8  C   UNL     1       3.662  29.217  52.685  1.00  0.00     0.037 A 
HETATM    9  C   UNL     1       3.876  29.275  54.064  1.00  0.00     0.005 A 
HETATM   10  C   UNL     1       4.602  28.270  54.708  1.00  0.00     0.029 A 
BRANCH   7  11
HETATM   11  O   UNL     1       4.063  27.971  50.606  1.00  0.00    -0.342 OA
BRANCH  11  12
HETATM   12  C   UNL     1       4.758  26.867  50.031  1.00  0.00     0.278 C 
BRANCH  12  13
HETATM   13  C   UNL     1       4.164  26.573  48.652  1.00  0.00     0.241 C 
HETATM   14  N   UNL     1       2.792  26.699  48.594  1.00  0.00    -0.360 N 
HETATM   15  H   UNL     1       2.312  26.795  49.485  1.00  0.00     0.162 HD
HETATM   16  O   UNL     1       4.866  26.298  47.683  1.00  0.00    -0.271 OA
BRANCH  14  17
HETATM   17  C   UNL     1       2.022  26.386  47.414  1.00  0.00     0.118 C 
HETATM   18  C   UNL     1       0.816  27.298  47.278  1.00  0.00     0.026 C 
ENDBRANCH  14  17
ENDBRANCH  12  13
ENDBRANCH  11  12
ENDBRANCH   7  11
ENDBRANCH   1   5
BRANCH   2  19
HETATM   19  C   UNL     1       7.483  24.666  55.395  1.00  0.00     0.157 A 
HETATM   20  N   UNL     1       7.556  24.898  56.725  1.00  0.00    -0.168 NA
HETATM   21  N   UNL     1       7.940  23.713  57.235  1.00  0.00    -0.277 N 
HETATM   22  H   UNL     1       8.078  23.641  58.236  1.00  0.00     0.189 HD
HETATM   23  C   UNL     1       8.089  22.718  56.308  1.00  0.00     0.063 A 
HETATM   24  C   UNL     1       7.797  23.309  55.086  1.00  0.00     0.029 A 
HETATM   25  C   UNL     1       8.447  21.373  56.438  1.00  0.00     0.032 A 
HETATM   26  C   UNL     1       7.857  22.523  53.919  1.00  0.00     0.023 A 
HETATM   27  C   UNL     1       8.203  21.164  54.015  1.00  0.00    -0.061 A 
HETATM   28  C   UNL     1       8.496  20.608  55.266  1.00  0.00     0.009 A 
HETATM   29  C   UNL     1       8.250  20.328  52.768  1.00  0.00     0.048 C 
ENDBRANCH   2  19
TORSDOF 6
ENDMDL
MODEL 3
REMARK VINA RESULT:      -8.8      1.793      2.765
REMARK  6 active torsions:
REMARK  status: ('A' for Active; 'I' for Inactive)
REMARK    1  A    between atoms: C_2  and  N_3 
REMARK       I    between atoms: N_3  and  C_4 
REMARK    2  A    between atoms: C_4  and  C_5 
REMARK    3  A    between atoms: C_5  and  O_6 
REMARK    4  A    between atoms: O_6  and  C_7 
REMARK    5  A    between atoms: C_9  and  N_10 
REMARK       I    between atoms: N_10  and  C_11 
REMARK    6  A    between atoms: C_11  and  C_12 
ROOT
HETATM    1  N   UNL     1       8.229  28.186  56.334  1.00  0.00    -0.322 N 
HETATM    2  C   UNL     1       7.946  26.860  56.609  1.00  0.00     0.277 C 
HETATM    3  O   UNL     1       8.129  26.286  57.678  1.00  0.00    -0.266 OA
HETATM    4  H   UNL     1       8.043  28.448  55.369  1.00  0.00     0.169 HD
ENDROOT
BRANCH   1   5
HETATM    5  C   UNL     1       8.775  29.152  57.197  1.00  0.00     0.037 A 
HETATM    6  C   UNL     1       8.177  29.537  58.397  1.00  0.00     0.066 A 
HETATM    7  C   UNL     1       8.780  30.486  59.232  1.00  0.00     0.071 A 
HETATM    8  C   UNL     1       9.984  31.074  58.856  1.00  0.00     0.037 A 
HETATM    9  C   UNL     1      10.584  30.705  57.650  1.00  0.00     0.005 A 
HETATM   10  C   UNL     1       9.982  29.751  56.825  1.00  0.00     0.029 A 
BRANCH   7  11
HETATM   11  O   UNL     1       8.073  30.758  60.367  1.00  0.00    -0.342 OA
BRANCH  11  12
HETATM   12  C   UNL     1       8.742  31.484  61.396  1.00  0.00     0.278 C 
BRANCH  12  13
HETATM   13  C   UNL     1       7.732  31.835  62.491  1.00  0.00     0.241 C 
HETATM   14  N   UNL     1       6.433  31.479  62.190  1.00  0.00    -0.360 N 
HETATM   15  H   UNL     1       6.257  31.195  61.230  1.00  0.00     0.162 HD
HETATM   16  O   UNL     1       8.071  32.342  63.556  1.00  0.00    -0.271 OA
BRANCH  14  17
HETATM   17  C   UNL     1       5.313  31.794  63.045  1.00  0.00     0.118 C 
HETATM   18  C   UNL     1       4.632  33.082  62.618  1.00  0.00     0.026 C 
ENDBRANCH  14  17
ENDBRANCH  12  13
ENDBRANCH  11  12
ENDBRANCH   7  11
ENDBRANCH   1   5
BRANCH   2  19
HETATM   19  C   UNL     1       7.403  26.156  55.434  1.00  0.00     0.157 A 
HETATM   20  N   UNL     1       6.561  26.767  54.569  1.00  0.00    -0.168 NA
HETATM   21  N   UNL     1       6.290  25.811  53.661  1.00  0.00    -0.277 N 
HETATM   22  H   UNL     1       5.654  26.033  52.903  1.00  0.00     0.189 HD
HETATM   23  C   UNL     1       6.936  24.625  53.874  1.00  0.00     0.063 A 
HETATM   24  C   UNL     1       7.678  24.815  55.033  1.00  0.00     0.029 A 
HETATM   25  C   UNL     1       6.934  23.424  53.160  1.00  0.00     0.032 A 
HETATM   26  C   UNL     1       8.470  23.755  55.515  1.00  0.00     0.023 A 
HETATM   27  C   UNL     1       8.500  22.537  54.814  1.00  0.00    -0.061 A 
HETATM   28  C   UNL     1       7.733  22.384  53.653  1.00  0.00     0.009 A 
HETATM   29  C   UNL     1       9.360  21.417  55.325  1.00  0.00     0.048 C 
ENDBRANCH   2  19
TORSDOF 6
ENDMDL
MODEL 4
REMARK VINA RESULT:      -8.7      2.272      2.977
REMARK  6 active torsions:
REMARK  status: ('A' for Active; 'I' for Inactive)
REMARK    1  A    between atoms: C_2  and  N_3 
REMARK       I    between atoms: N_3  and  C_4 
REMARK    2  A    between atoms: C_4  and  C_5 
REMARK    3  A    between atoms: C_5  and  O_6 
REMARK    4  A    between atoms: O_6  and  C_7 
REMARK    5  A    between atoms: C_9  and  N_10 
REMARK       I    between atoms: N_10  and  C_11 
REMARK    6  A    between atoms: C_11  and  C_12 
ROOT
HETATM    1  N   UNL     1       6.431  27.647  57.205  1.00  0.00    -0.322 N 
HETATM    2  C   UNL     1       7.398  27.117  56.370  1.00  0.00     0.277 C 
HETATM    3  O   UNL     1       7.852  27.644  55.359  1.00  0.00    -0.266 OA
HETATM    4  H   UNL     1       6.165  27.024  57.963  1.00  0.00     0.169 HD
ENDROOT
BRANCH   1   5
HETATM    5  C   UNL     1       5.769  28.881  57.088  1.00  0.00     0.037 A 
HETATM    6  C   UNL     1       6.272  30.077  57.601  1.00  0.00     0.066 A 
HETATM    7  C   UNL     1       5.581  31.282  57.432  1.00  0.00     0.071 A 
HETATM    8  C   UNL     1       4.362  31.294  56.760  1.00  0.00     0.037 A 
HETATM    9  C   UNL     1       3.843  30.100  56.253  1.00  0.00     0.005 A 
HETATM   10  C   UNL     1       4.542  28.901  56.418  1.00  0.00     0.029 A 
BRANCH   7  11
HETATM   11  O   UNL     1       6.199  32.363  57.992  1.00  0.00    -0.342 OA
BRANCH  11  12
HETATM   12  C   UNL     1       5.910  32.647  59.359  1.00  0.00     0.278 C 
BRANCH  12  13
HETATM   13  C   UNL     1       7.160  32.370  60.196  1.00  0.00     0.241 C 
HETATM   14  N   UNL     1       6.924  31.610  61.323  1.00  0.00    -0.360 N 
HETATM   15  H   UNL     1       5.948  31.468  61.572  1.00  0.00     0.162 HD
HETATM   16  O   UNL     1       8.275  32.756  59.856  1.00  0.00    -0.271 OA
BRANCH  14  17
HETATM   17  C   UNL     1       7.946  31.304  62.295  1.00  0.00     0.118 C 
HETATM   18  C   UNL     1       8.072  32.404  63.334  1.00  0.00     0.026 C 
ENDBRANCH  14  17
ENDBRANCH  12  13
ENDBRANCH  11  12
ENDBRANCH   7  11
ENDBRANCH   1   5
BRANCH   2  19
HETATM   19  C   UNL     1       7.836  25.781  56.811  1.00  0.00     0.157 A 
HETATM   20  N   UNL     1       8.165  25.533  58.099  1.00  0.00    -0.168 NA
HETATM   21  N   UNL     1       8.513  24.232  58.094  1.00  0.00    -0.277 N 
HETATM   22  H   UNL     1       8.818  23.812  58.964  1.00  0.00     0.189 HD
HETATM   23  C   UNL     1       8.397  23.618  56.877  1.00  0.00     0.063 A 
HETATM   24  C   UNL     1       7.954  24.607  56.008  1.00  0.00     0.029 A 
HETATM   25  C   UNL     1       8.636  22.302  56.474  1.00  0.00     0.032 A 
HETATM   26  C   UNL     1       7.729  24.276  54.658  1.00  0.00     0.023 A 
HETATM   27  C   UNL     1       7.949  22.957  54.222  1.00  0.00    -0.061 A 
HETATM   28  C   UNL     1       8.402  21.991  55.128  1.00  0.00     0.009 A 
HETATM   29  C   UNL     1       7.693  22.607  52.784  1.00  0.00     0.048 C 
ENDBRANCH   2  19
TORSDOF 6
ENDMDL
MODEL 5
REMARK VINA RESULT:      -8.5      2.245      3.220
REMARK  6 active torsions:
REMARK  status: ('A' for Active; 'I' for Inactive)
REMARK    1  A    between atoms: C_2  and  N_3 
REMARK       I    between atoms: N_3  and  C_4 
REMARK    2  A    between atoms: C_4  and  C_5 
REMARK    3  A    between atoms: C_5  and  O_6 
REMARK    4  A    between atoms: O_6  and  C_7 
REMARK    5  A    between atoms: C_9  and  N_10 
REMARK       I    between atoms: N_10  and  C_11 
REMARK    6  A    between atoms: C_11  and  C_12 
ROOT
HETATM    1  N   UNL     1       6.040  26.277  55.651  1.00  0.00    -0.322 N 
HETATM    2  C   UNL     1       7.155  25.675  55.094  1.00  0.00     0.277 C 
HETATM    3  O   UNL     1       7.712  26.004  54.051  1.00  0.00    -0.266 OA
HETATM    4  H   UNL     1       5.712  25.817  56.497  1.00  0.00     0.169 HD
ENDROOT
BRANCH   1   5
HETATM    5  C   UNL     1       5.314  27.375  55.160  1.00  0.00     0.037 A 
HETATM    6  C   UNL     1       5.226  28.599  55.824  1.00  0.00     0.066 A 
HETATM    7  C   UNL     1       4.509  29.668  55.275  1.00  0.00     0.071 A 
HETATM    8  C   UNL     1       3.854  29.510  54.057  1.00  0.00     0.037 A 
HETATM    9  C   UNL     1       3.925  28.285  53.390  1.00  0.00     0.005 A 
HETATM   10  C   UNL     1       4.649  27.224  53.940  1.00  0.00     0.029 A 
BRANCH   7  11
HETATM   11  O   UNL     1       4.514  30.796  56.044  1.00  0.00    -0.342 OA
BRANCH  11  12
HETATM   12  C   UNL     1       4.600  30.625  57.457  1.00  0.00     0.278 C 
BRANCH  12  13
HETATM   13  C   UNL     1       5.719  31.518  57.996  1.00  0.00     0.241 C 
HETATM   14  N   UNL     1       6.646  30.851  58.770  1.00  0.00    -0.360 N 
HETATM   15  H   UNL     1       6.401  29.903  59.045  1.00  0.00     0.162 HD
HETATM   16  O   UNL     1       5.798  32.711  57.714  1.00  0.00    -0.271 OA
BRANCH  14  17
HETATM   17  C   UNL     1       7.734  31.518  59.445  1.00  0.00     0.118 C 
HETATM   18  C   UNL     1       7.431  31.724  60.919  1.00  0.00     0.026 C 
ENDBRANCH  14  17
ENDBRANCH  12  13
ENDBRANCH  11  12
ENDBRANCH   7  11
ENDBRANCH   1   5
BRANCH   2  19
HETATM   19  C   UNL     1       7.620  24.527  55.893  1.00  0.00     0.157 A 
HETATM   20  N   UNL     1       7.845  24.635  57.223  1.00  0.00    -0.168 NA
HETATM   21  N   UNL     1       8.259  23.403  57.575  1.00  0.00    -0.277 N 
HETATM   22  H   UNL     1       8.506  23.237  58.544  1.00  0.00     0.189 HD
HETATM   23  C   UNL     1       8.282  22.497  56.552  1.00  0.00     0.063 A 
HETATM   24  C   UNL     1       7.868  23.201  55.429  1.00  0.00     0.029 A 
HETATM   25  C   UNL     1       8.623  21.142  56.518  1.00  0.00     0.032 A 
HETATM   26  C   UNL     1       7.781  22.526  54.196  1.00  0.00     0.023 A 
HETATM   27  C   UNL     1       8.106  21.160  54.129  1.00  0.00    -0.061 A 
HETATM   28  C   UNL     1       8.525  20.488  55.283  1.00  0.00     0.009 A 
HETATM   29  C   UNL     1       7.996  20.443  52.814  1.00  0.00     0.048 C 
ENDBRANCH   2  19
TORSDOF 6
ENDMDL
MODEL 6
REMARK VINA RESULT:      -8.5      2.520      3.877
REMARK  6 active torsions:
REMARK  status: ('A' for Active; 'I' for Inactive)
REMARK    1  A    between atoms: C_2  and  N_3 
REMARK       I    between atoms: N_3  and  C_4 
REMARK    2  A    between atoms: C_4  and  C_5 
REMARK    3  A    between atoms: C_5  and  O_6 
REMARK    4  A    between atoms: O_6  and  C_7 
REMARK    5  A    between atoms: C_9  and  N_10 
REMARK       I    between atoms: N_10  and  C_11 
REMARK    6  A    between atoms: C_11  and  C_12 
ROOT
HETATM    1  N   UNL     1       8.429  27.731  56.553  1.00  0.00    -0.322 N 
HETATM    2  C   UNL     1       7.972  26.529  57.062  1.00  0.00     0.277 C 
HETATM    3  O   UNL     1       7.904  26.221  58.247  1.00  0.00    -0.266 OA
HETATM    4  H   UNL     1       8.444  27.761  55.537  1.00  0.00     0.169 HD
ENDROOT
BRANCH   1   5
HETATM    5  C   UNL     1       8.906  28.846  57.264  1.00  0.00     0.037 A 
HETATM    6  C   UNL     1       8.267  29.374  58.386  1.00  0.00     0.066 A 
HETATM    7  C   UNL     1       8.802  30.471  59.071  1.00  0.00     0.071 A 
HETATM    8  C   UNL     1       9.979  31.062  58.621  1.00  0.00     0.037 A 
HETATM    9  C   UNL     1      10.620  30.549  57.492  1.00  0.00     0.005 A 
HETATM   10  C   UNL     1      10.085  29.448  56.816  1.00  0.00     0.029 A 
BRANCH   7  11
HETATM   11  O   UNL     1       8.061  30.873  60.145  1.00  0.00    -0.342 OA
BRANCH  11  12
HETATM   12  C   UNL     1       8.706  30.887  61.416  1.00  0.00     0.278 C 
BRANCH  12  13
HETATM   13  C   UNL     1       7.763  31.520  62.442  1.00  0.00     0.241 C 
HETATM   14  N   UNL     1       6.438  31.178  62.272  1.00  0.00    -0.360 N 
HETATM   15  H   UNL     1       6.206  30.702  61.404  1.00  0.00     0.162 HD
HETATM   16  O   UNL     1       8.173  32.228  63.358  1.00  0.00    -0.271 OA
BRANCH  14  17
HETATM   17  C   UNL     1       5.373  31.729  63.075  1.00  0.00     0.118 C 
HETATM   18  C   UNL     1       4.800  32.989  62.450  1.00  0.00     0.026 C 
ENDBRANCH  14  17
ENDBRANCH  12  13
ENDBRANCH  11  12
ENDBRANCH   7  11
ENDBRANCH   1   5
BRANCH   2  19
HETATM   19  C   UNL     1       7.579  25.592  55.994  1.00  0.00     0.157 A 
HETATM   20  N   UNL     1       8.128  24.359  55.895  1.00  0.00    -0.168 NA
HETATM   21  N   UNL     1       7.528  23.830  54.812  1.00  0.00    -0.277 N 
HETATM   22  H   UNL     1       7.793  22.896  54.524  1.00  0.00     0.189 HD
HETATM   23  C   UNL     1       6.599  24.642  54.224  1.00  0.00     0.063 A 
HETATM   24  C   UNL     1       6.605  25.811  54.974  1.00  0.00     0.029 A 
HETATM   25  C   UNL     1       5.766  24.452  53.117  1.00  0.00     0.032 A 
HETATM   26  C   UNL     1       5.732  26.856  54.614  1.00  0.00     0.023 A 
HETATM   27  C   UNL     1       4.873  26.693  53.513  1.00  0.00    -0.061 A 
HETATM   28  C   UNL     1       4.902  25.502  52.779  1.00  0.00     0.009 A 
HETATM   29  C   UNL     1       3.934  27.805  53.144  1.00  0.00     0.048 C 
ENDBRANCH   2  19
TORSDOF 6
ENDMDL
MODEL 7
REMARK VINA RESULT:      -8.5      5.639      8.812
REMARK  6 active torsions:
REMARK  status: ('A' for Active; 'I' for Inactive)
REMARK    1  A    between atoms: C_2  and  N_3 
REMARK       I    between atoms: N_3  and  C_4 
REMARK    2  A    between atoms: C_4  and  C_5 
REMARK    3  A    between atoms: C_5  and  O_6 
REMARK    4  A    between atoms: O_6  and  C_7 
REMARK    5  A    between atoms: C_9  and  N_10 
REMARK       I    between atoms: N_10  and  C_11 
REMARK    6  A    between atoms: C_11  and  C_12 
ROOT
HETATM    1  N   UNL     1       6.074  26.461  52.830  1.00  0.00    -0.322 N 
HETATM    2  C   UNL     1       5.491  25.264  53.203  1.00  0.00     0.277 C 
HETATM    3  O   UNL     1       4.510  24.741  52.683  1.00  0.00    -0.266 OA
HETATM    4  H   UNL     1       6.852  26.735  53.425  1.00  0.00     0.169 HD
ENDROOT
BRANCH   1   5
HETATM    5  C   UNL     1       5.684  27.328  51.795  1.00  0.00     0.037 A 
HETATM    6  C   UNL     1       5.286  26.889  50.532  1.00  0.00     0.066 A 
HETATM    7  C   UNL     1       4.882  27.796  49.546  1.00  0.00     0.071 A 
HETATM    8  C   UNL     1       4.895  29.162  49.815  1.00  0.00     0.037 A 
HETATM    9  C   UNL     1       5.305  29.613  51.071  1.00  0.00     0.005 A 
HETATM   10  C   UNL     1       5.699  28.702  52.054  1.00  0.00     0.029 A 
BRANCH   7  11
HETATM   11  O   UNL     1       4.524  27.214  48.365  1.00  0.00    -0.342 OA
BRANCH  11  12
HETATM   12  C   UNL     1       3.769  26.007  48.433  1.00  0.00     0.278 C 
BRANCH  12  13
HETATM   13  C   UNL     1       2.753  25.994  47.288  1.00  0.00     0.241 C 
HETATM   14  N   UNL     1       1.900  27.077  47.284  1.00  0.00    -0.360 N 
HETATM   15  H   UNL     1       1.912  27.661  48.116  1.00  0.00     0.162 HD
HETATM   16  O   UNL     1       2.745  25.115  46.431  1.00  0.00    -0.271 OA
BRANCH  14  17
HETATM   17  C   UNL     1       0.813  27.220  46.344  1.00  0.00     0.118 C 
HETATM   18  C   UNL     1      -0.029  28.446  46.649  1.00  0.00     0.026 C 
ENDBRANCH  14  17
ENDBRANCH  12  13
ENDBRANCH  11  12
ENDBRANCH   7  11
ENDBRANCH   1   5
BRANCH   2  19
HETATM   19  C   UNL     1       6.173  24.654  54.359  1.00  0.00     0.157 A 
HETATM   20  N   UNL     1       6.072  25.181  55.600  1.00  0.00    -0.168 NA
HETATM   21  N   UNL     1       6.828  24.363  56.356  1.00  0.00    -0.277 N 
HETATM   22  H   UNL     1       6.919  24.567  57.344  1.00  0.00     0.189 HD
HETATM   23  C   UNL     1       7.386  23.316  55.676  1.00  0.00     0.063 A 
HETATM   24  C   UNL     1       6.978  23.476  54.358  1.00  0.00     0.029 A 
HETATM   25  C   UNL     1       8.199  22.261  56.098  1.00  0.00     0.032 A 
HETATM   26  C   UNL     1       7.393  22.533  53.398  1.00  0.00     0.023 A 
HETATM   27  C   UNL     1       8.202  21.452  53.792  1.00  0.00    -0.061 A 
HETATM   28  C   UNL     1       8.597  21.331  55.129  1.00  0.00     0.009 A 
HETATM   29  C   UNL     1       8.629  20.443  52.766  1.00  0.00     0.048 C 
ENDBRANCH   2  19
TORSDOF 6
ENDMDL
MODEL 8
REMARK VINA RESULT:      -8.2      4.986      7.178
REMARK  6 active torsions:
REMARK  status: ('A' for Active; 'I' for Inactive)
REMARK    1  A    between atoms: C_2  and  N_3 
REMARK       I    between atoms: N_3  and  C_4 
REMARK    2  A    between atoms: C_4  and  C_5 
REMARK    3  A    between atoms: C_5  and  O_6 
REMARK    4  A    between atoms: O_6  and  C_7 
REMARK    5  A    between atoms: C_9  and  N_10 
REMARK       I    between atoms: N_10  and  C_11 
REMARK    6  A    between atoms: C_11  and  C_12 
ROOT
HETATM    1  N   UNL     1       5.756  25.689  53.226  1.00  0.00    -0.322 N 
HETATM    2  C   UNL     1       6.958  25.938  53.865  1.00  0.00     0.277 C 
HETATM    3  O   UNL     1       7.752  26.833  53.594  1.00  0.00    -0.266 OA
HETATM    4  H   UNL     1       5.273  24.867  53.580  1.00  0.00     0.169 HD
ENDROOT
BRANCH   1   5
HETATM    5  C   UNL     1       5.188  26.391  52.150  1.00  0.00     0.037 A 
HETATM    6  C   UNL     1       4.623  27.661  52.271  1.00  0.00     0.066 A 
HETATM    7  C   UNL     1       4.093  28.324  51.158  1.00  0.00     0.071 A 
HETATM    8  C   UNL     1       4.109  27.707  49.911  1.00  0.00     0.037 A 
HETATM    9  C   UNL     1       4.660  26.431  49.781  1.00  0.00     0.005 A 
HETATM   10  C   UNL     1       5.194  25.776  50.894  1.00  0.00     0.029 A 
BRANCH   7  11
HETATM   11  O   UNL     1       3.575  29.556  51.438  1.00  0.00    -0.342 OA
BRANCH  11  12
HETATM   12  C   UNL     1       4.499  30.614  51.684  1.00  0.00     0.278 C 
BRANCH  12  13
HETATM   13  C   UNL     1       5.103  31.063  50.352  1.00  0.00     0.241 C 
HETATM   14  N   UNL     1       4.170  31.473  49.423  1.00  0.00    -0.360 N 
HETATM   15  H   UNL     1       3.198  31.273  49.644  1.00  0.00     0.162 HD
HETATM   16  O   UNL     1       6.315  31.095  50.161  1.00  0.00    -0.271 OA
BRANCH  14  17
HETATM   17  C   UNL     1       4.517  31.856  48.075  1.00  0.00     0.118 C 
HETATM   18  C   UNL     1       4.375  30.691  47.112  1.00  0.00     0.026 C 
ENDBRANCH  14  17
ENDBRANCH  12  13
ENDBRANCH  11  12
ENDBRANCH   7  11
ENDBRANCH   1   5
BRANCH   2  19
HETATM   19  C   UNL     1       7.225  24.962  54.938  1.00  0.00     0.157 A 
HETATM   20  N   UNL     1       7.157  25.310  56.243  1.00  0.00    -0.168 NA
HETATM   21  N   UNL     1       7.469  24.171  56.891  1.00  0.00    -0.277 N 
HETATM   22  H   UNL     1       7.498  24.187  57.904  1.00  0.00     0.189 HD
HETATM   23  C   UNL     1       7.705  23.100  56.076  1.00  0.00     0.063 A 
HETATM   24  C   UNL     1       7.553  23.583  54.782  1.00  0.00     0.029 A 
HETATM   25  C   UNL     1       8.030  21.770  56.359  1.00  0.00     0.032 A 
HETATM   26  C   UNL     1       7.729  22.699  53.701  1.00  0.00     0.023 A 
HETATM   27  C   UNL     1       8.045  21.351  53.951  1.00  0.00    -0.061 A 
HETATM   28  C   UNL     1       8.195  20.906  55.269  1.00  0.00     0.009 A 
HETATM   29  C   UNL     1       8.217  20.410  52.793  1.00  0.00     0.048 C 
ENDBRANCH   2  19
TORSDOF 6
ENDMDL
MODEL 9
REMARK VINA RESULT:      -8.1      4.186      5.585
REMARK  6 active torsions:
REMARK  status: ('A' for Active; 'I' for Inactive)
REMARK    1  A    between atoms: C_2  and  N_3 
REMARK       I    between atoms: N_3  and  C_4 
REMARK    2  A    between atoms: C_4  and  C_5 
REMARK    3  A    between atoms: C_5  and  O_6 
REMARK    4  A    between atoms: O_6  and  C_7 
REMARK    5  A    between atoms: C_9  and  N_10 
REMARK       I    between atoms: N_10  and  C_11 
REMARK    6  A    between atoms: C_11  and  C_12 
ROOT
HETATM    1  N   UNL     1       5.809  25.732  53.392  1.00  0.00    -0.322 N 
HETATM    2  C   UNL     1       7.074  25.875  53.934  1.00  0.00     0.277 C 
HETATM    3  O   UNL     1       7.920  26.696  53.596  1.00  0.00    -0.266 OA
HETATM    4  H   UNL     1       5.284  24.957  53.789  1.00  0.00     0.169 HD
ENDROOT
BRANCH   1   5
HETATM    5  C   UNL     1       5.222  26.480  52.357  1.00  0.00     0.037 A 
HETATM    6  C   UNL     1       4.549  27.684  52.564  1.00  0.00     0.066 A 
HETATM    7  C   UNL     1       4.006  28.400  51.491  1.00  0.00     0.071 A 
HETATM    8  C   UNL     1       4.118  27.901  50.197  1.00  0.00     0.037 A 
HETATM    9  C   UNL     1       4.778  26.690  49.981  1.00  0.00     0.005 A 
HETATM   10  C   UNL     1       5.325  25.982  51.055  1.00  0.00     0.029 A 
BRANCH   7  11
HETATM   11  O   UNL     1       3.377  29.556  51.854  1.00  0.00    -0.342 OA
BRANCH  11  12
HETATM   12  C   UNL     1       4.140  30.760  51.803  1.00  0.00     0.278 C 
BRANCH  12  13
HETATM   13  C   UNL     1       3.944  31.526  53.113  1.00  0.00     0.241 C 
HETATM   14  N   UNL     1       4.609  30.975  54.189  1.00  0.00    -0.360 N 
HETATM   15  H   UNL     1       5.001  30.048  54.047  1.00  0.00     0.162 HD
HETATM   16  O   UNL     1       3.289  32.563  53.173  1.00  0.00    -0.271 OA
BRANCH  14  17
HETATM   17  C   UNL     1       4.492  31.489  55.533  1.00  0.00     0.118 C 
HETATM   18  C   UNL     1       3.394  30.779  56.306  1.00  0.00     0.026 C 
ENDBRANCH  14  17
ENDBRANCH  12  13
ENDBRANCH  11  12
ENDBRANCH   7  11
ENDBRANCH   1   5
BRANCH   2  19
HETATM   19  C   UNL     1       7.337  24.881  54.992  1.00  0.00     0.157 A 
HETATM   20  N   UNL     1       7.253  25.204  56.303  1.00  0.00    -0.168 NA
HETATM   21  N   UNL     1       7.567  24.056  56.933  1.00  0.00    -0.277 N 
HETATM   22  H   UNL     1       7.586  24.053  57.946  1.00  0.00     0.189 HD
HETATM   23  C   UNL     1       7.818  23.001  56.099  1.00  0.00     0.063 A 
HETATM   24  C   UNL     1       7.676  23.507  54.814  1.00  0.00     0.029 A 
HETATM   25  C   UNL     1       8.149  21.668  56.361  1.00  0.00     0.032 A 
HETATM   26  C   UNL     1       7.868  22.644  53.718  1.00  0.00     0.023 A 
HETATM   27  C   UNL     1       8.191  21.295  53.946  1.00  0.00    -0.061 A 
HETATM   28  C   UNL     1       8.331  20.825  55.257  1.00  0.00     0.009 A 
HETATM   29  C   UNL     1       8.380  20.377  52.773  1.00  0.00     0.048 C 
ENDBRANCH   2  19
TORSDOF 6
ENDMDL
MODEL 10
REMARK VINA RESULT:      -8.0      4.407      6.740
REMARK  6 active torsions:
REMARK  status: ('A' for Active; 'I' for Inactive)
REMARK    1  A    between atoms: C_2  and  N_3 
REMARK       I    between atoms: N_3  and  C_4 
REMARK    2  A    between atoms: C_4  and  C_5 
REMARK    3  A    between atoms: C_5  and  O_6 
REMARK    4  A    between atoms: O_6  and  C_7 
REMARK    5  A    between atoms: C_9  and  N_10 
REMARK       I    between atoms: N_10  and  C_11 
REMARK    6  A    between atoms: C_11  and  C_12 
ROOT
HETATM    1  N   UNL     1       5.890  26.230  55.104  1.00  0.00    -0.322 N 
HETATM    2  C   UNL     1       7.117  25.708  54.736  1.00  0.00     0.277 C 
HETATM    3  O   UNL     1       7.799  26.063  53.780  1.00  0.00    -0.266 OA
HETATM    4  H   UNL     1       5.473  25.759  55.903  1.00  0.00     0.169 HD
ENDROOT
BRANCH   1   5
HETATM    5  C   UNL     1       5.167  27.262  54.482  1.00  0.00     0.037 A 
HETATM    6  C   UNL     1       4.895  27.295  53.114  1.00  0.00     0.066 A 
HETATM    7  C   UNL     1       4.147  28.336  52.552  1.00  0.00     0.071 A 
HETATM    8  C   UNL     1       3.679  29.368  53.360  1.00  0.00     0.037 A 
HETATM    9  C   UNL     1       3.957  29.351  54.728  1.00  0.00     0.005 A 
HETATM   10  C   UNL     1       4.698  28.306  55.285  1.00  0.00     0.029 A 
BRANCH   7  11
HETATM   11  O   UNL     1       3.967  28.228  51.203  1.00  0.00    -0.342 OA
BRANCH  11  12
HETATM   12  C   UNL     1       5.137  28.200  50.387  1.00  0.00     0.278 C 
BRANCH  12  13
HETATM   13  C   UNL     1       5.046  29.325  49.355  1.00  0.00     0.241 C 
HETATM   14  N   UNL     1       5.130  30.591  49.896  1.00  0.00    -0.360 N 
HETATM   15  H   UNL     1       5.064  30.651  50.908  1.00  0.00     0.162 HD
HETATM   16  O   UNL     1       4.957  29.102  48.150  1.00  0.00    -0.271 OA
BRANCH  14  17
HETATM   17  C   UNL     1       4.983  31.794  49.111  1.00  0.00     0.118 C 
HETATM   18  C   UNL     1       6.313  32.501  48.922  1.00  0.00     0.026 C 
ENDBRANCH  14  17
ENDBRANCH  12  13
ENDBRANCH  11  12
ENDBRANCH   7  11
ENDBRANCH   1   5
BRANCH   2  19
HETATM   19  C   UNL     1       7.540  24.612  55.626  1.00  0.00     0.157 A 
HETATM   20  N   UNL     1       7.655  24.788  56.962  1.00  0.00    -0.168 NA
HETATM   21  N   UNL     1       8.064  23.585  57.407  1.00  0.00    -0.277 N 
HETATM   22  H   UNL     1       8.236  23.472  58.399  1.00  0.00     0.189 HD
HETATM   23  C   UNL     1       8.190  22.632  56.434  1.00  0.00     0.063 A 
HETATM   24  C   UNL     1       7.853  23.272  55.249  1.00  0.00     0.029 A 
HETATM   25  C   UNL     1       8.561  21.286  56.495  1.00  0.00     0.032 A 
HETATM   26  C   UNL     1       7.880  22.537  54.048  1.00  0.00     0.023 A 
HETATM   27  C   UNL     1       8.238  21.177  54.074  1.00  0.00    -0.061 A 
HETATM   28  C   UNL     1       8.577  20.571  55.290  1.00  0.00     0.009 A 
HETATM   29  C   UNL     1       8.251  20.396  52.792  1.00  0.00     0.048 C 
ENDBRANCH   2  19
TORSDOF 6
ENDMDL
