MODEL 1
REMARK VINA RESULT:     -10.0      0.000      0.000
REMARK  6 active torsions:
REMARK  status: ('A' for Active; 'I' for Inactive)
REMARK    1  A    between atoms: C_4  and  N_5 
REMARK       I    between atoms: N_5  and  C_6 
REMARK    2  A    between atoms: C_6  and  C_7 
REMARK    3  A    between atoms: C_9  and  N_10 
REMARK       I    between atoms: N_10  and  C_11 
REMARK    4  A    between atoms: C_11  and  C_12 
REMARK    5  A    between atoms: C_12  and  O_13 
REMARK    6  A    between atoms: O_13  and  C_14 
ROOT
HETATM    1  C   UNL     1       8.895  30.554  58.565  1.00  0.00     0.034 A 
HETATM    2  C   UNL     1       7.951  29.597  58.174  1.00  0.00     0.046 A 
HETATM    3  C   UNL     1       8.283  28.560  57.303  1.00  0.00     0.035 A 
HETATM    4  C   UNL     1       9.557  28.549  56.728  1.00  0.00     0.029 A 
HETATM    5  C   UNL     1      10.493  29.536  57.067  1.00  0.00     0.003 A 
HETATM    6  C   UNL     1      10.167  30.533  57.992  1.00  0.00     0.017 A 
ENDROOT
BRANCH   3   7
HETATM    7  N   UNL     1       7.369  27.534  56.980  1.00  0.00    -0.325 N 
HETATM    8  C   UNL     1       7.396  26.244  57.491  1.00  0.00     0.246 C 
HETATM    9  O   UNL     1       8.263  25.779  58.230  1.00  0.00    -0.271 OA
HETATM   10  H   UNL     1       6.714  27.696  56.221  1.00  0.00     0.169 HD
BRANCH   8  11
HETATM   11  C   UNL     1       6.191  25.392  57.106  1.00  0.00     0.278 C 
BRANCH  11  12
HETATM   12  O   UNL     1       5.925  25.385  55.709  1.00  0.00    -0.342 OA
BRANCH  12  13
HETATM   13  C   UNL     1       6.653  24.472  54.986  1.00  0.00     0.069 A 
HETATM   14  C   UNL     1       6.864  24.808  53.647  1.00  0.00     0.037 A 
HETATM   15  C   UNL     1       7.601  23.964  52.813  1.00  0.00     0.003 A 
HETATM   16  C   UNL     1       8.127  22.775  53.312  1.00  0.00     0.000 A 
HETATM   17  C   UNL     1       7.912  22.427  54.643  1.00  0.00     0.003 A 
HETATM   18  C   UNL     1       7.174  23.270  55.478  1.00  0.00     0.037 A 
ENDBRANCH  12  13
ENDBRANCH  11  12
ENDBRANCH   8  11
ENDBRANCH   3   7
BRANCH   1  19
HETATM   19  C   UNL     1       8.533  31.602  59.572  1.00  0.00     0.257 C 
HETATM   20  N   UNL     1       7.541  31.205  60.447  1.00  0.00    -0.307 N 
HETATM   21  H   UNL     1       7.257  30.237  60.431  1.00  0.00     0.170 HD
HETATM   22  O   UNL     1       9.133  32.668  59.544  1.00  0.00    -0.267 OA
BRANCH  20  23
HETATM   23  C   UNL     1       6.828  32.019  61.333  1.00  0.00     0.130 A 
HETATM   24  C   UNL     1       7.476  32.351  62.524  1.00  0.00     0.057 A 
HETATM   25  C   UNL     1       6.802  33.095  63.496  1.00  0.00    -0.057 A 
HETATM   26  C   UNL     1       7.475  33.459  64.784  1.00  0.00     0.048 C 
HETATM   27  C   UNL     1       5.508  33.523  63.216  1.00  0.00     0.026 A 
HETATM   28  C   UNL     1       4.943  33.158  62.004  1.00  0.00     0.119 A 
HETATM   29  N   UNL     1       5.572  32.411  61.071  1.00  0.00    -0.243 NA
ENDBRANCH  20  23
ENDBRANCH   1  19
TORSDOF 6
ENDMDL
MODEL 2
REMARK VINA RESULT:      -9.7      2.125      9.829
REMARK  6 active torsions:
REMARK  status: ('A' for Active; 'I' for Inactive)
REMARK    1  A    between atoms: C_4  and  N_5 
REMARK       I    between atoms: N_5  and  C_6 
REMARK    2  A    between atoms: C_6  and  C_7 
REMARK    3  A    between atoms: C_9  and  N_10 
REMARK       I    between atoms: N_10  and  C_11 
REMARK    4  A    between atoms: C_11  and  C_12 
REMARK    5  A    between atoms: C_12  and  O_13 
REMARK    6  A    between atoms: O_13  and  C_14 
ROOT
HETATM    1  C   UNL     1       7.070  26.582  56.234  1.00  0.00     0.034 A 
HETATM    2  C   UNL     1       7.892  27.363  57.056  1.00  0.00     0.046 A 
HETATM    3  C   UNL     1       7.947  28.751  56.924  1.00  0.00     0.035 A 
HETATM    4  C   UNL     1       7.248  29.352  55.873  1.00  0.00     0.029 A 
HETATM    5  C   UNL     1       6.468  28.573  55.007  1.00  0.00     0.003 A 
HETATM    6  C   UNL     1       6.370  27.190  55.192  1.00  0.00     0.017 A 
ENDROOT
BRANCH   3   7
HETATM    7  N   UNL     1       8.693  29.557  57.810  1.00  0.00    -0.325 N 
HETATM    8  C   UNL     1       9.855  30.243  57.487  1.00  0.00     0.246 C 
HETATM    9  O   UNL     1      10.451  30.184  56.412  1.00  0.00    -0.271 OA
HETATM   10  H   UNL     1       8.448  29.541  58.795  1.00  0.00     0.169 HD
BRANCH   8  11
HETATM   11  C   UNL     1      10.360  31.173  58.585  1.00  0.00     0.278 C 
BRANCH  11  12
HETATM   12  O   UNL     1       9.506  32.285  58.820  1.00  0.00    -0.342 OA
BRANCH  12  13
HETATM   13  C   UNL     1       8.748  32.202  59.963  1.00  0.00     0.069 A 
HETATM   14  C   UNL     1       9.468  31.964  61.135  1.00  0.00     0.037 A 
HETATM   15  C   UNL     1       8.809  31.871  62.364  1.00  0.00     0.003 A 
HETATM   16  C   UNL     1       7.425  32.010  62.426  1.00  0.00     0.000 A 
HETATM   17  C   UNL     1       6.698  32.237  61.259  1.00  0.00     0.003 A 
HETATM   18  C   UNL     1       7.356  32.329  60.030  1.00  0.00     0.037 A 
ENDBRANCH  12  13
ENDBRANCH  11  12
ENDBRANCH   8  11
ENDBRANCH   3   7
BRANCH   1  19
HETATM   19  C   UNL     1       6.965  25.105  56.461  1.00  0.00     0.257 C 
HETATM   20  N   UNL     1       8.084  24.405  56.058  1.00  0.00    -0.307 N 
HETATM   21  H   UNL     1       8.901  24.934  55.791  1.00  0.00     0.170 HD
HETATM   22  O   UNL     1       5.945  24.667  56.977  1.00  0.00    -0.267 OA
BRANCH  20  23
HETATM   23  C   UNL     1       8.202  23.019  55.918  1.00  0.00     0.130 A 
HETATM   24  C   UNL     1       8.046  22.513  54.626  1.00  0.00     0.057 A 
HETATM   25  C   UNL     1       8.072  21.133  54.414  1.00  0.00    -0.057 A 
HETATM   26  C   UNL     1       7.901  20.566  53.037  1.00  0.00     0.048 C 
HETATM   27  C   UNL     1       8.301  20.304  55.508  1.00  0.00     0.026 A 
HETATM   28  C   UNL     1       8.457  20.889  56.755  1.00  0.00     0.119 A 
HETATM   29  N   UNL     1       8.401  22.220  56.977  1.00  0.00    -0.243 NA
ENDBRANCH  20  23
ENDBRANCH   1  19
TORSDOF 6
ENDMDL
MODEL 3
REMARK VINA RESULT:      -9.3      1.313      2.061
REMARK  6 active torsions:
REMARK  status: ('A' for Active; 'I' for Inactive)
REMARK    1  A    between atoms: C_4  and  N_5 
REMARK       I    between atoms: N_5  and  C_6 
REMARK    2  A    between atoms: C_6  and  C_7 
REMARK    3  A    between atoms: C_9  and  N_10 
REMARK       I    between atoms: N_10  and  C_11 
REMARK    4  A    between atoms: C_11  and  C_12 
REMARK    5  A    between atoms: C_12  and  O_13 
REMARK    6  A    between atoms: O_13  and  C_14 
ROOT
HETATM    1  C   UNL     1       9.087  30.869  58.774  1.00  0.00     0.034 A 
HETATM    2  C   UNL     1       8.365  29.737  58.376  1.00  0.00     0.046 A 
HETATM    3  C   UNL     1       8.875  28.840  57.439  1.00  0.00     0.035 A 
HETATM    4  C   UNL     1      10.084  29.146  56.807  1.00  0.00     0.029 A 
HETATM    5  C   UNL     1      10.788  30.307  57.155  1.00  0.00     0.003 A 
HETATM    6  C   UNL     1      10.296  31.164  58.144  1.00  0.00     0.017 A 
ENDROOT
BRANCH   3   7
HETATM    7  N   UNL     1       8.203  27.645  57.105  1.00  0.00    -0.325 N 
HETATM    8  C   UNL     1       7.514  27.414  55.922  1.00  0.00     0.246 C 
HETATM    9  O   UNL     1       7.317  28.239  55.030  1.00  0.00    -0.271 OA
HETATM   10  H   UNL     1       8.094  26.938  57.825  1.00  0.00     0.169 HD
BRANCH   8  11
HETATM   11  C   UNL     1       7.029  25.979  55.749  1.00  0.00     0.278 C 
BRANCH  11  12
HETATM   12  O   UNL     1       8.035  25.007  56.000  1.00  0.00    -0.342 OA
BRANCH  12  13
HETATM   13  C   UNL     1       8.131  24.015  55.055  1.00  0.00     0.069 A 
HETATM   14  C   UNL     1       8.955  22.942  55.403  1.00  0.00     0.037 A 
HETATM   15  C   UNL     1       9.122  21.865  54.529  1.00  0.00     0.003 A 
HETATM   16  C   UNL     1       8.470  21.858  53.298  1.00  0.00     0.000 A 
HETATM   17  C   UNL     1       7.655  22.929  52.939  1.00  0.00     0.003 A 
HETATM   18  C   UNL     1       7.488  24.006  53.813  1.00  0.00     0.037 A 
ENDBRANCH  12  13
ENDBRANCH  11  12
ENDBRANCH   8  11
ENDBRANCH   3   7
BRANCH   1  19
HETATM   19  C   UNL     1       8.552  31.764  59.849  1.00  0.00     0.257 C 
HETATM   20  N   UNL     1       7.387  31.298  60.425  1.00  0.00    -0.307 N 
HETATM   21  H   UNL     1       7.084  30.365  60.188  1.00  0.00     0.170 HD
HETATM   22  O   UNL     1       9.176  32.780  60.125  1.00  0.00    -0.267 OA
BRANCH  20  23
HETATM   23  C   UNL     1       6.528  32.004  61.272  1.00  0.00     0.130 A 
HETATM   24  C   UNL     1       5.717  32.966  60.667  1.00  0.00     0.057 A 
HETATM   25  C   UNL     1       4.887  33.768  61.454  1.00  0.00    -0.057 A 
HETATM   26  C   UNL     1       4.012  34.811  60.828  1.00  0.00     0.048 C 
HETATM   27  C   UNL     1       4.867  33.544  62.828  1.00  0.00     0.026 A 
HETATM   28  C   UNL     1       5.696  32.561  63.346  1.00  0.00     0.119 A 
HETATM   29  N   UNL     1       6.526  31.802  62.598  1.00  0.00    -0.243 NA
ENDBRANCH  20  23
ENDBRANCH   1  19
TORSDOF 6
ENDMDL
MODEL 4
REMARK VINA RESULT:      -9.1      2.185      9.777
REMARK  6 active torsions:
REMARK  status: ('A' for Active; 'I' for Inactive)
REMARK    1  A    between atoms: C_4  and  N_5 
REMARK       I    between atoms: N_5  and  C_6 
REMARK    2  A    between atoms: C_6  and  C_7 
REMARK    3  A    between atoms: C_9  and  N_10 
REMARK       I    between atoms: N_10  and  C_11 
REMARK    4  A    between atoms: C_11  and  C_12 
REMARK    5  A    between atoms: C_12  and  O_13 
REMARK    6  A    between atoms: O_13  and  C_14 
ROOT
HETATM    1  C   UNL     1       6.550  26.939  55.883  1.00  0.00     0.034 A 
HETATM    2  C   UNL     1       7.491  27.606  56.677  1.00  0.00     0.046 A 
HETATM    3  C   UNL     1       7.467  28.993  56.825  1.00  0.00     0.035 A 
HETATM    4  C   UNL     1       6.549  29.731  56.072  1.00  0.00     0.029 A 
HETATM    5  C   UNL     1       5.640  29.078  55.229  1.00  0.00     0.003 A 
HETATM    6  C   UNL     1       5.633  27.682  55.140  1.00  0.00     0.017 A 
ENDROOT
BRANCH   3   7
HETATM    7  N   UNL     1       8.347  29.666  57.699  1.00  0.00    -0.325 N 
HETATM    8  C   UNL     1       9.602  30.153  57.360  1.00  0.00     0.246 C 
HETATM    9  O   UNL     1      10.166  29.997  56.277  1.00  0.00    -0.271 OA
HETATM   10  H   UNL     1       8.115  29.691  58.688  1.00  0.00     0.169 HD
BRANCH   8  11
HETATM   11  C   UNL     1      10.265  30.989  58.449  1.00  0.00     0.278 C 
BRANCH  11  12
HETATM   12  O   UNL     1       9.537  32.163  58.784  1.00  0.00    -0.342 OA
BRANCH  12  13
HETATM   13  C   UNL     1       8.916  32.128  60.009  1.00  0.00     0.069 A 
HETATM   14  C   UNL     1       7.535  32.336  59.980  1.00  0.00     0.037 A 
HETATM   15  C   UNL     1       6.790  32.311  61.162  1.00  0.00     0.003 A 
HETATM   16  C   UNL     1       7.424  32.085  62.381  1.00  0.00     0.000 A 
HETATM   17  C   UNL     1       8.802  31.889  62.420  1.00  0.00     0.003 A 
HETATM   18  C   UNL     1       9.548  31.914  61.239  1.00  0.00     0.037 A 
ENDBRANCH  12  13
ENDBRANCH  11  12
ENDBRANCH   8  11
ENDBRANCH   3   7
BRANCH   1  19
HETATM   19  C   UNL     1       6.547  25.443  55.818  1.00  0.00     0.257 C 
HETATM   20  N   UNL     1       7.535  24.925  55.004  1.00  0.00    -0.307 N 
HETATM   21  H   UNL     1       8.236  25.559  54.652  1.00  0.00     0.170 HD
HETATM   22  O   UNL     1       5.714  24.833  56.476  1.00  0.00    -0.267 OA
BRANCH  20  23
HETATM   23  C   UNL     1       7.646  23.606  54.554  1.00  0.00     0.130 A 
HETATM   24  C   UNL     1       7.759  22.624  55.541  1.00  0.00     0.057 A 
HETATM   25  C   UNL     1       7.953  21.290  55.173  1.00  0.00    -0.057 A 
HETATM   26  C   UNL     1       8.081  20.220  56.214  1.00  0.00     0.048 C 
HETATM   27  C   UNL     1       7.981  20.980  53.816  1.00  0.00     0.026 A 
HETATM   28  C   UNL     1       7.851  22.014  52.903  1.00  0.00     0.119 A 
HETATM   29  N   UNL     1       7.696  23.311  53.247  1.00  0.00    -0.243 NA
ENDBRANCH  20  23
ENDBRANCH   1  19
TORSDOF 6
ENDMDL
MODEL 5
REMARK VINA RESULT:      -8.9      2.374      3.249
REMARK  6 active torsions:
REMARK  status: ('A' for Active; 'I' for Inactive)
REMARK    1  A    between atoms: C_4  and  N_5 
REMARK       I    between atoms: N_5  and  C_6 
REMARK    2  A    between atoms: C_6  and  C_7 
REMARK    3  A    between atoms: C_9  and  N_10 
REMARK       I    between atoms: N_10  and  C_11 
REMARK    4  A    between atoms: C_11  and  C_12 
REMARK    5  A    between atoms: C_12  and  O_13 
REMARK    6  A    between atoms: O_13  and  C_14 
ROOT
HETATM    1  C   UNL     1       5.459  30.609  57.048  1.00  0.00     0.034 A 
HETATM    2  C   UNL     1       5.484  29.210  57.104  1.00  0.00     0.046 A 
HETATM    3  C   UNL     1       4.854  28.431  56.134  1.00  0.00     0.035 A 
HETATM    4  C   UNL     1       4.091  29.070  55.153  1.00  0.00     0.029 A 
HETATM    5  C   UNL     1       4.010  30.469  55.121  1.00  0.00     0.003 A 
HETATM    6  C   UNL     1       4.701  31.240  56.062  1.00  0.00     0.017 A 
ENDROOT
BRANCH   3   7
HETATM    7  N   UNL     1       4.956  27.024  56.124  1.00  0.00    -0.325 N 
HETATM    8  C   UNL     1       5.957  26.295  55.497  1.00  0.00     0.246 C 
HETATM    9  O   UNL     1       6.851  26.759  54.790  1.00  0.00    -0.271 OA
HETATM   10  H   UNL     1       4.177  26.483  56.488  1.00  0.00     0.169 HD
BRANCH   8  11
HETATM   11  C   UNL     1       5.921  24.799  55.790  1.00  0.00     0.278 C 
BRANCH  11  12
HETATM   12  O   UNL     1       7.210  24.228  55.977  1.00  0.00    -0.342 OA
BRANCH  12  13
HETATM   13  C   UNL     1       7.469  23.121  55.206  1.00  0.00     0.069 A 
HETATM   14  C   UNL     1       7.529  23.357  53.831  1.00  0.00     0.037 A 
HETATM   15  C   UNL     1       7.799  22.311  52.944  1.00  0.00     0.003 A 
HETATM   16  C   UNL     1       8.006  21.021  53.428  1.00  0.00     0.000 A 
HETATM   17  C   UNL     1       7.937  20.776  54.797  1.00  0.00     0.003 A 
HETATM   18  C   UNL     1       7.666  21.821  55.684  1.00  0.00     0.037 A 
ENDBRANCH  12  13
ENDBRANCH  11  12
ENDBRANCH   8  11
ENDBRANCH   3   7
BRANCH   1  19
HETATM   19  C   UNL     1       6.222  31.416  58.054  1.00  0.00     0.257 C 
HETATM   20  N   UNL     1       6.995  30.650  58.903  1.00  0.00    -0.307 N 
HETATM   21  H   UNL     1       7.093  29.668  58.695  1.00  0.00     0.170 HD
HETATM   22  O   UNL     1       6.111  32.635  58.026  1.00  0.00    -0.267 OA
BRANCH  20  23
HETATM   23  C   UNL     1       7.625  31.075  60.076  1.00  0.00     0.130 A 
HETATM   24  C   UNL     1       6.938  32.022  60.839  1.00  0.00     0.057 A 
HETATM   25  C   UNL     1       7.534  32.555  61.984  1.00  0.00    -0.057 A 
HETATM   26  C   UNL     1       6.819  33.576  62.815  1.00  0.00     0.048 C 
HETATM   27  C   UNL     1       8.790  32.081  62.352  1.00  0.00     0.026 A 
HETATM   28  C   UNL     1       9.398  31.133  61.545  1.00  0.00     0.119 A 
HETATM   29  N   UNL     1       8.845  30.634  60.418  1.00  0.00    -0.243 NA
ENDBRANCH  20  23
ENDBRANCH   1  19
TORSDOF 6
ENDMDL
MODEL 6
REMARK VINA RESULT:      -8.8      2.605      9.948
REMARK  6 active torsions:
REMARK  status: ('A' for Active; 'I' for Inactive)
REMARK    1  A    between atoms: C_4  and  N_5 
REMARK       I    between atoms: N_5  and  C_6 
REMARK    2  A    between atoms: C_6  and  C_7 
REMARK    3  A    between atoms: C_9  and  N_10 
REMARK       I    between atoms: N_10  and  C_11 
REMARK    4  A    between atoms: C_11  and  C_12 
REMARK    5  A    between atoms: C_12  and  O_13 
REMARK    6  A    between atoms: O_13  and  C_14 
ROOT
HETATM    1  C   UNL     1       6.540  26.810  55.458  1.00  0.00     0.034 A 
HETATM    2  C   UNL     1       6.800  28.019  56.114  1.00  0.00     0.046 A 
HETATM    3  C   UNL     1       5.991  29.140  55.926  1.00  0.00     0.035 A 
HETATM    4  C   UNL     1       4.968  29.075  54.976  1.00  0.00     0.029 A 
HETATM    5  C   UNL     1       4.734  27.888  54.269  1.00  0.00     0.003 A 
HETATM    6  C   UNL     1       5.513  26.752  54.515  1.00  0.00     0.017 A 
ENDROOT
BRANCH   3   7
HETATM    7  N   UNL     1       6.184  30.331  56.657  1.00  0.00    -0.325 N 
HETATM    8  C   UNL     1       5.374  30.780  57.691  1.00  0.00     0.246 C 
HETATM    9  O   UNL     1       4.328  30.253  58.067  1.00  0.00    -0.271 OA
HETATM   10  H   UNL     1       6.887  30.987  56.329  1.00  0.00     0.169 HD
BRANCH   8  11
HETATM   11  C   UNL     1       5.910  32.008  58.419  1.00  0.00     0.278 C 
BRANCH  11  12
HETATM   12  O   UNL     1       7.326  32.014  58.553  1.00  0.00    -0.342 OA
BRANCH  12  13
HETATM   13  C   UNL     1       7.784  32.067  59.847  1.00  0.00     0.069 A 
HETATM   14  C   UNL     1       6.854  32.513  60.788  1.00  0.00     0.037 A 
HETATM   15  C   UNL     1       7.199  32.599  62.139  1.00  0.00     0.003 A 
HETATM   16  C   UNL     1       8.479  32.245  62.557  1.00  0.00     0.000 A 
HETATM   17  C   UNL     1       9.417  31.810  61.623  1.00  0.00     0.003 A 
HETATM   18  C   UNL     1       9.073  31.725  60.271  1.00  0.00     0.037 A 
ENDBRANCH  12  13
ENDBRANCH  11  12
ENDBRANCH   8  11
ENDBRANCH   3   7
BRANCH   1  19
HETATM   19  C   UNL     1       7.372  25.600  55.750  1.00  0.00     0.257 C 
HETATM   20  N   UNL     1       7.139  24.549  54.886  1.00  0.00    -0.307 N 
HETATM   21  H   UNL     1       6.560  24.722  54.078  1.00  0.00     0.170 HD
HETATM   22  O   UNL     1       8.167  25.651  56.680  1.00  0.00    -0.267 OA
BRANCH  20  23
HETATM   23  C   UNL     1       7.573  23.228  55.034  1.00  0.00     0.130 A 
HETATM   24  C   UNL     1       7.762  22.504  53.855  1.00  0.00     0.057 A 
HETATM   25  C   UNL     1       8.119  21.155  53.919  1.00  0.00    -0.057 A 
HETATM   26  C   UNL     1       8.322  20.357  52.667  1.00  0.00     0.048 C 
HETATM   27  C   UNL     1       8.320  20.588  55.174  1.00  0.00     0.026 A 
HETATM   28  C   UNL     1       8.121  21.380  56.293  1.00  0.00     0.119 A 
HETATM   29  N   UNL     1       7.744  22.676  56.245  1.00  0.00    -0.243 NA
ENDBRANCH  20  23
ENDBRANCH   1  19
TORSDOF 6
ENDMDL
MODEL 7
REMARK VINA RESULT:      -8.8      4.812      9.082
REMARK  6 active torsions:
REMARK  status: ('A' for Active; 'I' for Inactive)
REMARK    1  A    between atoms: C_4  and  N_5 
REMARK       I    between atoms: N_5  and  C_6 
REMARK    2  A    between atoms: C_6  and  C_7 
REMARK    3  A    between atoms: C_9  and  N_10 
REMARK       I    between atoms: N_10  and  C_11 
REMARK    4  A    between atoms: C_11  and  C_12 
REMARK    5  A    between atoms: C_12  and  O_13 
REMARK    6  A    between atoms: O_13  and  C_14 
ROOT
HETATM    1  C   UNL     1       7.468  26.632  56.311  1.00  0.00     0.034 A 
HETATM    2  C   UNL     1       7.046  26.992  55.025  1.00  0.00     0.046 A 
HETATM    3  C   UNL     1       6.579  28.276  54.744  1.00  0.00     0.035 A 
HETATM    4  C   UNL     1       6.429  29.180  55.799  1.00  0.00     0.029 A 
HETATM    5  C   UNL     1       6.793  28.812  57.102  1.00  0.00     0.003 A 
HETATM    6  C   UNL     1       7.321  27.542  57.358  1.00  0.00     0.017 A 
ENDROOT
BRANCH   3   7
HETATM    7  N   UNL     1       6.246  28.679  53.433  1.00  0.00    -0.325 N 
HETATM    8  C   UNL     1       5.015  28.490  52.823  1.00  0.00     0.246 C 
HETATM    9  O   UNL     1       4.062  27.872  53.298  1.00  0.00    -0.271 OA
HETATM   10  H   UNL     1       6.991  29.018  52.832  1.00  0.00     0.169 HD
BRANCH   8  11
HETATM   11  C   UNL     1       4.874  29.176  51.468  1.00  0.00     0.278 C 
BRANCH  11  12
HETATM   12  O   UNL     1       5.276  28.359  50.376  1.00  0.00    -0.342 OA
BRANCH  12  13
HETATM   13  C   UNL     1       4.245  27.857  49.619  1.00  0.00     0.069 A 
HETATM   14  C   UNL     1       4.525  26.660  48.956  1.00  0.00     0.037 A 
HETATM   15  C   UNL     1       3.552  26.044  48.165  1.00  0.00     0.003 A 
HETATM   16  C   UNL     1       2.293  26.625  48.028  1.00  0.00     0.000 A 
HETATM   17  C   UNL     1       2.010  27.824  48.678  1.00  0.00     0.003 A 
HETATM   18  C   UNL     1       2.983  28.442  49.468  1.00  0.00     0.037 A 
ENDBRANCH  12  13
ENDBRANCH  11  12
ENDBRANCH   8  11
ENDBRANCH   3   7
BRANCH   1  19
HETATM   19  C   UNL     1       8.048  25.274  56.560  1.00  0.00     0.257 C 
HETATM   20  N   UNL     1       7.891  24.405  55.499  1.00  0.00    -0.307 N 
HETATM   21  H   UNL     1       7.544  24.779  54.629  1.00  0.00     0.170 HD
HETATM   22  O   UNL     1       8.604  25.066  57.631  1.00  0.00    -0.267 OA
BRANCH  20  23
HETATM   23  C   UNL     1       8.107  23.023  55.507  1.00  0.00     0.130 A 
HETATM   24  C   UNL     1       8.200  22.406  54.258  1.00  0.00     0.057 A 
HETATM   25  C   UNL     1       8.336  21.018  54.179  1.00  0.00    -0.057 A 
HETATM   26  C   UNL     1       8.433  20.332  52.849  1.00  0.00     0.048 C 
HETATM   27  C   UNL     1       8.421  20.297  55.366  1.00  0.00     0.026 A 
HETATM   28  C   UNL     1       8.330  20.989  56.563  1.00  0.00     0.119 A 
HETATM   29  N   UNL     1       8.166  22.327  56.652  1.00  0.00    -0.243 NA
ENDBRANCH  20  23
ENDBRANCH   1  19
TORSDOF 6
ENDMDL
MODEL 8
REMARK VINA RESULT:      -8.6      2.172      2.849
REMARK  6 active torsions:
REMARK  status: ('A' for Active; 'I' for Inactive)
REMARK    1  A    between atoms: C_4  and  N_5 
REMARK       I    between atoms: N_5  and  C_6 
REMARK    2  A    between atoms: C_6  and  C_7 
REMARK    3  A    between atoms: C_9  and  N_10 
REMARK       I    between atoms: N_10  and  C_11 
REMARK    4  A    between atoms: C_11  and  C_12 
REMARK    5  A    between atoms: C_12  and  O_13 
REMARK    6  A    between atoms: O_13  and  C_14 
ROOT
HETATM    1  C   UNL     1       5.860  30.646  57.409  1.00  0.00     0.034 A 
HETATM    2  C   UNL     1       6.067  29.264  57.318  1.00  0.00     0.046 A 
HETATM    3  C   UNL     1       5.580  28.524  56.240  1.00  0.00     0.035 A 
HETATM    4  C   UNL     1       4.775  29.167  55.295  1.00  0.00     0.029 A 
HETATM    5  C   UNL     1       4.512  30.539  55.408  1.00  0.00     0.003 A 
HETATM    6  C   UNL     1       5.061  31.282  56.459  1.00  0.00     0.017 A 
ENDROOT
BRANCH   3   7
HETATM    7  N   UNL     1       5.867  27.152  56.086  1.00  0.00    -0.325 N 
HETATM    8  C   UNL     1       6.892  26.627  55.312  1.00  0.00     0.246 C 
HETATM    9  O   UNL     1       7.646  27.271  54.582  1.00  0.00    -0.271 OA
HETATM   10  H   UNL     1       5.205  26.478  56.459  1.00  0.00     0.169 HD
BRANCH   8  11
HETATM   11  C   UNL     1       7.084  25.121  55.461  1.00  0.00     0.278 C 
BRANCH  11  12
HETATM   12  O   UNL     1       6.792  24.393  54.276  1.00  0.00    -0.342 OA
BRANCH  12  13
HETATM   13  C   UNL     1       7.312  23.122  54.234  1.00  0.00     0.069 A 
HETATM   14  C   UNL     1       7.401  22.477  55.469  1.00  0.00     0.037 A 
HETATM   15  C   UNL     1       7.903  21.176  55.553  1.00  0.00     0.003 A 
HETATM   16  C   UNL     1       8.323  20.514  54.402  1.00  0.00     0.000 A 
HETATM   17  C   UNL     1       8.248  21.155  53.167  1.00  0.00     0.003 A 
HETATM   18  C   UNL     1       7.747  22.457  53.082  1.00  0.00     0.037 A 
ENDBRANCH  12  13
ENDBRANCH  11  12
ENDBRANCH   8  11
ENDBRANCH   3   7
BRANCH   1  19
HETATM   19  C   UNL     1       6.472  31.426  58.531  1.00  0.00     0.257 C 
HETATM   20  N   UNL     1       5.583  31.727  59.543  1.00  0.00    -0.307 N 
HETATM   21  H   UNL     1       4.673  31.293  59.516  1.00  0.00     0.170 HD
HETATM   22  O   UNL     1       7.663  31.704  58.465  1.00  0.00    -0.267 OA
BRANCH  20  23
HETATM   23  C   UNL     1       5.780  32.628  60.595  1.00  0.00     0.130 A 
HETATM   24  C   UNL     1       6.740  32.268  61.543  1.00  0.00     0.057 A 
HETATM   25  C   UNL     1       6.941  33.076  62.666  1.00  0.00    -0.057 A 
HETATM   26  C   UNL     1       7.962  32.708  63.700  1.00  0.00     0.048 C 
HETATM   27  C   UNL     1       6.198  34.248  62.774  1.00  0.00     0.026 A 
HETATM   28  C   UNL     1       5.274  34.534  61.782  1.00  0.00     0.119 A 
HETATM   29  N   UNL     1       5.048  33.745  60.709  1.00  0.00    -0.243 NA
ENDBRANCH  20  23
ENDBRANCH   1  19
TORSDOF 6
ENDMDL
MODEL 9
REMARK VINA RESULT:      -8.6      1.548      1.926
REMARK  6 active torsions:
REMARK  status: ('A' for Active; 'I' for Inactive)
REMARK    1  A    between atoms: C_4  and  N_5 
REMARK       I    between atoms: N_5  and  C_6 
REMARK    2  A    between atoms: C_6  and  C_7 
REMARK    3  A    between atoms: C_9  and  N_10 
REMARK       I    between atoms: N_10  and  C_11 
REMARK    4  A    between atoms: C_11  and  C_12 
REMARK    5  A    between atoms: C_12  and  O_13 
REMARK    6  A    between atoms: O_13  and  C_14 
ROOT
HETATM    1  C   UNL     1       8.217  30.538  58.267  1.00  0.00     0.034 A 
HETATM    2  C   UNL     1       7.518  29.467  57.697  1.00  0.00     0.046 A 
HETATM    3  C   UNL     1       8.182  28.430  57.041  1.00  0.00     0.035 A 
HETATM    4  C   UNL     1       9.564  28.530  56.858  1.00  0.00     0.029 A 
HETATM    5  C   UNL     1      10.267  29.628  57.372  1.00  0.00     0.003 A 
HETATM    6  C   UNL     1       9.597  30.627  58.085  1.00  0.00     0.017 A 
ENDROOT
BRANCH   3   7
HETATM    7  N   UNL     1       7.498  27.298  56.551  1.00  0.00    -0.325 N 
HETATM    8  C   UNL     1       7.639  26.003  57.033  1.00  0.00     0.246 C 
HETATM    9  O   UNL     1       8.437  25.638  57.895  1.00  0.00    -0.271 OA
HETATM   10  H   UNL     1       6.956  27.396  55.698  1.00  0.00     0.169 HD
BRANCH   8  11
HETATM   11  C   UNL     1       6.654  25.002  56.438  1.00  0.00     0.278 C 
BRANCH  11  12
HETATM   12  O   UNL     1       6.905  24.706  55.070  1.00  0.00    -0.342 OA
BRANCH  12  13
HETATM   13  C   UNL     1       7.286  23.410  54.819  1.00  0.00     0.069 A 
HETATM   14  C   UNL     1       7.477  23.099  53.472  1.00  0.00     0.037 A 
HETATM   15  C   UNL     1       7.878  21.815  53.091  1.00  0.00     0.003 A 
HETATM   16  C   UNL     1       8.085  20.834  54.057  1.00  0.00     0.000 A 
HETATM   17  C   UNL     1       7.886  21.133  55.403  1.00  0.00     0.003 A 
HETATM   18  C   UNL     1       7.484  22.416  55.784  1.00  0.00     0.037 A 
ENDBRANCH  12  13
ENDBRANCH  11  12
ENDBRANCH   8  11
ENDBRANCH   3   7
BRANCH   1  19
HETATM   19  C   UNL     1       7.483  31.589  59.042  1.00  0.00     0.257 C 
HETATM   20  N   UNL     1       6.125  31.361  59.130  1.00  0.00    -0.307 N 
HETATM   21  H   UNL     1       5.773  30.473  58.804  1.00  0.00     0.170 HD
HETATM   22  O   UNL     1       8.127  32.511  59.526  1.00  0.00    -0.267 OA
BRANCH  20  23
HETATM   23  C   UNL     1       5.149  32.259  59.573  1.00  0.00     0.130 A 
HETATM   24  C   UNL     1       5.057  32.439  60.954  1.00  0.00     0.057 A 
HETATM   25  C   UNL     1       4.057  33.259  61.482  1.00  0.00    -0.057 A 
HETATM   26  C   UNL     1       3.936  33.463  62.962  1.00  0.00     0.048 C 
HETATM   27  C   UNL     1       3.207  33.912  60.595  1.00  0.00     0.026 A 
HETATM   28  C   UNL     1       3.374  33.686  59.238  1.00  0.00     0.119 A 
HETATM   29  N   UNL     1       4.316  32.870  58.718  1.00  0.00    -0.243 NA
ENDBRANCH  20  23
ENDBRANCH   1  19
TORSDOF 6
ENDMDL
MODEL 10
REMARK VINA RESULT:      -8.6      1.676      2.370
REMARK  6 active torsions:
REMARK  status: ('A' for Active; 'I' for Inactive)
REMARK    1  A    between atoms: C_4  and  N_5 
REMARK       I    between atoms: N_5  and  C_6 
REMARK    2  A    between atoms: C_6  and  C_7 
REMARK    3  A    between atoms: C_9  and  N_10 
REMARK       I    between atoms: N_10  and  C_11 
REMARK    4  A    between atoms: C_11  and  C_12 
REMARK    5  A    between atoms: C_12  and  O_13 
REMARK    6  A    between atoms: O_13  and  C_14 
ROOT
HETATM    1  C   UNL     1       8.274  31.292  60.167  1.00  0.00     0.034 A 
HETATM    2  C   UNL     1       7.617  30.537  59.188  1.00  0.00     0.046 A 
HETATM    3  C   UNL     1       8.249  30.181  57.996  1.00  0.00     0.035 A 
HETATM    4  C   UNL     1       9.526  30.688  57.738  1.00  0.00     0.029 A 
HETATM    5  C   UNL     1      10.171  31.494  58.686  1.00  0.00     0.003 A 
HETATM    6  C   UNL     1       9.551  31.788  59.905  1.00  0.00     0.017 A 
ENDROOT
BRANCH   3   7
HETATM    7  N   UNL     1       7.633  29.339  57.047  1.00  0.00    -0.325 N 
HETATM    8  C   UNL     1       7.872  27.979  56.904  1.00  0.00     0.246 C 
HETATM    9  O   UNL     1       8.713  27.327  57.522  1.00  0.00    -0.271 OA
HETATM   10  H   UNL     1       7.066  29.767  56.321  1.00  0.00     0.169 HD
BRANCH   8  11
HETATM   11  C   UNL     1       6.945  27.280  55.915  1.00  0.00     0.278 C 
BRANCH  11  12
HETATM   12  O   UNL     1       7.490  27.173  54.607  1.00  0.00    -0.342 OA
BRANCH  12  13
HETATM   13  C   UNL     1       7.495  25.903  54.083  1.00  0.00     0.069 A 
HETATM   14  C   UNL     1       7.154  24.890  54.981  1.00  0.00     0.037 A 
HETATM   15  C   UNL     1       7.111  23.558  54.563  1.00  0.00     0.003 A 
HETATM   16  C   UNL     1       7.415  23.230  53.244  1.00  0.00     0.000 A 
HETATM   17  C   UNL     1       7.767  24.234  52.344  1.00  0.00     0.003 A 
HETATM   18  C   UNL     1       7.810  25.567  52.762  1.00  0.00     0.037 A 
ENDBRANCH  12  13
ENDBRANCH  11  12
ENDBRANCH   8  11
ENDBRANCH   3   7
BRANCH   1  19
HETATM   19  C   UNL     1       7.600  31.580  61.473  1.00  0.00     0.257 C 
HETATM   20  N   UNL     1       6.712  32.635  61.414  1.00  0.00    -0.307 N 
HETATM   21  H   UNL     1       6.490  33.015  60.506  1.00  0.00     0.170 HD
HETATM   22  O   UNL     1       7.871  30.875  62.436  1.00  0.00    -0.267 OA
BRANCH  20  23
HETATM   23  C   UNL     1       6.114  33.291  62.494  1.00  0.00     0.130 A 
HETATM   24  C   UNL     1       6.147  34.687  62.463  1.00  0.00     0.057 A 
HETATM   25  C   UNL     1       5.641  35.417  63.542  1.00  0.00    -0.057 A 
HETATM   26  C   UNL     1       5.670  36.915  63.534  1.00  0.00     0.048 C 
HETATM   27  C   UNL     1       5.073  34.715  64.601  1.00  0.00     0.026 A 
HETATM   28  C   UNL     1       5.071  33.330  64.546  1.00  0.00     0.119 A 
HETATM   29  N   UNL     1       5.587  32.613  63.524  1.00  0.00    -0.243 NA
ENDBRANCH  20  23
ENDBRANCH   1  19
TORSDOF 6
ENDMDL
