MODEL 1
REMARK VINA RESULT:     -10.1      0.000      0.000
REMARK  5 active torsions:
REMARK  status: ('A' for Active; 'I' for Inactive)
REMARK    1  A    between atoms: C_7  and  N_8 
REMARK    2  A    between atoms: N_8  and  C_9 
REMARK    3  A    between atoms: C_11  and  C_12 
REMARK       I    between atoms: C_12  and  N_13 
REMARK    4  A    between atoms: N_13  and  C_14 
REMARK    5  A    between atoms: C_14  and  C_15 
ROOT
HETATM    1  C   UNL     1       6.995  26.742  53.404  1.00  0.00     0.142 A 
HETATM    2  N   UNL     1       7.091  27.496  54.534  1.00  0.00    -0.225 NA
HETATM    3  C   UNL     1       6.252  28.556  54.736  1.00  0.00     0.129 A 
HETATM    4  C   UNL     1       5.268  28.977  53.863  1.00  0.00     0.075 A 
HETATM    5  C   UNL     1       5.206  28.213  52.715  1.00  0.00     0.091 A 
HETATM    6  C   UNL     1       6.022  27.121  52.449  1.00  0.00     0.046 A 
HETATM    7  O   UNL     1       4.339  28.423  51.687  1.00  0.00    -0.322 OA
HETATM    8  C   UNL     1       4.588  27.473  50.753  1.00  0.00     0.143 A 
HETATM    9  C   UNL     1       5.606  26.647  51.168  1.00  0.00     0.042 A 
ENDROOT
BRANCH   3  10
HETATM   10  C   UNL     1       6.442  29.305  56.021  1.00  0.00     0.270 C 
HETATM   11  N   UNL     1       7.382  28.766  56.866  1.00  0.00    -0.351 N 
HETATM   12  H   UNL     1       7.811  27.891  56.580  1.00  0.00     0.163 HD
HETATM   13  O   UNL     1       5.799  30.318  56.272  1.00  0.00    -0.266 OA
BRANCH  11  14
HETATM   14  C   UNL     1       7.629  29.297  58.182  1.00  0.00     0.165 C 
BRANCH  14  15
HETATM   15  C   UNL     1       8.813  30.191  58.118  1.00  0.00     0.002 A 
HETATM   16  C   UNL     1       9.044  31.412  58.813  1.00  0.00     0.060 A 
HETATM   17  C   UNL     1       8.163  32.111  59.781  1.00  0.00     0.073 C 
HETATM   18  N   UNL     1      10.227  31.953  58.489  1.00  0.00    -0.180 NA
HETATM   19  N   UNL     1      10.744  31.101  57.595  1.00  0.00    -0.288 N 
HETATM   20  H   UNL     1      11.653  31.314  57.196  1.00  0.00     0.188 HD
HETATM   21  C   UNL     1       9.942  30.033  57.338  1.00  0.00     0.120 A 
ENDBRANCH  14  15
ENDBRANCH  11  14
ENDBRANCH   3  10
BRANCH   1  22
HETATM   22  N   UNL     1       7.833  25.642  53.169  1.00  0.00    -0.340 N 
HETATM   23  H   UNL     1       8.459  25.781  52.389  1.00  0.00     0.167 HD
BRANCH  22  24
HETATM   24  C   UNL     1       7.934  24.370  53.758  1.00  0.00     0.034 A 
HETATM   25  C   UNL     1       7.920  24.282  55.158  1.00  0.00     0.031 A 
HETATM   26  C   UNL     1       7.978  23.046  55.809  1.00  0.00     0.022 A 
HETATM   27  C   UNL     1       8.042  21.867  55.066  1.00  0.00     0.017 A 
HETATM   28  C   UNL     1       8.056  21.915  53.668  1.00  0.00    -0.043 A 
HETATM   29 BR   UNL     1       8.102  20.228  56.023  1.00  0.00    -0.051 Br
HETATM   30  C   UNL     1       8.107  20.676  52.818  1.00  0.00     0.049 C 
HETATM   31  C   UNL     1       8.002  23.174  53.036  1.00  0.00     0.037 A 
ENDBRANCH  22  24
ENDBRANCH   1  22
TORSDOF 5
ENDMDL
MODEL 2
REMARK VINA RESULT:      -9.6      3.200      5.178
REMARK  5 active torsions:
REMARK  status: ('A' for Active; 'I' for Inactive)
REMARK    1  A    between atoms: C_7  and  N_8 
REMARK    2  A    between atoms: N_8  and  C_9 
REMARK    3  A    between atoms: C_11  and  C_12 
REMARK       I    between atoms: C_12  and  N_13 
REMARK    4  A    between atoms: N_13  and  C_14 
REMARK    5  A    between atoms: C_14  and  C_15 
ROOT
HETATM    1  C   UNL     1       6.622  24.820  54.176  1.00  0.00     0.142 A 
HETATM    2  N   UNL     1       6.738  25.634  55.263  1.00  0.00    -0.225 NA
HETATM    3  C   UNL     1       7.698  25.401  56.207  1.00  0.00     0.129 A 
HETATM    4  C   UNL     1       8.611  24.364  56.183  1.00  0.00     0.075 A 
HETATM    5  C   UNL     1       8.459  23.540  55.087  1.00  0.00     0.091 A 
HETATM    6  C   UNL     1       7.510  23.722  54.089  1.00  0.00     0.046 A 
HETATM    7  O   UNL     1       9.216  22.438  54.831  1.00  0.00    -0.322 OA
HETATM    8  C   UNL     1       8.763  21.901  53.671  1.00  0.00     0.143 A 
HETATM    9  C   UNL     1       7.721  22.648  53.171  1.00  0.00     0.042 A 
ENDROOT
BRANCH   3  10
HETATM   10  C   UNL     1       7.739  26.368  57.352  1.00  0.00     0.270 C 
HETATM   11  N   UNL     1       7.638  27.690  56.989  1.00  0.00    -0.351 N 
HETATM   12  H   UNL     1       7.610  27.895  55.995  1.00  0.00     0.163 HD
HETATM   13  O   UNL     1       7.850  25.985  58.511  1.00  0.00    -0.266 OA
BRANCH  11  14
HETATM   14  C   UNL     1       7.753  28.762  57.945  1.00  0.00     0.165 C 
BRANCH  14  15
HETATM   15  C   UNL     1       9.009  29.507  57.674  1.00  0.00     0.002 A 
HETATM   16  C   UNL     1       9.489  30.697  58.290  1.00  0.00     0.060 A 
HETATM   17  C   UNL     1       8.859  31.505  59.363  1.00  0.00     0.073 C 
HETATM   18  N   UNL     1      10.660  31.088  57.772  1.00  0.00    -0.180 NA
HETATM   19  N   UNL     1      10.927  30.172  56.832  1.00  0.00    -0.288 N 
HETATM   20  H   UNL     1      11.780  30.271  56.290  1.00  0.00     0.188 HD
HETATM   21  C   UNL     1       9.974  29.206  56.732  1.00  0.00     0.120 A 
ENDBRANCH  14  15
ENDBRANCH  11  14
ENDBRANCH   3  10
BRANCH   1  22
HETATM   22  N   UNL     1       5.655  25.036  53.184  1.00  0.00    -0.340 N 
HETATM   23  H   UNL     1       4.988  24.281  53.112  1.00  0.00     0.167 HD
BRANCH  22  24
HETATM   24  C   UNL     1       5.463  26.055  52.236  1.00  0.00     0.034 A 
HETATM   25  C   UNL     1       5.695  27.382  52.629  1.00  0.00     0.031 A 
HETATM   26  C   UNL     1       5.561  28.441  51.727  1.00  0.00     0.022 A 
HETATM   27  C   UNL     1       5.200  28.190  50.403  1.00  0.00     0.017 A 
HETATM   28  C   UNL     1       4.962  26.880  49.974  1.00  0.00    -0.043 A 
HETATM   29 BR   UNL     1       5.054  29.680  49.235  1.00  0.00    -0.051 Br
HETATM   30  C   UNL     1       4.585  26.550  48.556  1.00  0.00     0.049 C 
HETATM   31  C   UNL     1       5.099  25.830  50.905  1.00  0.00     0.037 A 
ENDBRANCH  22  24
ENDBRANCH   1  22
TORSDOF 5
ENDMDL
MODEL 3
REMARK VINA RESULT:      -9.5      2.949      6.818
REMARK  5 active torsions:
REMARK  status: ('A' for Active; 'I' for Inactive)
REMARK    1  A    between atoms: C_7  and  N_8 
REMARK    2  A    between atoms: N_8  and  C_9 
REMARK    3  A    between atoms: C_11  and  C_12 
REMARK       I    between atoms: C_12  and  N_13 
REMARK    4  A    between atoms: N_13  and  C_14 
REMARK    5  A    between atoms: C_14  and  C_15 
ROOT
HETATM    1  C   UNL     1       6.423  27.631  54.062  1.00  0.00     0.142 A 
HETATM    2  N   UNL     1       5.792  28.034  52.925  1.00  0.00    -0.225 NA
HETATM    3  C   UNL     1       4.739  28.904  52.984  1.00  0.00     0.129 A 
HETATM    4  C   UNL     1       4.208  29.440  54.142  1.00  0.00     0.075 A 
HETATM    5  C   UNL     1       4.847  28.998  55.282  1.00  0.00     0.091 A 
HETATM    6  C   UNL     1       5.925  28.121  55.292  1.00  0.00     0.046 A 
HETATM    7  O   UNL     1       4.512  29.358  56.551  1.00  0.00    -0.322 OA
HETATM    8  C   UNL     1       5.367  28.720  57.388  1.00  0.00     0.143 A 
HETATM    9  C   UNL     1       6.255  27.951  56.671  1.00  0.00     0.042 A 
ENDROOT
BRANCH   3  10
HETATM   10  C   UNL     1       4.131  29.288  51.669  1.00  0.00     0.270 C 
HETATM   11  N   UNL     1       3.607  28.239  50.953  1.00  0.00    -0.351 N 
HETATM   12  H   UNL     1       3.731  27.308  51.338  1.00  0.00     0.163 HD
HETATM   13  O   UNL     1       4.113  30.452  51.288  1.00  0.00    -0.266 OA
BRANCH  11  14
HETATM   14  C   UNL     1       3.068  28.405  49.627  1.00  0.00     0.165 C 
BRANCH  14  15
HETATM   15  C   UNL     1       4.058  27.895  48.645  1.00  0.00     0.002 A 
HETATM   16  C   UNL     1       4.119  26.615  48.025  1.00  0.00     0.060 A 
HETATM   17  C   UNL     1       3.209  25.455  48.200  1.00  0.00     0.073 C 
HETATM   18  N   UNL     1       5.169  26.511  47.200  1.00  0.00    -0.180 NA
HETATM   19  N   UNL     1       5.780  27.699  47.293  1.00  0.00    -0.288 N 
HETATM   20  H   UNL     1       6.623  27.851  46.749  1.00  0.00     0.188 HD
HETATM   21  C   UNL     1       5.158  28.562  48.141  1.00  0.00     0.120 A 
ENDBRANCH  14  15
ENDBRANCH  11  14
ENDBRANCH   3  10
BRANCH   1  22
HETATM   22  N   UNL     1       7.513  26.747  54.036  1.00  0.00    -0.340 N 
HETATM   23  H   UNL     1       8.405  27.219  54.071  1.00  0.00     0.167 HD
BRANCH  22  24
HETATM   24  C   UNL     1       7.613  25.351  53.910  1.00  0.00     0.034 A 
HETATM   25  C   UNL     1       7.664  24.801  52.621  1.00  0.00     0.031 A 
HETATM   26  C   UNL     1       7.801  23.424  52.424  1.00  0.00     0.022 A 
HETATM   27  C   UNL     1       7.902  22.567  53.520  1.00  0.00     0.017 A 
HETATM   28  C   UNL     1       7.856  23.080  54.821  1.00  0.00    -0.043 A 
HETATM   29 BR   UNL     1       8.103  20.712  53.170  1.00  0.00    -0.051 Br
HETATM   30  C   UNL     1       7.975  22.205  56.039  1.00  0.00     0.049 C 
HETATM   31  C   UNL     1       7.711  24.472  54.993  1.00  0.00     0.037 A 
ENDBRANCH  22  24
ENDBRANCH   1  22
TORSDOF 5
ENDMDL
MODEL 4
REMARK VINA RESULT:      -9.5      4.093      9.309
REMARK  5 active torsions:
REMARK  status: ('A' for Active; 'I' for Inactive)
REMARK    1  A    between atoms: C_7  and  N_8 
REMARK    2  A    between atoms: N_8  and  C_9 
REMARK    3  A    between atoms: C_11  and  C_12 
REMARK       I    between atoms: C_12  and  N_13 
REMARK    4  A    between atoms: N_13  and  C_14 
REMARK    5  A    between atoms: C_14  and  C_15 
ROOT
HETATM    1  C   UNL     1       7.638  30.215  58.177  1.00  0.00     0.142 A 
HETATM    2  N   UNL     1       6.899  29.119  57.850  1.00  0.00    -0.225 NA
HETATM    3  C   UNL     1       7.486  28.033  57.263  1.00  0.00     0.129 A 
HETATM    4  C   UNL     1       8.825  27.926  56.937  1.00  0.00     0.075 A 
HETATM    5  C   UNL     1       9.548  29.058  57.255  1.00  0.00     0.091 A 
HETATM    6  C   UNL     1       9.016  30.190  57.857  1.00  0.00     0.046 A 
HETATM    7  O   UNL     1      10.880  29.220  57.024  1.00  0.00    -0.322 OA
HETATM    8  C   UNL     1      11.217  30.454  57.474  1.00  0.00     0.143 A 
HETATM    9  C   UNL     1      10.115  31.091  57.996  1.00  0.00     0.042 A 
ENDROOT
BRANCH   3  10
HETATM   10  C   UNL     1       6.577  26.881  56.959  1.00  0.00     0.270 C 
HETATM   11  N   UNL     1       7.223  25.710  56.641  1.00  0.00    -0.351 N 
HETATM   12  H   UNL     1       8.236  25.744  56.578  1.00  0.00     0.163 HD
HETATM   13  O   UNL     1       5.358  26.998  57.003  1.00  0.00    -0.266 OA
BRANCH  11  14
HETATM   14  C   UNL     1       6.513  24.526  56.230  1.00  0.00     0.165 C 
BRANCH  14  15
HETATM   15  C   UNL     1       7.493  23.545  55.699  1.00  0.00     0.002 A 
HETATM   16  C   UNL     1       7.800  23.237  54.343  1.00  0.00     0.060 A 
HETATM   17  C   UNL     1       7.220  23.816  53.106  1.00  0.00     0.073 C 
HETATM   18  N   UNL     1       8.734  22.281  54.249  1.00  0.00    -0.180 NA
HETATM   19  N   UNL     1       9.017  21.971  55.521  1.00  0.00    -0.288 N 
HETATM   20  H   UNL     1       9.707  21.248  55.698  1.00  0.00     0.188 HD
HETATM   21  C   UNL     1       8.305  22.695  56.426  1.00  0.00     0.120 A 
ENDBRANCH  14  15
ENDBRANCH  11  14
ENDBRANCH   3  10
BRANCH   1  22
HETATM   22  N   UNL     1       7.069  31.342  58.789  1.00  0.00    -0.340 N 
HETATM   23  H   UNL     1       6.592  31.947  58.137  1.00  0.00     0.167 HD
BRANCH  22  24
HETATM   24  C   UNL     1       7.080  31.825  60.109  1.00  0.00     0.034 A 
HETATM   25  C   UNL     1       7.941  31.216  61.034  1.00  0.00     0.031 A 
HETATM   26  C   UNL     1       8.031  31.671  62.352  1.00  0.00     0.022 A 
HETATM   27  C   UNL     1       7.263  32.758  62.770  1.00  0.00     0.017 A 
HETATM   28  C   UNL     1       6.394  33.392  61.875  1.00  0.00    -0.043 A 
HETATM   29 BR   UNL     1       7.453  33.327  64.572  1.00  0.00    -0.051 Br
HETATM   30  C   UNL     1       5.554  34.577  62.268  1.00  0.00     0.049 C 
HETATM   31  C   UNL     1       6.318  32.910  60.553  1.00  0.00     0.037 A 
ENDBRANCH  22  24
ENDBRANCH   1  22
TORSDOF 5
ENDMDL
MODEL 5
REMARK VINA RESULT:      -9.4      3.519      7.953
REMARK  5 active torsions:
REMARK  status: ('A' for Active; 'I' for Inactive)
REMARK    1  A    between atoms: C_7  and  N_8 
REMARK    2  A    between atoms: N_8  and  C_9 
REMARK    3  A    between atoms: C_11  and  C_12 
REMARK       I    between atoms: C_12  and  N_13 
REMARK    4  A    between atoms: N_13  and  C_14 
REMARK    5  A    between atoms: C_14  and  C_15 
ROOT
HETATM    1  C   UNL     1       7.060  26.091  55.442  1.00  0.00     0.142 A 
HETATM    2  N   UNL     1       6.427  26.951  54.596  1.00  0.00    -0.225 NA
HETATM    3  C   UNL     1       5.951  26.517  53.391  1.00  0.00     0.129 A 
HETATM    4  C   UNL     1       6.059  25.228  52.904  1.00  0.00     0.075 A 
HETATM    5  C   UNL     1       6.726  24.382  53.767  1.00  0.00     0.091 A 
HETATM    6  C   UNL     1       7.228  24.756  55.007  1.00  0.00     0.046 A 
HETATM    7  O   UNL     1       6.982  23.067  53.524  1.00  0.00    -0.322 OA
HETATM    8  C   UNL     1       7.650  22.584  54.600  1.00  0.00     0.143 A 
HETATM    9  C   UNL     1       7.825  23.573  55.540  1.00  0.00     0.042 A 
ENDROOT
BRANCH   3  10
HETATM   10  C   UNL     1       5.261  27.548  52.549  1.00  0.00     0.270 C 
HETATM   11  N   UNL     1       4.592  27.044  51.460  1.00  0.00    -0.351 N 
HETATM   12  H   UNL     1       4.676  26.047  51.287  1.00  0.00     0.163 HD
HETATM   13  O   UNL     1       5.302  28.739  52.834  1.00  0.00    -0.266 OA
BRANCH  11  14
HETATM   14  C   UNL     1       3.952  27.894  50.488  1.00  0.00     0.165 C 
BRANCH  14  15
HETATM   15  C   UNL     1       4.576  27.653  49.162  1.00  0.00     0.002 A 
HETATM   16  C   UNL     1       4.304  26.615  48.226  1.00  0.00     0.060 A 
HETATM   17  C   UNL     1       3.327  25.502  48.332  1.00  0.00     0.073 C 
HETATM   18  N   UNL     1       5.079  26.710  47.138  1.00  0.00    -0.180 NA
HETATM   19  N   UNL     1       5.844  27.784  47.372  1.00  0.00    -0.288 N 
HETATM   20  H   UNL     1       6.529  28.050  46.671  1.00  0.00     0.188 HD
HETATM   21  C   UNL     1       5.584  28.384  48.565  1.00  0.00     0.120 A 
ENDBRANCH  14  15
ENDBRANCH  11  14
ENDBRANCH   3  10
BRANCH   1  22
HETATM   22  N   UNL     1       7.551  26.501  56.690  1.00  0.00    -0.340 N 
HETATM   23  H   UNL     1       7.472  25.787  57.401  1.00  0.00     0.167 HD
BRANCH  22  24
HETATM   24  C   UNL     1       8.072  27.717  57.164  1.00  0.00     0.034 A 
HETATM   25  C   UNL     1       7.270  28.504  58.004  1.00  0.00     0.031 A 
HETATM   26  C   UNL     1       7.739  29.705  58.541  1.00  0.00     0.022 A 
HETATM   27  C   UNL     1       9.033  30.142  58.254  1.00  0.00     0.017 A 
HETATM   28  C   UNL     1       9.863  29.384  57.420  1.00  0.00    -0.043 A 
HETATM   29 BR   UNL     1       9.602  31.777  59.034  1.00  0.00    -0.051 Br
HETATM   30  C   UNL     1      11.270  29.799  57.090  1.00  0.00     0.049 C 
HETATM   31  C   UNL     1       9.363  28.178  56.887  1.00  0.00     0.037 A 
ENDBRANCH  22  24
ENDBRANCH   1  22
TORSDOF 5
ENDMDL
MODEL 6
REMARK VINA RESULT:      -9.4      2.531      3.662
REMARK  5 active torsions:
REMARK  status: ('A' for Active; 'I' for Inactive)
REMARK    1  A    between atoms: C_7  and  N_8 
REMARK    2  A    between atoms: N_8  and  C_9 
REMARK    3  A    between atoms: C_11  and  C_12 
REMARK       I    between atoms: C_12  and  N_13 
REMARK    4  A    between atoms: N_13  and  C_14 
REMARK    5  A    between atoms: C_14  and  C_15 
ROOT
HETATM    1  C   UNL     1       7.681  26.518  57.021  1.00  0.00     0.142 A 
HETATM    2  N   UNL     1       8.292  27.513  57.723  1.00  0.00    -0.225 NA
HETATM    3  C   UNL     1       7.847  28.802  57.631  1.00  0.00     0.129 A 
HETATM    4  C   UNL     1       6.791  29.232  56.851  1.00  0.00     0.075 A 
HETATM    5  C   UNL     1       6.205  28.211  56.130  1.00  0.00     0.091 A 
HETATM    6  C   UNL     1       6.602  26.881  56.181  1.00  0.00     0.046 A 
HETATM    7  O   UNL     1       5.159  28.365  55.273  1.00  0.00    -0.322 OA
HETATM    8  C   UNL     1       4.874  27.140  54.766  1.00  0.00     0.143 A 
HETATM    9  C   UNL     1       5.724  26.194  55.289  1.00  0.00     0.042 A 
ENDROOT
BRANCH   3  10
HETATM   10  C   UNL     1       8.587  29.810  58.458  1.00  0.00     0.270 C 
HETATM   11  N   UNL     1       8.040  30.050  59.695  1.00  0.00    -0.351 N 
HETATM   12  H   UNL     1       7.165  29.582  59.912  1.00  0.00     0.163 HD
HETATM   13  O   UNL     1       9.600  30.360  58.042  1.00  0.00    -0.266 OA
BRANCH  11  14
HETATM   14  C   UNL     1       8.561  31.055  60.587  1.00  0.00     0.165 C 
BRANCH  14  15
HETATM   15  C   UNL     1       7.466  31.996  60.932  1.00  0.00     0.002 A 
HETATM   16  C   UNL     1       7.209  32.646  62.173  1.00  0.00     0.060 A 
HETATM   17  C   UNL     1       7.966  32.550  63.445  1.00  0.00     0.073 C 
HETATM   18  N   UNL     1       6.115  33.417  62.113  1.00  0.00    -0.180 NA
HETATM   19  N   UNL     1       5.669  33.260  60.860  1.00  0.00    -0.288 N 
HETATM   20  H   UNL     1       4.827  33.755  60.583  1.00  0.00     0.188 HD
HETATM   21  C   UNL     1       6.439  32.424  60.113  1.00  0.00     0.120 A 
ENDBRANCH  14  15
ENDBRANCH  11  14
ENDBRANCH   3  10
BRANCH   1  22
HETATM   22  N   UNL     1       8.105  25.183  57.100  1.00  0.00    -0.340 N 
HETATM   23  H   UNL     1       8.574  24.968  57.968  1.00  0.00     0.167 HD
BRANCH  22  24
HETATM   24  C   UNL     1       8.065  24.109  56.195  1.00  0.00     0.034 A 
HETATM   25  C   UNL     1       8.234  24.381  54.830  1.00  0.00     0.031 A 
HETATM   26  C   UNL     1       8.243  23.357  53.879  1.00  0.00     0.022 A 
HETATM   27  C   UNL     1       8.091  22.029  54.281  1.00  0.00     0.017 A 
HETATM   28  C   UNL     1       7.921  21.718  55.635  1.00  0.00    -0.043 A 
HETATM   29 BR   UNL     1       8.130  20.693  52.933  1.00  0.00    -0.051 Br
HETATM   30  C   UNL     1       7.768  20.305  56.126  1.00  0.00     0.049 C 
HETATM   31  C   UNL     1       7.910  22.771  56.573  1.00  0.00     0.037 A 
ENDBRANCH  22  24
ENDBRANCH   1  22
TORSDOF 5
ENDMDL
MODEL 7
REMARK VINA RESULT:      -9.3      2.664      3.870
REMARK  5 active torsions:
REMARK  status: ('A' for Active; 'I' for Inactive)
REMARK    1  A    between atoms: C_7  and  N_8 
REMARK    2  A    between atoms: N_8  and  C_9 
REMARK    3  A    between atoms: C_11  and  C_12 
REMARK       I    between atoms: C_12  and  N_13 
REMARK    4  A    between atoms: N_13  and  C_14 
REMARK    5  A    between atoms: C_14  and  C_15 
ROOT
HETATM    1  C   UNL     1       5.369  27.687  56.235  1.00  0.00     0.142 A 
HETATM    2  N   UNL     1       6.188  28.149  57.220  1.00  0.00    -0.225 NA
HETATM    3  C   UNL     1       6.433  29.488  57.350  1.00  0.00     0.129 A 
HETATM    4  C   UNL     1       5.919  30.479  56.536  1.00  0.00     0.075 A 
HETATM    5  C   UNL     1       5.113  29.984  55.531  1.00  0.00     0.091 A 
HETATM    6  C   UNL     1       4.818  28.640  55.346  1.00  0.00     0.046 A 
HETATM    7  O   UNL     1       4.496  30.744  54.584  1.00  0.00    -0.322 OA
HETATM    8  C   UNL     1       3.801  29.899  53.784  1.00  0.00     0.143 A 
HETATM    9  C   UNL     1       3.960  28.599  54.205  1.00  0.00     0.042 A 
ENDROOT
BRANCH   3  10
HETATM   10  C   UNL     1       7.339  29.881  58.478  1.00  0.00     0.270 C 
HETATM   11  N   UNL     1       6.893  30.943  59.227  1.00  0.00    -0.351 N 
HETATM   12  H   UNL     1       6.040  31.399  58.919  1.00  0.00     0.163 HD
HETATM   13  O   UNL     1       8.387  29.284  58.696  1.00  0.00    -0.266 OA
BRANCH  11  14
HETATM   14  C   UNL     1       7.677  31.518  60.291  1.00  0.00     0.165 C 
BRANCH  14  15
HETATM   15  C   UNL     1       6.822  32.464  61.052  1.00  0.00     0.002 A 
HETATM   16  C   UNL     1       6.979  32.926  62.390  1.00  0.00     0.060 A 
HETATM   17  C   UNL     1       8.037  32.583  63.373  1.00  0.00     0.073 C 
HETATM   18  N   UNL     1       5.998  33.767  62.744  1.00  0.00    -0.180 NA
HETATM   19  N   UNL     1       5.217  33.838  61.658  1.00  0.00    -0.288 N 
HETATM   20  H   UNL     1       4.388  34.423  61.698  1.00  0.00     0.188 HD
HETATM   21  C   UNL     1       5.663  33.080  60.621  1.00  0.00     0.120 A 
ENDBRANCH  14  15
ENDBRANCH  11  14
ENDBRANCH   3  10
BRANCH   1  22
HETATM   22  N   UNL     1       5.088  26.321  56.080  1.00  0.00    -0.340 N 
HETATM   23  H   UNL     1       4.228  26.041  56.529  1.00  0.00     0.167 HD
BRANCH  22  24
HETATM   24  C   UNL     1       5.789  25.260  55.481  1.00  0.00     0.034 A 
HETATM   25  C   UNL     1       5.674  25.084  54.095  1.00  0.00     0.031 A 
HETATM   26  C   UNL     1       6.373  24.073  53.430  1.00  0.00     0.022 A 
HETATM   27  C   UNL     1       7.215  23.219  54.144  1.00  0.00     0.017 A 
HETATM   28  C   UNL     1       7.356  23.365  55.528  1.00  0.00    -0.043 A 
HETATM   29 BR   UNL     1       8.142  21.882  53.167  1.00  0.00    -0.051 Br
HETATM   30  C   UNL     1       8.260  22.483  56.345  1.00  0.00     0.049 C 
HETATM   31  C   UNL     1       6.635  24.390  56.175  1.00  0.00     0.037 A 
ENDBRANCH  22  24
ENDBRANCH   1  22
TORSDOF 5
ENDMDL
MODEL 8
REMARK VINA RESULT:      -9.3      3.488      7.426
REMARK  5 active torsions:
REMARK  status: ('A' for Active; 'I' for Inactive)
REMARK    1  A    between atoms: C_7  and  N_8 
REMARK    2  A    between atoms: N_8  and  C_9 
REMARK    3  A    between atoms: C_11  and  C_12 
REMARK       I    between atoms: C_12  and  N_13 
REMARK    4  A    between atoms: N_13  and  C_14 
REMARK    5  A    between atoms: C_14  and  C_15 
ROOT
HETATM    1  C   UNL     1       6.504  26.664  53.119  1.00  0.00     0.142 A 
HETATM    2  N   UNL     1       6.244  26.773  51.787  1.00  0.00    -0.225 NA
HETATM    3  C   UNL     1       5.172  27.496  51.344  1.00  0.00     0.129 A 
HETATM    4  C   UNL     1       4.264  28.157  52.149  1.00  0.00     0.075 A 
HETATM    5  C   UNL     1       4.533  28.011  53.494  1.00  0.00     0.091 A 
HETATM    6  C   UNL     1       5.606  27.297  54.011  1.00  0.00     0.046 A 
HETATM    7  O   UNL     1       3.786  28.545  54.499  1.00  0.00    -0.322 OA
HETATM    8  C   UNL     1       4.369  28.182  55.668  1.00  0.00     0.143 A 
HETATM    9  C   UNL     1       5.488  27.419  55.429  1.00  0.00     0.042 A 
ENDROOT
BRANCH   3  10
HETATM   10  C   UNL     1       4.993  27.558  49.857  1.00  0.00     0.270 C 
HETATM   11  N   UNL     1       4.026  26.717  49.361  1.00  0.00    -0.351 N 
HETATM   12  H   UNL     1       3.572  26.094  50.022  1.00  0.00     0.163 HD
HETATM   13  O   UNL     1       5.665  28.310  49.161  1.00  0.00    -0.266 OA
BRANCH  11  14
HETATM   14  C   UNL     1       3.781  26.573  47.948  1.00  0.00     0.165 C 
BRANCH  14  15
HETATM   15  C   UNL     1       2.549  27.325  47.601  1.00  0.00     0.002 A 
HETATM   16  C   UNL     1       2.421  28.677  47.175  1.00  0.00     0.060 A 
HETATM   17  C   UNL     1       3.486  29.689  46.967  1.00  0.00     0.073 C 
HETATM   18  N   UNL     1       1.142  29.015  46.967  1.00  0.00    -0.180 NA
HETATM   19  N   UNL     1       0.456  27.904  47.263  1.00  0.00    -0.288 N 
HETATM   20  H   UNL     1      -0.557  27.926  47.184  1.00  0.00     0.188 HD
HETATM   21  C   UNL     1       1.246  26.866  47.647  1.00  0.00     0.120 A 
ENDBRANCH  14  15
ENDBRANCH  11  14
ENDBRANCH   3  10
BRANCH   1  22
HETATM   22  N   UNL     1       7.601  25.938  53.607  1.00  0.00    -0.340 N 
HETATM   23  H   UNL     1       8.473  26.441  53.530  1.00  0.00     0.167 HD
BRANCH  22  24
HETATM   24  C   UNL     1       7.738  24.638  54.122  1.00  0.00     0.034 A 
HETATM   25  C   UNL     1       7.763  24.472  55.514  1.00  0.00     0.031 A 
HETATM   26  C   UNL     1       7.859  23.204  56.094  1.00  0.00     0.022 A 
HETATM   27  C   UNL     1       7.922  22.069  55.285  1.00  0.00     0.017 A 
HETATM   28  C   UNL     1       7.898  22.195  53.892  1.00  0.00    -0.043 A 
HETATM   29 BR   UNL     1       8.035  20.381  56.147  1.00  0.00    -0.051 Br
HETATM   30  C   UNL     1       7.948  21.005  52.973  1.00  0.00     0.049 C 
HETATM   31  C   UNL     1       7.807  23.486  53.333  1.00  0.00     0.037 A 
ENDBRANCH  22  24
ENDBRANCH   1  22
TORSDOF 5
ENDMDL
MODEL 9
REMARK VINA RESULT:      -9.1      3.672      8.062
REMARK  5 active torsions:
REMARK  status: ('A' for Active; 'I' for Inactive)
REMARK    1  A    between atoms: C_7  and  N_8 
REMARK    2  A    between atoms: N_8  and  C_9 
REMARK    3  A    between atoms: C_11  and  C_12 
REMARK       I    between atoms: C_12  and  N_13 
REMARK    4  A    between atoms: N_13  and  C_14 
REMARK    5  A    between atoms: C_14  and  C_15 
ROOT
HETATM    1  C   UNL     1       7.213  26.081  54.852  1.00  0.00     0.142 A 
HETATM    2  N   UNL     1       6.669  26.925  53.931  1.00  0.00    -0.225 NA
HETATM    3  C   UNL     1       6.478  26.516  52.640  1.00  0.00     0.129 A 
HETATM    4  C   UNL     1       6.807  25.272  52.138  1.00  0.00     0.075 A 
HETATM    5  C   UNL     1       7.379  24.444  53.082  1.00  0.00     0.091 A 
HETATM    6  C   UNL     1       7.595  24.793  54.409  1.00  0.00     0.046 A 
HETATM    7  O   UNL     1       7.809  23.175  52.846  1.00  0.00    -0.322 OA
HETATM    8  C   UNL     1       8.305  22.696  54.013  1.00  0.00     0.143 A 
HETATM    9  C   UNL     1       8.197  23.643  55.005  1.00  0.00     0.042 A 
ENDROOT
BRANCH   3  10
HETATM   10  C   UNL     1       5.860  27.524  51.719  1.00  0.00     0.270 C 
HETATM   11  N   UNL     1       5.632  27.069  50.442  1.00  0.00    -0.351 N 
HETATM   12  H   UNL     1       5.954  26.132  50.222  1.00  0.00     0.163 HD
HETATM   13  O   UNL     1       5.585  28.656  52.100  1.00  0.00    -0.266 OA
BRANCH  11  14
HETATM   14  C   UNL     1       5.132  27.926  49.397  1.00  0.00     0.165 C 
BRANCH  14  15
HETATM   15  C   UNL     1       3.806  27.420  48.963  1.00  0.00     0.002 A 
HETATM   16  C   UNL     1       2.544  28.079  49.003  1.00  0.00     0.060 A 
HETATM   17  C   UNL     1       2.226  29.444  49.491  1.00  0.00     0.073 C 
HETATM   18  N   UNL     1       1.560  27.300  48.537  1.00  0.00    -0.180 NA
HETATM   19  N   UNL     1       2.173  26.155  48.211  1.00  0.00    -0.288 N 
HETATM   20  H   UNL     1       1.611  25.397  47.836  1.00  0.00     0.188 HD
HETATM   21  C   UNL     1       3.513  26.173  48.445  1.00  0.00     0.120 A 
ENDBRANCH  14  15
ENDBRANCH  11  14
ENDBRANCH   3  10
BRANCH   1  22
HETATM   22  N   UNL     1       7.413  26.465  56.186  1.00  0.00    -0.340 N 
HETATM   23  H   UNL     1       7.102  25.769  56.849  1.00  0.00     0.167 HD
BRANCH  22  24
HETATM   24  C   UNL     1       7.900  27.641  56.783  1.00  0.00     0.034 A 
HETATM   25  C   UNL     1       7.051  28.350  57.646  1.00  0.00     0.031 A 
HETATM   26  C   UNL     1       7.483  29.505  58.303  1.00  0.00     0.022 A 
HETATM   27  C   UNL     1       8.785  29.971  58.116  1.00  0.00     0.017 A 
HETATM   28  C   UNL     1       9.661  29.289  57.263  1.00  0.00    -0.043 A 
HETATM   29 BR   UNL     1       9.302  31.537  59.055  1.00  0.00    -0.051 Br
HETATM   30  C   UNL     1      11.078  29.737  57.036  1.00  0.00     0.049 C 
HETATM   31  C   UNL     1       9.198  28.129  56.608  1.00  0.00     0.037 A 
ENDBRANCH  22  24
ENDBRANCH   1  22
TORSDOF 5
ENDMDL
MODEL 10
REMARK VINA RESULT:      -9.0      3.619      6.138
REMARK  5 active torsions:
REMARK  status: ('A' for Active; 'I' for Inactive)
REMARK    1  A    between atoms: C_7  and  N_8 
REMARK    2  A    between atoms: N_8  and  C_9 
REMARK    3  A    between atoms: C_11  and  C_12 
REMARK       I    between atoms: C_12  and  N_13 
REMARK    4  A    between atoms: N_13  and  C_14 
REMARK    5  A    between atoms: C_14  and  C_15 
ROOT
HETATM    1  C   UNL     1       7.500  29.842  57.630  1.00  0.00     0.142 A 
HETATM    2  N   UNL     1       6.740  30.519  58.535  1.00  0.00    -0.225 NA
HETATM    3  C   UNL     1       7.302  31.466  59.345  1.00  0.00     0.129 A 
HETATM    4  C   UNL     1       8.636  31.824  59.352  1.00  0.00     0.075 A 
HETATM    5  C   UNL     1       9.390  31.108  58.446  1.00  0.00     0.091 A 
HETATM    6  C   UNL     1       8.883  30.138  57.590  1.00  0.00     0.046 A 
HETATM    7  O   UNL     1      10.731  31.252  58.263  1.00  0.00    -0.322 OA
HETATM    8  C   UNL     1      11.099  30.380  57.292  1.00  0.00     0.143 A 
HETATM    9  C   UNL     1      10.007  29.674  56.843  1.00  0.00     0.042 A 
ENDROOT
BRANCH   3  10
HETATM   10  C   UNL     1       6.367  32.156  60.293  1.00  0.00     0.270 C 
HETATM   11  N   UNL     1       6.281  31.576  61.536  1.00  0.00    -0.351 N 
HETATM   12  H   UNL     1       6.797  30.714  61.680  1.00  0.00     0.163 HD
HETATM   13  O   UNL     1       5.744  33.158  59.962  1.00  0.00    -0.266 OA
BRANCH  11  14
HETATM   14  C   UNL     1       5.363  32.046  62.542  1.00  0.00     0.165 C 
BRANCH  14  15
HETATM   15  C   UNL     1       6.135  32.751  63.596  1.00  0.00     0.002 A 
HETATM   16  C   UNL     1       5.650  33.520  64.692  1.00  0.00     0.060 A 
HETATM   17  C   UNL     1       4.245  33.820  65.065  1.00  0.00     0.073 C 
HETATM   18  N   UNL     1       6.649  34.021  65.430  1.00  0.00    -0.180 NA
HETATM   19  N   UNL     1       7.759  33.590  64.817  1.00  0.00    -0.288 N 
HETATM   20  H   UNL     1       8.659  33.859  65.204  1.00  0.00     0.188 HD
HETATM   21  C   UNL     1       7.509  32.829  63.718  1.00  0.00     0.120 A 
ENDBRANCH  14  15
ENDBRANCH  11  14
ENDBRANCH   3  10
BRANCH   1  22
HETATM   22  N   UNL     1       6.954  28.871  56.778  1.00  0.00    -0.340 N 
HETATM   23  H   UNL     1       6.152  29.204  56.262  1.00  0.00     0.167 HD
BRANCH  22  24
HETATM   24  C   UNL     1       7.259  27.519  56.545  1.00  0.00     0.034 A 
HETATM   25  C   UNL     1       7.570  26.707  57.645  1.00  0.00     0.031 A 
HETATM   26  C   UNL     1       7.845  25.346  57.489  1.00  0.00     0.022 A 
HETATM   27  C   UNL     1       7.804  24.765  56.221  1.00  0.00     0.017 A 
HETATM   28  C   UNL     1       7.495  25.543  55.100  1.00  0.00    -0.043 A 
HETATM   29 BR   UNL     1       8.174  22.907  56.093  1.00  0.00    -0.051 Br
HETATM   30  C   UNL     1       7.421  24.966  53.712  1.00  0.00     0.049 C 
HETATM   31  C   UNL     1       7.227  26.915  55.284  1.00  0.00     0.037 A 
ENDBRANCH  22  24
ENDBRANCH   1  22
TORSDOF 5
ENDMDL
