MODEL 1
REMARK VINA RESULT:     -12.4      0.000      0.000
REMARK  7 active torsions:
REMARK  status: ('A' for Active; 'I' for Inactive)
REMARK    1  A    between atoms: C_9  and  O_10 
REMARK    2  A    between atoms: O_10  and  C_11 
REMARK    3  A    between atoms: C_11  and  C_12 
REMARK    4  A    between atoms: C_15  and  C_16 
REMARK       I    between atoms: C_16  and  N_17 
REMARK    5  A    between atoms: N_17  and  N_18 
REMARK    6  A    between atoms: C_19  and  N_20 
REMARK    7  A    between atoms: C_21  and  C_22 
ROOT
HETATM    1  C   UNL     1       5.268  31.418  58.326  1.00  0.00     0.270 C 
HETATM    2  N   UNL     1       4.429  31.378  59.426  1.00  0.00    -0.262 N 
HETATM    3  O   UNL     1       5.912  32.399  57.965  1.00  0.00    -0.266 OA
HETATM    4  H   UNL     1       3.842  30.583  59.664  1.00  0.00     0.190 HD
ENDROOT
BRANCH   2   5
HETATM    5  N   UNL     1       4.335  32.467  60.305  1.00  0.00    -0.270 N 
HETATM    6  C   UNL     1       5.028  32.456  61.514  1.00  0.00     0.113 C 
HETATM    7  C   UNL     1       4.435  33.216  62.457  1.00  0.00     0.097 C 
HETATM    8  C   UNL     1       3.183  33.714  61.837  1.00  0.00     0.186 C 
HETATM    9  O   UNL     1       2.382  34.437  62.417  1.00  0.00    -0.290 OA
HETATM   10  C   UNL     1       3.050  33.169  60.429  1.00  0.00     0.234 C 
BRANCH   6  11
HETATM   11  N   UNL     1       6.190  31.732  61.667  1.00  0.00    -0.286 NA
HETATM   12  H   UNL     1       5.982  30.737  61.626  1.00  0.00     0.125 HD
HETATM   13  H   UNL     1       6.870  31.988  60.940  1.00  0.00     0.125 HD
ENDBRANCH   6  11
BRANCH   7  14
HETATM   14  C   UNL     1       4.893  33.469  63.761  1.00  0.00     0.146 A 
HETATM   15  N   UNL     1       6.120  33.593  64.237  1.00  0.00    -0.228 NA
HETATM   16  C   UNL     1       5.976  33.865  65.578  1.00  0.00     0.086 A 
HETATM   17  C   UNL     1       4.634  33.916  65.932  1.00  0.00     0.062 A 
HETATM   18  C   UNL     1       6.951  34.087  66.561  1.00  0.00     0.034 A 
HETATM   19  N   UNL     1       3.968  33.657  64.763  1.00  0.00    -0.338 N 
HETATM   20  C   UNL     1       4.188  34.184  67.228  1.00  0.00     0.032 A 
HETATM   21  H   UNL     1       2.962  33.620  64.640  1.00  0.00     0.167 HD
HETATM   22  C   UNL     1       5.176  34.405  68.196  1.00  0.00     0.002 A 
HETATM   23  C   UNL     1       6.534  34.357  67.871  1.00  0.00     0.002 A 
ENDBRANCH   7  14
ENDBRANCH   2   5
BRANCH   1  24
HETATM   24  C   UNL     1       5.313  30.175  57.513  1.00  0.00     0.033 A 
HETATM   25  C   UNL     1       6.486  29.412  57.533  1.00  0.00     0.017 A 
HETATM   26  C   UNL     1       6.572  28.239  56.781  1.00  0.00     0.010 A 
HETATM   27  C   UNL     1       5.485  27.807  56.008  1.00  0.00    -0.034 A 
HETATM   28  C   UNL     1       4.300  28.559  56.019  1.00  0.00     0.010 A 
HETATM   29  C   UNL     1       4.213  29.739  56.764  1.00  0.00     0.017 A 
BRANCH  27  30
HETATM   30  C   UNL     1       5.590  26.531  55.205  1.00  0.00     0.214 C 
BRANCH  30  31
HETATM   31  O   UNL     1       6.968  26.288  54.932  1.00  0.00    -0.347 OA
BRANCH  31  32
HETATM   32  C   UNL     1       7.288  25.087  54.361  1.00  0.00     0.070 A 
HETATM   33  C   UNL     1       7.511  24.855  53.005  1.00  0.00     0.037 A 
HETATM   34  C   UNL     1       7.840  23.572  52.556  1.00  0.00     0.015 A 
HETATM   35  C   UNL     1       7.948  22.499  53.454  1.00  0.00    -0.026 A 
HETATM   36  C   UNL     1       8.279  21.206  53.018  1.00  0.00     0.012 A 
HETATM   37  C   UNL     1       7.716  22.727  54.828  1.00  0.00    -0.023 A 
HETATM   38  C   UNL     1       8.379  20.150  53.925  1.00  0.00     0.001 A 
HETATM   39  C   UNL     1       8.149  20.374  55.279  1.00  0.00     0.001 A 
HETATM   40  C   UNL     1       7.820  21.655  55.729  1.00  0.00     0.012 A 
HETATM   41  C   UNL     1       7.387  24.023  55.262  1.00  0.00     0.049 A 
ENDBRANCH  31  32
ENDBRANCH  30  31
ENDBRANCH  27  30
ENDBRANCH   1  24
TORSDOF 7
ENDMDL
MODEL 2
REMARK VINA RESULT:     -12.3      0.544      1.224
REMARK  7 active torsions:
REMARK  status: ('A' for Active; 'I' for Inactive)
REMARK    1  A    between atoms: C_9  and  O_10 
REMARK    2  A    between atoms: O_10  and  C_11 
REMARK    3  A    between atoms: C_11  and  C_12 
REMARK    4  A    between atoms: C_15  and  C_16 
REMARK       I    between atoms: C_16  and  N_17 
REMARK    5  A    between atoms: N_17  and  N_18 
REMARK    6  A    between atoms: C_19  and  N_20 
REMARK    7  A    between atoms: C_21  and  C_22 
ROOT
HETATM    1  C   UNL     1       5.579  31.341  58.423  1.00  0.00     0.270 C 
HETATM    2  N   UNL     1       4.509  31.433  59.296  1.00  0.00    -0.262 N 
HETATM    3  O   UNL     1       6.446  32.200  58.278  1.00  0.00    -0.266 OA
HETATM    4  H   UNL     1       3.758  30.750  59.346  1.00  0.00     0.190 HD
ENDROOT
BRANCH   2   5
HETATM    5  N   UNL     1       4.394  32.506  60.191  1.00  0.00    -0.270 N 
HETATM    6  C   UNL     1       5.086  32.490  61.402  1.00  0.00     0.113 C 
HETATM    7  C   UNL     1       4.476  33.224  62.355  1.00  0.00     0.097 C 
HETATM    8  C   UNL     1       3.217  33.708  61.740  1.00  0.00     0.186 C 
HETATM    9  O   UNL     1       2.402  34.408  62.330  1.00  0.00    -0.290 OA
HETATM   10  C   UNL     1       3.096  33.183  60.324  1.00  0.00     0.234 C 
BRANCH   6  11
HETATM   11  N   UNL     1       6.260  31.784  61.546  1.00  0.00    -0.286 NA
HETATM   12  H   UNL     1       6.161  31.101  62.292  1.00  0.00     0.125 HD
HETATM   13  H   UNL     1       6.509  31.319  60.663  1.00  0.00     0.125 HD
ENDBRANCH   6  11
BRANCH   7  14
HETATM   14  C   UNL     1       4.929  33.465  63.663  1.00  0.00     0.146 A 
HETATM   15  N   UNL     1       6.153  33.577  64.148  1.00  0.00    -0.228 NA
HETATM   16  C   UNL     1       6.003  33.842  65.489  1.00  0.00     0.086 A 
HETATM   17  C   UNL     1       4.658  33.900  65.836  1.00  0.00     0.062 A 
HETATM   18  C   UNL     1       6.973  34.050  66.481  1.00  0.00     0.034 A 
HETATM   19  N   UNL     1       3.998  33.655  64.660  1.00  0.00    -0.338 N 
HETATM   20  C   UNL     1       4.206  34.164  67.130  1.00  0.00     0.032 A 
HETATM   21  H   UNL     1       2.993  33.625  64.531  1.00  0.00     0.167 HD
HETATM   22  C   UNL     1       5.189  34.372  68.106  1.00  0.00     0.002 A 
HETATM   23  C   UNL     1       6.549  34.315  67.790  1.00  0.00     0.002 A 
ENDBRANCH   7  14
ENDBRANCH   2   5
BRANCH   1  24
HETATM   24  C   UNL     1       5.606  30.124  57.572  1.00  0.00     0.033 A 
HETATM   25  C   UNL     1       6.797  29.393  57.499  1.00  0.00     0.017 A 
HETATM   26  C   UNL     1       6.867  28.244  56.709  1.00  0.00     0.010 A 
HETATM   27  C   UNL     1       5.746  27.806  55.989  1.00  0.00    -0.034 A 
HETATM   28  C   UNL     1       4.546  28.526  56.092  1.00  0.00     0.010 A 
HETATM   29  C   UNL     1       4.474  29.681  56.876  1.00  0.00     0.017 A 
BRANCH  27  30
HETATM   30  C   UNL     1       5.835  26.557  55.143  1.00  0.00     0.214 C 
BRANCH  30  31
HETATM   31  O   UNL     1       7.212  26.235  54.964  1.00  0.00    -0.347 OA
BRANCH  31  32
HETATM   32  C   UNL     1       7.586  24.942  55.204  1.00  0.00     0.070 A 
HETATM   33  C   UNL     1       7.959  24.410  56.436  1.00  0.00     0.037 A 
HETATM   34  C   UNL     1       8.312  23.060  56.542  1.00  0.00     0.015 A 
HETATM   35  C   UNL     1       8.302  22.222  55.417  1.00  0.00    -0.026 A 
HETATM   36  C   UNL     1       8.652  20.865  55.508  1.00  0.00     0.012 A 
HETATM   37  C   UNL     1       7.931  22.758  54.164  1.00  0.00    -0.023 A 
HETATM   38  C   UNL     1       8.638  20.047  54.378  1.00  0.00     0.001 A 
HETATM   39  C   UNL     1       8.275  20.575  53.143  1.00  0.00     0.001 A 
HETATM   40  C   UNL     1       7.923  21.921  53.036  1.00  0.00     0.012 A 
HETATM   41  C   UNL     1       7.578  24.115  54.077  1.00  0.00     0.049 A 
ENDBRANCH  31  32
ENDBRANCH  30  31
ENDBRANCH  27  30
ENDBRANCH   1  24
TORSDOF 7
ENDMDL
MODEL 3
REMARK VINA RESULT:     -11.8      3.221     13.003
REMARK  7 active torsions:
REMARK  status: ('A' for Active; 'I' for Inactive)
REMARK    1  A    between atoms: C_9  and  O_10 
REMARK    2  A    between atoms: O_10  and  C_11 
REMARK    3  A    between atoms: C_11  and  C_12 
REMARK    4  A    between atoms: C_15  and  C_16 
REMARK       I    between atoms: C_16  and  N_17 
REMARK    5  A    between atoms: N_17  and  N_18 
REMARK    6  A    between atoms: C_19  and  N_20 
REMARK    7  A    between atoms: C_21  and  C_22 
ROOT
HETATM    1  C   UNL     1       7.052  28.939  57.253  1.00  0.00     0.270 C 
HETATM    2  N   UNL     1       6.002  28.080  57.530  1.00  0.00    -0.262 N 
HETATM    3  O   UNL     1       7.828  28.821  56.308  1.00  0.00    -0.266 OA
HETATM    4  H   UNL     1       5.418  28.146  58.360  1.00  0.00     0.190 HD
ENDROOT
BRANCH   2   5
HETATM    5  N   UNL     1       5.670  27.035  56.656  1.00  0.00    -0.270 N 
HETATM    6  C   UNL     1       6.397  25.846  56.673  1.00  0.00     0.113 C 
HETATM    7  C   UNL     1       6.377  25.210  55.484  1.00  0.00     0.097 C 
HETATM    8  C   UNL     1       5.631  26.105  54.567  1.00  0.00     0.186 C 
HETATM    9  O   UNL     1       5.424  25.844  53.388  1.00  0.00    -0.290 OA
HETATM   10  C   UNL     1       5.214  27.365  55.298  1.00  0.00     0.234 C 
BRANCH   6  11
HETATM   11  N   UNL     1       7.042  25.418  57.813  1.00  0.00    -0.286 NA
HETATM   12  H   UNL     1       6.973  26.131  58.535  1.00  0.00     0.125 HD
HETATM   13  H   UNL     1       6.637  24.532  58.142  1.00  0.00     0.125 HD
ENDBRANCH   6  11
BRANCH   7  14
HETATM   14  C   UNL     1       6.956  23.968  55.172  1.00  0.00     0.146 A 
HETATM   15  N   UNL     1       7.410  23.004  55.955  1.00  0.00    -0.228 NA
HETATM   16  C   UNL     1       7.840  22.007  55.111  1.00  0.00     0.086 A 
HETATM   17  C   UNL     1       7.640  22.362  53.782  1.00  0.00     0.062 A 
HETATM   18  C   UNL     1       8.411  20.761  55.407  1.00  0.00     0.034 A 
HETATM   19  N   UNL     1       7.082  23.611  53.848  1.00  0.00    -0.338 N 
HETATM   20  C   UNL     1       7.973  21.537  52.706  1.00  0.00     0.032 A 
HETATM   21  H   UNL     1       6.794  24.183  53.062  1.00  0.00     0.167 HD
HETATM   22  C   UNL     1       8.540  20.296  53.021  1.00  0.00     0.002 A 
HETATM   23  C   UNL     1       8.757  19.912  54.346  1.00  0.00     0.002 A 
ENDBRANCH   7  14
ENDBRANCH   2   5
BRANCH   1  24
HETATM   24  C   UNL     1       7.255  30.035  58.235  1.00  0.00     0.033 A 
HETATM   25  C   UNL     1       8.379  29.979  59.067  1.00  0.00     0.017 A 
HETATM   26  C   UNL     1       8.607  30.987  60.005  1.00  0.00     0.010 A 
HETATM   27  C   UNL     1       7.722  32.068  60.118  1.00  0.00    -0.034 A 
HETATM   28  C   UNL     1       6.615  32.135  59.259  1.00  0.00     0.010 A 
HETATM   29  C   UNL     1       6.378  31.123  58.323  1.00  0.00     0.017 A 
BRANCH  27  30
HETATM   30  C   UNL     1       7.985  33.155  61.134  1.00  0.00     0.214 C 
BRANCH  30  31
HETATM   31  O   UNL     1       7.991  32.563  62.431  1.00  0.00    -0.347 OA
BRANCH  31  32
HETATM   32  C   UNL     1       6.993  32.935  63.290  1.00  0.00     0.070 A 
HETATM   33  C   UNL     1       5.630  32.954  63.007  1.00  0.00     0.037 A 
HETATM   34  C   UNL     1       4.713  33.351  63.987  1.00  0.00     0.015 A 
HETATM   35  C   UNL     1       5.146  33.739  65.264  1.00  0.00    -0.026 A 
HETATM   36  C   UNL     1       4.237  34.138  66.257  1.00  0.00     0.012 A 
HETATM   37  C   UNL     1       6.527  33.728  65.554  1.00  0.00    -0.023 A 
HETATM   38  C   UNL     1       4.686  34.523  67.522  1.00  0.00     0.001 A 
HETATM   39  C   UNL     1       6.048  34.515  67.808  1.00  0.00     0.001 A 
HETATM   40  C   UNL     1       6.963  34.119  66.831  1.00  0.00     0.012 A 
HETATM   41  C   UNL     1       7.433  33.326  64.558  1.00  0.00     0.049 A 
ENDBRANCH  31  32
ENDBRANCH  30  31
ENDBRANCH  27  30
ENDBRANCH   1  24
TORSDOF 7
ENDMDL
MODEL 4
REMARK VINA RESULT:     -11.4      3.070     13.002
REMARK  7 active torsions:
REMARK  status: ('A' for Active; 'I' for Inactive)
REMARK    1  A    between atoms: C_9  and  O_10 
REMARK    2  A    between atoms: O_10  and  C_11 
REMARK    3  A    between atoms: C_11  and  C_12 
REMARK    4  A    between atoms: C_15  and  C_16 
REMARK       I    between atoms: C_16  and  N_17 
REMARK    5  A    between atoms: N_17  and  N_18 
REMARK    6  A    between atoms: C_19  and  N_20 
REMARK    7  A    between atoms: C_21  and  C_22 
ROOT
HETATM    1  C   UNL     1       6.328  29.227  56.792  1.00  0.00     0.270 C 
HETATM    2  N   UNL     1       5.225  28.495  56.390  1.00  0.00    -0.262 N 
HETATM    3  O   UNL     1       7.483  29.019  56.430  1.00  0.00    -0.266 OA
HETATM    4  H   UNL     1       4.288  28.629  56.760  1.00  0.00     0.190 HD
ENDROOT
BRANCH   2   5
HETATM    5  N   UNL     1       5.338  27.491  55.416  1.00  0.00    -0.270 N 
HETATM    6  C   UNL     1       5.803  26.224  55.763  1.00  0.00     0.113 C 
HETATM    7  C   UNL     1       6.390  25.587  54.729  1.00  0.00     0.097 C 
HETATM    8  C   UNL     1       6.385  26.560  53.610  1.00  0.00     0.186 C 
HETATM    9  O   UNL     1       6.852  26.318  52.503  1.00  0.00    -0.290 OA
HETATM   10  C   UNL     1       5.761  27.865  54.059  1.00  0.00     0.234 C 
BRANCH   6  11
HETATM   11  N   UNL     1       5.647  25.729  57.040  1.00  0.00    -0.286 NA
HETATM   12  H   UNL     1       4.850  26.176  57.486  1.00  0.00     0.125 HD
HETATM   13  H   UNL     1       5.520  24.708  57.015  1.00  0.00     0.125 HD
ENDBRANCH   6  11
BRANCH   7  14
HETATM   14  C   UNL     1       6.913  24.283  54.718  1.00  0.00     0.146 A 
HETATM   15  N   UNL     1       7.225  23.468  55.710  1.00  0.00    -0.228 NA
HETATM   16  C   UNL     1       7.668  22.308  55.117  1.00  0.00     0.086 A 
HETATM   17  C   UNL     1       7.620  22.410  53.732  1.00  0.00     0.062 A 
HETATM   18  C   UNL     1       8.125  21.117  55.700  1.00  0.00     0.034 A 
HETATM   19  N   UNL     1       7.142  23.673  53.504  1.00  0.00    -0.338 N 
HETATM   20  C   UNL     1       8.000  21.379  52.871  1.00  0.00     0.032 A 
HETATM   21  H   UNL     1       6.969  24.096  52.599  1.00  0.00     0.167 HD
HETATM   22  C   UNL     1       8.451  20.196  53.470  1.00  0.00     0.002 A 
HETATM   23  C   UNL     1       8.514  20.065  54.859  1.00  0.00     0.002 A 
ENDBRANCH   7  14
ENDBRANCH   2   5
BRANCH   1  24
HETATM   24  C   UNL     1       6.055  30.297  57.787  1.00  0.00     0.033 A 
HETATM   25  C   UNL     1       7.134  30.821  58.508  1.00  0.00     0.017 A 
HETATM   26  C   UNL     1       6.922  31.825  59.455  1.00  0.00     0.010 A 
HETATM   27  C   UNL     1       5.632  32.325  59.686  1.00  0.00    -0.034 A 
HETATM   28  C   UNL     1       4.560  31.817  58.937  1.00  0.00     0.010 A 
HETATM   29  C   UNL     1       4.767  30.806  57.994  1.00  0.00     0.017 A 
BRANCH  27  30
HETATM   30  C   UNL     1       5.419  33.416  60.709  1.00  0.00     0.214 C 
BRANCH  30  31
HETATM   31  O   UNL     1       4.895  32.822  61.895  1.00  0.00    -0.347 OA
BRANCH  31  32
HETATM   32  C   UNL     1       5.521  33.123  63.072  1.00  0.00     0.070 A 
HETATM   33  C   UNL     1       6.896  33.109  63.298  1.00  0.00     0.037 A 
HETATM   34  C   UNL     1       7.405  33.449  64.556  1.00  0.00     0.015 A 
HETATM   35  C   UNL     1       6.548  33.804  65.610  1.00  0.00    -0.026 A 
HETATM   36  C   UNL     1       7.045  34.148  66.877  1.00  0.00     0.012 A 
HETATM   37  C   UNL     1       5.154  33.812  65.388  1.00  0.00    -0.023 A 
HETATM   38  C   UNL     1       6.178  34.496  67.913  1.00  0.00     0.001 A 
HETATM   39  C   UNL     1       4.803  34.503  67.696  1.00  0.00     0.001 A 
HETATM   40  C   UNL     1       4.294  34.164  66.441  1.00  0.00     0.012 A 
HETATM   41  C   UNL     1       4.660  33.469  64.118  1.00  0.00     0.049 A 
ENDBRANCH  31  32
ENDBRANCH  30  31
ENDBRANCH  27  30
ENDBRANCH   1  24
TORSDOF 7
ENDMDL
MODEL 5
REMARK VINA RESULT:     -10.9      3.357     12.587
REMARK  7 active torsions:
REMARK  status: ('A' for Active; 'I' for Inactive)
REMARK    1  A    between atoms: C_9  and  O_10 
REMARK    2  A    between atoms: O_10  and  C_11 
REMARK    3  A    between atoms: C_11  and  C_12 
REMARK    4  A    between atoms: C_15  and  C_16 
REMARK       I    between atoms: C_16  and  N_17 
REMARK    5  A    between atoms: N_17  and  N_18 
REMARK    6  A    between atoms: C_19  and  N_20 
REMARK    7  A    between atoms: C_21  and  C_22 
ROOT
HETATM    1  C   UNL     1       5.618  29.088  56.166  1.00  0.00     0.270 C 
HETATM    2  N   UNL     1       4.667  28.355  55.479  1.00  0.00    -0.262 N 
HETATM    3  O   UNL     1       6.823  28.850  56.173  1.00  0.00    -0.266 OA
HETATM    4  H   UNL     1       3.666  28.517  55.548  1.00  0.00     0.190 HD
ENDROOT
BRANCH   2   5
HETATM    5  N   UNL     1       5.039  27.311  54.620  1.00  0.00    -0.270 N 
HETATM    6  C   UNL     1       5.462  26.089  55.140  1.00  0.00     0.113 C 
HETATM    7  C   UNL     1       6.295  25.432  54.306  1.00  0.00     0.097 C 
HETATM    8  C   UNL     1       6.508  26.345  53.157  1.00  0.00     0.186 C 
HETATM    9  O   UNL     1       7.225  26.072  52.201  1.00  0.00    -0.290 OA
HETATM   10  C   UNL     1       5.747  27.637  53.373  1.00  0.00     0.234 C 
BRANCH   6  11
HETATM   11  N   UNL     1       5.039  25.651  56.376  1.00  0.00    -0.286 NA
HETATM   12  H   UNL     1       5.324  26.315  57.091  1.00  0.00     0.125 HD
HETATM   13  H   UNL     1       4.018  25.531  56.382  1.00  0.00     0.125 HD
ENDBRANCH   6  11
BRANCH   7  14
HETATM   14  C   UNL     1       6.859  24.159  54.493  1.00  0.00     0.146 A 
HETATM   15  N   UNL     1       7.103  23.475  55.598  1.00  0.00    -0.228 NA
HETATM   16  C   UNL     1       7.636  22.276  55.186  1.00  0.00     0.086 A 
HETATM   17  C   UNL     1       7.715  22.218  53.799  1.00  0.00     0.062 A 
HETATM   18  C   UNL     1       8.075  21.179  55.941  1.00  0.00     0.034 A 
HETATM   19  N   UNL     1       7.219  23.426  53.384  1.00  0.00    -0.338 N 
HETATM   20  C   UNL     1       8.206  21.114  53.101  1.00  0.00     0.032 A 
HETATM   21  H   UNL     1       7.118  23.736  52.424  1.00  0.00     0.167 HD
HETATM   22  C   UNL     1       8.637  20.026  53.872  1.00  0.00     0.002 A 
HETATM   23  C   UNL     1       8.574  20.056  55.267  1.00  0.00     0.002 A 
ENDBRANCH   7  14
ENDBRANCH   2   5
BRANCH   1  24
HETATM   24  C   UNL     1       5.089  30.201  56.996  1.00  0.00     0.033 A 
HETATM   25  C   UNL     1       5.763  31.427  56.969  1.00  0.00     0.017 A 
HETATM   26  C   UNL     1       5.302  32.498  57.735  1.00  0.00     0.010 A 
HETATM   27  C   UNL     1       4.155  32.363  58.531  1.00  0.00    -0.034 A 
HETATM   28  C   UNL     1       3.464  31.141  58.528  1.00  0.00     0.010 A 
HETATM   29  C   UNL     1       3.929  30.063  57.768  1.00  0.00     0.017 A 
BRANCH  27  30
HETATM   30  C   UNL     1       3.663  33.533  59.350  1.00  0.00     0.214 C 
BRANCH  30  31
HETATM   31  O   UNL     1       3.014  33.024  60.513  1.00  0.00    -0.347 OA
BRANCH  31  32
HETATM   32  C   UNL     1       3.584  33.315  61.722  1.00  0.00     0.070 A 
HETATM   33  C   UNL     1       2.941  33.888  62.816  1.00  0.00     0.037 A 
HETATM   34  C   UNL     1       3.645  34.125  64.002  1.00  0.00     0.015 A 
HETATM   35  C   UNL     1       5.005  33.796  64.111  1.00  0.00    -0.026 A 
HETATM   36  C   UNL     1       5.724  34.026  65.294  1.00  0.00     0.012 A 
HETATM   37  C   UNL     1       5.663  33.221  63.002  1.00  0.00    -0.023 A 
HETATM   38  C   UNL     1       7.077  33.695  65.383  1.00  0.00     0.001 A 
HETATM   39  C   UNL     1       7.727  33.130  64.290  1.00  0.00     0.001 A 
HETATM   40  C   UNL     1       7.025  32.893  63.107  1.00  0.00     0.012 A 
HETATM   41  C   UNL     1       4.940  32.989  61.820  1.00  0.00     0.049 A 
ENDBRANCH  31  32
ENDBRANCH  30  31
ENDBRANCH  27  30
ENDBRANCH   1  24
TORSDOF 7
ENDMDL
MODEL 6
REMARK VINA RESULT:     -10.8      5.134      7.512
REMARK  7 active torsions:
REMARK  status: ('A' for Active; 'I' for Inactive)
REMARK    1  A    between atoms: C_9  and  O_10 
REMARK    2  A    between atoms: O_10  and  C_11 
REMARK    3  A    between atoms: C_11  and  C_12 
REMARK    4  A    between atoms: C_15  and  C_16 
REMARK       I    between atoms: C_16  and  N_17 
REMARK    5  A    between atoms: N_17  and  N_18 
REMARK    6  A    between atoms: C_19  and  N_20 
REMARK    7  A    between atoms: C_21  and  C_22 
ROOT
HETATM    1  C   UNL     1       7.730  27.209  55.578  1.00  0.00     0.270 C 
HETATM    2  N   UNL     1       8.208  28.508  55.585  1.00  0.00    -0.262 N 
HETATM    3  O   UNL     1       7.933  26.379  56.461  1.00  0.00    -0.266 OA
HETATM    4  H   UNL     1       8.099  29.157  54.811  1.00  0.00     0.190 HD
ENDROOT
BRANCH   2   5
HETATM    5  N   UNL     1       8.894  29.022  56.695  1.00  0.00    -0.270 N 
HETATM    6  C   UNL     1       8.189  29.484  57.805  1.00  0.00     0.113 C 
HETATM    7  C   UNL     1       8.867  30.427  58.493  1.00  0.00     0.097 C 
HETATM    8  C   UNL     1      10.106  30.670  57.716  1.00  0.00     0.186 C 
HETATM    9  O   UNL     1      10.963  31.481  58.048  1.00  0.00    -0.290 OA
HETATM   10  C   UNL     1      10.118  29.806  56.472  1.00  0.00     0.234 C 
BRANCH   6  11
HETATM   11  N   UNL     1       6.941  28.991  58.117  1.00  0.00    -0.286 NA
HETATM   12  H   UNL     1       6.377  29.726  58.535  1.00  0.00     0.125 HD
HETATM   13  H   UNL     1       6.482  28.620  57.275  1.00  0.00     0.125 HD
ENDBRANCH   6  11
BRANCH   7  14
HETATM   14  C   UNL     1       8.474  31.060  59.684  1.00  0.00     0.146 A 
HETATM   15  N   UNL     1       9.000  31.024  60.896  1.00  0.00    -0.228 NA
HETATM   16  C   UNL     1       8.222  31.856  61.666  1.00  0.00     0.086 A 
HETATM   17  C   UNL     1       7.200  32.420  60.912  1.00  0.00     0.062 A 
HETATM   18  C   UNL     1       8.329  32.186  63.025  1.00  0.00     0.034 A 
HETATM   19  N   UNL     1       7.380  31.896  59.659  1.00  0.00    -0.338 N 
HETATM   20  C   UNL     1       6.262  33.314  61.431  1.00  0.00     0.032 A 
HETATM   21  H   UNL     1       6.816  32.091  58.839  1.00  0.00     0.167 HD
HETATM   22  C   UNL     1       6.386  33.633  62.788  1.00  0.00     0.002 A 
HETATM   23  C   UNL     1       7.399  33.080  63.575  1.00  0.00     0.002 A 
ENDBRANCH   7  14
ENDBRANCH   2   5
BRANCH   1  24
HETATM   24  C   UNL     1       6.972  26.815  54.363  1.00  0.00     0.033 A 
HETATM   25  C   UNL     1       6.497  25.501  54.276  1.00  0.00     0.017 A 
HETATM   26  C   UNL     1       5.783  25.088  53.150  1.00  0.00     0.010 A 
HETATM   27  C   UNL     1       5.526  25.983  52.101  1.00  0.00    -0.034 A 
HETATM   28  C   UNL     1       5.977  27.307  52.210  1.00  0.00     0.010 A 
HETATM   29  C   UNL     1       6.699  27.723  53.332  1.00  0.00     0.017 A 
BRANCH  27  30
HETATM   30  C   UNL     1       4.746  25.522  50.892  1.00  0.00     0.214 C 
BRANCH  30  31
HETATM   31  O   UNL     1       4.926  26.481  49.852  1.00  0.00    -0.347 OA
BRANCH  31  32
HETATM   32  C   UNL     1       3.903  26.630  48.958  1.00  0.00     0.070 A 
HETATM   33  C   UNL     1       3.475  25.681  48.032  1.00  0.00     0.037 A 
HETATM   34  C   UNL     1       2.403  25.964  47.178  1.00  0.00     0.015 A 
HETATM   35  C   UNL     1       1.744  27.202  47.233  1.00  0.00    -0.026 A 
HETATM   36  C   UNL     1       0.667  27.499  46.384  1.00  0.00     0.012 A 
HETATM   37  C   UNL     1       2.178  28.170  48.165  1.00  0.00    -0.023 A 
HETATM   38  C   UNL     1       0.025  28.736  46.452  1.00  0.00     0.001 A 
HETATM   39  C   UNL     1       0.453  29.692  47.368  1.00  0.00     0.001 A 
HETATM   40  C   UNL     1       1.523  29.411  48.221  1.00  0.00     0.012 A 
HETATM   41  C   UNL     1       3.255  27.868  49.016  1.00  0.00     0.049 A 
ENDBRANCH  31  32
ENDBRANCH  30  31
ENDBRANCH  27  30
ENDBRANCH   1  24
TORSDOF 7
ENDMDL
MODEL 7
REMARK VINA RESULT:     -10.2      2.769      4.022
REMARK  7 active torsions:
REMARK  status: ('A' for Active; 'I' for Inactive)
REMARK    1  A    between atoms: C_9  and  O_10 
REMARK    2  A    between atoms: O_10  and  C_11 
REMARK    3  A    between atoms: C_11  and  C_12 
REMARK    4  A    between atoms: C_15  and  C_16 
REMARK       I    between atoms: C_16  and  N_17 
REMARK    5  A    between atoms: N_17  and  N_18 
REMARK    6  A    between atoms: C_19  and  N_20 
REMARK    7  A    between atoms: C_21  and  C_22 
ROOT
HETATM    1  C   UNL     1       5.661  31.464  58.375  1.00  0.00     0.270 C 
HETATM    2  N   UNL     1       4.583  31.457  59.243  1.00  0.00    -0.262 N 
HETATM    3  O   UNL     1       6.483  32.372  58.280  1.00  0.00    -0.266 OA
HETATM    4  H   UNL     1       3.867  30.735  59.254  1.00  0.00     0.190 HD
ENDROOT
BRANCH   2   5
HETATM    5  N   UNL     1       4.408  32.477  60.190  1.00  0.00    -0.270 N 
HETATM    6  C   UNL     1       3.834  33.691  59.818  1.00  0.00     0.113 C 
HETATM    7  C   UNL     1       4.238  34.715  60.597  1.00  0.00     0.097 C 
HETATM    8  C   UNL     1       5.240  34.137  61.525  1.00  0.00     0.186 C 
HETATM    9  O   UNL     1       5.828  34.791  62.378  1.00  0.00    -0.290 OA
HETATM   10  C   UNL     1       5.433  32.664  61.227  1.00  0.00     0.234 C 
BRANCH   6  11
HETATM   11  N   UNL     1       2.953  33.772  58.762  1.00  0.00    -0.286 NA
HETATM   12  H   UNL     1       3.469  33.809  57.886  1.00  0.00     0.125 HD
HETATM   13  H   UNL     1       2.311  32.969  58.768  1.00  0.00     0.125 HD
ENDBRANCH   6  11
BRANCH   7  14
HETATM   14  C   UNL     1       3.814  36.053  60.534  1.00  0.00     0.146 A 
HETATM   15  N   UNL     1       2.801  36.610  59.892  1.00  0.00    -0.228 NA
HETATM   16  C   UNL     1       2.847  37.948  60.210  1.00  0.00     0.086 A 
HETATM   17  C   UNL     1       3.905  38.218  61.069  1.00  0.00     0.062 A 
HETATM   18  C   UNL     1       2.011  38.998  59.804  1.00  0.00     0.034 A 
HETATM   19  N   UNL     1       4.505  37.001  61.256  1.00  0.00    -0.338 N 
HETATM   20  C   UNL     1       4.187  39.491  61.567  1.00  0.00     0.032 A 
HETATM   21  H   UNL     1       5.315  36.813  61.836  1.00  0.00     0.167 HD
HETATM   22  C   UNL     1       3.340  40.527  61.153  1.00  0.00     0.002 A 
HETATM   23  C   UNL     1       2.271  40.288  60.287  1.00  0.00     0.002 A 
ENDBRANCH   7  14
ENDBRANCH   2   5
BRANCH   1  24
HETATM   24  C   UNL     1       5.754  30.294  57.464  1.00  0.00     0.033 A 
HETATM   25  C   UNL     1       7.019  29.916  56.999  1.00  0.00     0.017 A 
HETATM   26  C   UNL     1       7.152  28.824  56.139  1.00  0.00     0.010 A 
HETATM   27  C   UNL     1       6.025  28.090  55.741  1.00  0.00    -0.034 A 
HETATM   28  C   UNL     1       4.764  28.455  56.237  1.00  0.00     0.010 A 
HETATM   29  C   UNL     1       4.626  29.553  57.092  1.00  0.00     0.017 A 
BRANCH  27  30
HETATM   30  C   UNL     1       6.185  26.907  54.816  1.00  0.00     0.214 C 
BRANCH  30  31
HETATM   31  O   UNL     1       7.055  25.965  55.440  1.00  0.00    -0.347 OA
BRANCH  31  32
HETATM   32  C   UNL     1       7.375  24.844  54.726  1.00  0.00     0.070 A 
HETATM   33  C   UNL     1       7.509  24.761  53.342  1.00  0.00     0.037 A 
HETATM   34  C   UNL     1       7.851  23.545  52.740  1.00  0.00     0.015 A 
HETATM   35  C   UNL     1       8.060  22.392  53.511  1.00  0.00    -0.026 A 
HETATM   36  C   UNL     1       8.404  21.165  52.920  1.00  0.00     0.012 A 
HETATM   37  C   UNL     1       7.918  22.468  54.914  1.00  0.00    -0.023 A 
HETATM   38  C   UNL     1       8.605  20.028  53.703  1.00  0.00     0.001 A 
HETATM   39  C   UNL     1       8.464  20.102  55.086  1.00  0.00     0.001 A 
HETATM   40  C   UNL     1       8.123  21.315  55.688  1.00  0.00     0.012 A 
HETATM   41  C   UNL     1       7.575  23.698  55.502  1.00  0.00     0.049 A 
ENDBRANCH  31  32
ENDBRANCH  30  31
ENDBRANCH  27  30
ENDBRANCH   1  24
TORSDOF 7
ENDMDL
MODEL 8
REMARK VINA RESULT:     -10.1      3.625     13.198
REMARK  7 active torsions:
REMARK  status: ('A' for Active; 'I' for Inactive)
REMARK    1  A    between atoms: C_9  and  O_10 
REMARK    2  A    between atoms: O_10  and  C_11 
REMARK    3  A    between atoms: C_11  and  C_12 
REMARK    4  A    between atoms: C_15  and  C_16 
REMARK       I    between atoms: C_16  and  N_17 
REMARK    5  A    between atoms: N_17  and  N_18 
REMARK    6  A    between atoms: C_19  and  N_20 
REMARK    7  A    between atoms: C_21  and  C_22 
ROOT
HETATM    1  C   UNL     1       7.113  29.081  57.329  1.00  0.00     0.270 C 
HETATM    2  N   UNL     1       5.954  28.326  57.286  1.00  0.00    -0.262 N 
HETATM    3  O   UNL     1       8.091  28.912  56.606  1.00  0.00    -0.266 OA
HETATM    4  H   UNL     1       5.185  28.427  57.944  1.00  0.00     0.190 HD
ENDROOT
BRANCH   2   5
HETATM    5  N   UNL     1       5.764  27.345  56.301  1.00  0.00    -0.270 N 
HETATM    6  C   UNL     1       6.332  26.081  56.450  1.00  0.00     0.113 C 
HETATM    7  C   UNL     1       6.568  25.478  55.266  1.00  0.00     0.097 C 
HETATM    8  C   UNL     1       6.195  26.473  54.232  1.00  0.00     0.186 C 
HETATM    9  O   UNL     1       6.288  26.264  53.028  1.00  0.00    -0.290 OA
HETATM   10  C   UNL     1       5.729  27.755  54.890  1.00  0.00     0.234 C 
BRANCH   6  11
HETATM   11  N   UNL     1       6.596  25.556  57.696  1.00  0.00    -0.286 NA
HETATM   12  H   UNL     1       7.204  26.187  58.212  1.00  0.00     0.125 HD
HETATM   13  H   UNL     1       5.720  25.398  58.211  1.00  0.00     0.125 HD
ENDBRANCH   6  11
BRANCH   7  14
HETATM   14  C   UNL     1       7.077  24.186  55.055  1.00  0.00     0.146 A 
HETATM   15  N   UNL     1       7.439  23.248  55.913  1.00  0.00    -0.228 NA
HETATM   16  C   UNL     1       7.836  22.175  55.150  1.00  0.00     0.086 A 
HETATM   17  C   UNL     1       7.708  22.455  53.795  1.00  0.00     0.062 A 
HETATM   18  C   UNL     1       8.314  20.917  55.545  1.00  0.00     0.034 A 
HETATM   19  N   UNL     1       7.229  23.738  53.762  1.00  0.00    -0.338 N 
HETATM   20  C   UNL     1       8.027  21.544  52.786  1.00  0.00     0.032 A 
HETATM   21  H   UNL     1       7.008  24.275  52.931  1.00  0.00     0.167 HD
HETATM   22  C   UNL     1       8.502  20.293  53.200  1.00  0.00     0.002 A 
HETATM   23  C   UNL     1       8.644  19.982  54.554  1.00  0.00     0.002 A 
ENDBRANCH   7  14
ENDBRANCH   2   5
BRANCH   1  24
HETATM   24  C   UNL     1       7.156  30.123  58.388  1.00  0.00     0.033 A 
HETATM   25  C   UNL     1       6.123  31.064  58.434  1.00  0.00     0.017 A 
HETATM   26  C   UNL     1       6.126  32.062  59.410  1.00  0.00     0.010 A 
HETATM   27  C   UNL     1       7.157  32.126  60.359  1.00  0.00    -0.034 A 
HETATM   28  C   UNL     1       8.173  31.159  60.328  1.00  0.00     0.010 A 
HETATM   29  C   UNL     1       8.177  30.163  59.346  1.00  0.00     0.017 A 
BRANCH  27  30
HETATM   30  C   UNL     1       7.143  33.207  61.414  1.00  0.00     0.214 C 
BRANCH  30  31
HETATM   31  O   UNL     1       5.791  33.436  61.803  1.00  0.00    -0.347 OA
BRANCH  31  32
HETATM   32  C   UNL     1       5.370  34.736  61.863  1.00  0.00     0.070 A 
HETATM   33  C   UNL     1       5.811  35.701  62.765  1.00  0.00     0.037 A 
HETATM   34  C   UNL     1       5.301  37.003  62.708  1.00  0.00     0.015 A 
HETATM   35  C   UNL     1       4.339  37.359  61.750  1.00  0.00    -0.026 A 
HETATM   36  C   UNL     1       3.819  38.661  61.681  1.00  0.00     0.012 A 
HETATM   37  C   UNL     1       3.884  36.383  60.838  1.00  0.00    -0.023 A 
HETATM   38  C   UNL     1       2.861  38.997  60.722  1.00  0.00     0.001 A 
HETATM   39  C   UNL     1       2.411  38.035  59.824  1.00  0.00     0.001 A 
HETATM   40  C   UNL     1       2.919  36.735  59.880  1.00  0.00     0.012 A 
HETATM   41  C   UNL     1       4.408  35.081  60.909  1.00  0.00     0.049 A 
ENDBRANCH  31  32
ENDBRANCH  30  31
ENDBRANCH  27  30
ENDBRANCH   1  24
TORSDOF 7
ENDMDL
MODEL 9
REMARK VINA RESULT:     -10.0      2.526      3.829
REMARK  7 active torsions:
REMARK  status: ('A' for Active; 'I' for Inactive)
REMARK    1  A    between atoms: C_9  and  O_10 
REMARK    2  A    between atoms: O_10  and  C_11 
REMARK    3  A    between atoms: C_11  and  C_12 
REMARK    4  A    between atoms: C_15  and  C_16 
REMARK       I    between atoms: C_16  and  N_17 
REMARK    5  A    between atoms: N_17  and  N_18 
REMARK    6  A    between atoms: C_19  and  N_20 
REMARK    7  A    between atoms: C_21  and  C_22 
ROOT
HETATM    1  C   UNL     1       5.371  31.812  58.148  1.00  0.00     0.270 C 
HETATM    2  N   UNL     1       4.652  31.560  59.304  1.00  0.00    -0.262 N 
HETATM    3  O   UNL     1       5.778  32.916  57.798  1.00  0.00    -0.266 OA
HETATM    4  H   UNL     1       4.254  30.655  59.539  1.00  0.00     0.190 HD
ENDROOT
BRANCH   2   5
HETATM    5  N   UNL     1       4.422  32.571  60.248  1.00  0.00    -0.270 N 
HETATM    6  C   UNL     1       5.144  32.597  61.440  1.00  0.00     0.113 C 
HETATM    7  C   UNL     1       4.471  33.203  62.440  1.00  0.00     0.097 C 
HETATM    8  C   UNL     1       3.141  33.539  61.876  1.00  0.00     0.186 C 
HETATM    9  O   UNL     1       2.258  34.099  62.516  1.00  0.00    -0.290 OA
HETATM   10  C   UNL     1       3.050  33.061  60.442  1.00  0.00     0.234 C 
BRANCH   6  11
HETATM   11  N   UNL     1       6.406  32.050  61.525  1.00  0.00    -0.286 NA
HETATM   12  H   UNL     1       6.375  31.072  61.249  1.00  0.00     0.125 HD
HETATM   13  H   UNL     1       7.063  32.571  60.931  1.00  0.00     0.125 HD
ENDBRANCH   6  11
BRANCH   7  14
HETATM   14  C   UNL     1       4.925  33.450  63.746  1.00  0.00     0.146 A 
HETATM   15  N   UNL     1       6.151  33.574  64.227  1.00  0.00    -0.228 NA
HETATM   16  C   UNL     1       6.002  33.837  65.569  1.00  0.00     0.086 A 
HETATM   17  C   UNL     1       4.658  33.881  65.920  1.00  0.00     0.062 A 
HETATM   18  C   UNL     1       6.973  34.055  66.557  1.00  0.00     0.034 A 
HETATM   19  N   UNL     1       3.996  33.629  64.747  1.00  0.00    -0.338 N 
HETATM   20  C   UNL     1       4.208  34.140  67.215  1.00  0.00     0.032 A 
HETATM   21  H   UNL     1       2.991  33.589  64.620  1.00  0.00     0.167 HD
HETATM   22  C   UNL     1       5.192  34.358  68.188  1.00  0.00     0.002 A 
HETATM   23  C   UNL     1       6.551  34.316  67.867  1.00  0.00     0.002 A 
ENDBRANCH   7  14
ENDBRANCH   2   5
BRANCH   1  24
HETATM   24  C   UNL     1       5.589  30.638  57.264  1.00  0.00     0.033 A 
HETATM   25  C   UNL     1       6.537  29.684  57.652  1.00  0.00     0.017 A 
HETATM   26  C   UNL     1       6.775  28.567  56.849  1.00  0.00     0.010 A 
HETATM   27  C   UNL     1       6.064  28.383  55.654  1.00  0.00    -0.034 A 
HETATM   28  C   UNL     1       5.093  29.327  55.288  1.00  0.00     0.010 A 
HETATM   29  C   UNL     1       4.857  30.451  56.085  1.00  0.00     0.017 A 
BRANCH  27  30
HETATM   30  C   UNL     1       6.329  27.166  54.799  1.00  0.00     0.214 C 
BRANCH  30  31
HETATM   31  O   UNL     1       5.086  26.717  54.264  1.00  0.00    -0.347 OA
BRANCH  31  32
HETATM   32  C   UNL     1       5.014  26.554  52.908  1.00  0.00     0.070 A 
HETATM   33  C   UNL     1       4.910  25.341  52.231  1.00  0.00     0.037 A 
HETATM   34  C   UNL     1       4.835  25.320  50.834  1.00  0.00     0.015 A 
HETATM   35  C   UNL     1       4.868  26.510  50.091  1.00  0.00    -0.026 A 
HETATM   36  C   UNL     1       4.793  26.504  48.689  1.00  0.00     0.012 A 
HETATM   37  C   UNL     1       4.981  27.742  50.773  1.00  0.00    -0.023 A 
HETATM   38  C   UNL     1       4.829  27.698  47.967  1.00  0.00     0.001 A 
HETATM   39  C   UNL     1       4.942  28.912  48.638  1.00  0.00     0.001 A 
HETATM   40  C   UNL     1       5.016  28.935  50.032  1.00  0.00     0.012 A 
HETATM   41  C   UNL     1       5.053  27.744  52.176  1.00  0.00     0.049 A 
ENDBRANCH  31  32
ENDBRANCH  30  31
ENDBRANCH  27  30
ENDBRANCH   1  24
TORSDOF 7
ENDMDL
MODEL 10
REMARK VINA RESULT:     -10.0      3.574     13.522
REMARK  7 active torsions:
REMARK  status: ('A' for Active; 'I' for Inactive)
REMARK    1  A    between atoms: C_9  and  O_10 
REMARK    2  A    between atoms: O_10  and  C_11 
REMARK    3  A    between atoms: C_11  and  C_12 
REMARK    4  A    between atoms: C_15  and  C_16 
REMARK       I    between atoms: C_16  and  N_17 
REMARK    5  A    between atoms: N_17  and  N_18 
REMARK    6  A    between atoms: C_19  and  N_20 
REMARK    7  A    between atoms: C_21  and  C_22 
ROOT
HETATM    1  C   UNL     1       7.909  30.859  59.012  1.00  0.00     0.270 C 
HETATM    2  N   UNL     1       7.101  29.855  58.507  1.00  0.00    -0.262 N 
HETATM    3  O   UNL     1       9.043  31.116  58.618  1.00  0.00    -0.266 OA
HETATM    4  H   UNL     1       6.196  29.603  58.897  1.00  0.00     0.190 HD
ENDROOT
BRANCH   2   5
HETATM    5  N   UNL     1       7.494  29.100  57.392  1.00  0.00    -0.270 N 
HETATM    6  C   UNL     1       6.810  29.222  56.183  1.00  0.00     0.113 C 
HETATM    7  C   UNL     1       6.887  28.105  55.431  1.00  0.00     0.097 C 
HETATM    8  C   UNL     1       7.626  27.120  56.257  1.00  0.00     0.186 C 
HETATM    9  O   UNL     1       7.876  25.979  55.885  1.00  0.00    -0.290 OA
HETATM   10  C   UNL     1       7.977  27.727  57.599  1.00  0.00     0.234 C 
BRANCH   6  11
HETATM   11  N   UNL     1       6.149  30.383  55.849  1.00  0.00    -0.286 NA
HETATM   12  H   UNL     1       5.146  30.215  55.832  1.00  0.00     0.125 HD
HETATM   13  H   UNL     1       6.377  31.131  56.518  1.00  0.00     0.125 HD
ENDBRANCH   6  11
BRANCH   7  14
HETATM   14  C   UNL     1       6.362  27.908  54.142  1.00  0.00     0.146 A 
HETATM   15  N   UNL     1       6.044  28.775  53.196  1.00  0.00    -0.228 NA
HETATM   16  C   UNL     1       5.603  28.023  52.133  1.00  0.00     0.086 A 
HETATM   17  C   UNL     1       5.658  26.666  52.427  1.00  0.00     0.062 A 
HETATM   18  C   UNL     1       5.141  28.430  50.872  1.00  0.00     0.034 A 
HETATM   19  N   UNL     1       6.139  26.620  53.709  1.00  0.00    -0.338 N 
HETATM   20  C   UNL     1       5.281  25.666  51.529  1.00  0.00     0.032 A 
HETATM   21  H   UNL     1       6.317  25.784  54.255  1.00  0.00     0.167 HD
HETATM   22  C   UNL     1       4.825  26.091  50.275  1.00  0.00     0.002 A 
HETATM   23  C   UNL     1       4.755  27.448  49.949  1.00  0.00     0.002 A 
ENDBRANCH   7  14
ENDBRANCH   2   5
BRANCH   1  24
HETATM   24  C   UNL     1       7.343  31.616  60.158  1.00  0.00     0.033 A 
HETATM   25  C   UNL     1       6.053  32.142  60.033  1.00  0.00     0.017 A 
HETATM   26  C   UNL     1       5.485  32.863  61.085  1.00  0.00     0.010 A 
HETATM   27  C   UNL     1       6.194  33.059  62.279  1.00  0.00    -0.034 A 
HETATM   28  C   UNL     1       7.475  32.501  62.410  1.00  0.00     0.010 A 
HETATM   29  C   UNL     1       8.050  31.785  61.355  1.00  0.00     0.017 A 
BRANCH  27  30
HETATM   30  C   UNL     1       5.563  33.835  63.411  1.00  0.00     0.214 C 
BRANCH  30  31
HETATM   31  O   UNL     1       6.563  34.075  64.400  1.00  0.00    -0.347 OA
BRANCH  31  32
HETATM   32  C   UNL     1       6.152  34.120  65.704  1.00  0.00     0.070 A 
HETATM   33  C   UNL     1       4.848  33.944  66.160  1.00  0.00     0.037 A 
HETATM   34  C   UNL     1       4.567  34.006  67.530  1.00  0.00     0.015 A 
HETATM   35  C   UNL     1       5.586  34.249  68.464  1.00  0.00    -0.026 A 
HETATM   36  C   UNL     1       5.319  34.313  69.841  1.00  0.00     0.012 A 
HETATM   37  C   UNL     1       6.908  34.435  68.006  1.00  0.00    -0.023 A 
HETATM   38  C   UNL     1       6.345  34.558  70.755  1.00  0.00     0.001 A 
HETATM   39  C   UNL     1       7.648  34.744  70.305  1.00  0.00     0.001 A 
HETATM   40  C   UNL     1       7.929  34.682  68.938  1.00  0.00     0.012 A 
HETATM   41  C   UNL     1       7.172  34.368  66.627  1.00  0.00     0.049 A 
ENDBRANCH  31  32
ENDBRANCH  30  31
ENDBRANCH  27  30
ENDBRANCH   1  24
TORSDOF 7
ENDMDL
