MODEL 1
REMARK VINA RESULT:     -12.2      0.000      0.000
REMARK  8 active torsions:
REMARK  status: ('A' for Active; 'I' for Inactive)
REMARK    1  A    between atoms: C_3  and  S_4 
REMARK    2  A    between atoms: S_4  and  N_5 
REMARK    3  A    between atoms: N_5  and  C_6 
REMARK    4  A    between atoms: C_6  and  C_7 
REMARK    5  A    between atoms: C_20  and  C_21 
REMARK    6  A    between atoms: C_25  and  N_26 
REMARK    7  A    between atoms: N_26  and  C_27 
REMARK    8  A    between atoms: C_27  and  C_28 
ROOT
HETATM    1  C   UNL     1      10.747  29.849  56.998  1.00  0.00     0.050 C 
HETATM    2  C   UNL     1       9.625  30.404  57.830  1.00  0.00    -0.039 A 
HETATM    3  C   UNL     1       8.293  29.967  57.754  1.00  0.00     0.081 A 
HETATM    4  C   UNL     1       7.297  30.579  58.540  1.00  0.00     0.039 A 
HETATM    5  C   UNL     1       7.603  31.581  59.476  1.00  0.00    -0.003 A 
HETATM    6  C   UNL     1       8.943  31.985  59.568  1.00  0.00     0.014 A 
HETATM    7  C   UNL     1       9.928  31.427  58.745  1.00  0.00     0.009 A 
ENDROOT
BRANCH   5   8
HETATM    8  C   UNL     1       6.567  32.093  60.396  1.00  0.00     0.098 C 
HETATM    9  N   UNL     1       5.358  32.198  59.808  1.00  0.00    -0.172 NA
HETATM   10  N   UNL     1       4.309  32.521  60.538  1.00  0.00    -0.266 N 
HETATM   11  H   UNL     1       3.426  32.652  60.052  1.00  0.00     0.190 HD
HETATM   12  C   UNL     1       4.337  32.682  61.873  1.00  0.00     0.108 C 
HETATM   13  C   UNL     1       5.609  32.700  62.510  1.00  0.00     0.016 A 
HETATM   14  C   UNL     1       6.761  32.402  61.751  1.00  0.00     0.009 A 
HETATM   15  C   UNL     1       5.776  33.012  63.883  1.00  0.00     0.016 A 
HETATM   16  C   UNL     1       8.029  32.444  62.385  1.00  0.00     0.015 A 
HETATM   17  C   UNL     1       8.160  32.749  63.739  1.00  0.00     0.001 A 
HETATM   18  C   UNL     1       7.032  33.030  64.490  1.00  0.00     0.001 A 
BRANCH  12  19
HETATM   19  N   UNL     1       3.165  32.922  62.603  1.00  0.00    -0.273 NA
HETATM   20  H   UNL     1       2.448  32.234  62.366  1.00  0.00     0.129 HD
BRANCH  19  21
HETATM   21  C   UNL     1       2.559  34.249  62.725  1.00  0.00     0.132 C 
BRANCH  21  22
HETATM   22  C   UNL     1       3.250  35.079  63.777  1.00  0.00    -0.045 A 
HETATM   23  C   UNL     1       3.151  34.737  65.135  1.00  0.00     0.008 A 
HETATM   24  C   UNL     1       3.800  35.501  66.105  1.00  0.00     0.001 A 
HETATM   25  C   UNL     1       4.568  36.602  65.731  1.00  0.00     0.000 A 
HETATM   26  C   UNL     1       4.695  36.938  64.386  1.00  0.00     0.001 A 
HETATM   27  C   UNL     1       4.044  36.180  63.414  1.00  0.00     0.008 A 
ENDBRANCH  21  22
ENDBRANCH  19  21
ENDBRANCH  12  19
ENDBRANCH   5   8
BRANCH   3  28
HETATM   28  S   UNL     1       7.759  28.608  56.709  1.00  0.00     0.242 S 
HETATM   29  O   UNL     1       6.348  28.399  56.956  1.00  0.00    -0.206 OA
HETATM   30  O   UNL     1       8.275  28.802  55.376  1.00  0.00    -0.206 OA
BRANCH  28  31
HETATM   31  N   UNL     1       8.615  27.310  57.394  1.00  0.00    -0.208 NA
HETATM   32  H   UNL     1       9.130  27.618  58.222  1.00  0.00     0.140 HD
BRANCH  31  33
HETATM   33  C   UNL     1       7.797  26.115  57.659  1.00  0.00     0.182 C 
BRANCH  33  34
HETATM   34  C   UNL     1       8.041  25.110  56.587  1.00  0.00     0.119 A 
HETATM   35  N   UNL     1       8.802  24.034  56.671  1.00  0.00    -0.232 NA
HETATM   36  C   UNL     1       8.657  23.392  55.463  1.00  0.00     0.085 A 
HETATM   37  C   UNL     1       7.814  24.105  54.618  1.00  0.00     0.062 A 
HETATM   38  C   UNL     1       9.211  22.184  55.012  1.00  0.00     0.034 A 
HETATM   39  N   UNL     1       7.447  25.203  55.352  1.00  0.00    -0.342 N 
HETATM   40  C   UNL     1       7.485  23.686  53.327  1.00  0.00     0.032 A 
HETATM   41  H   UNL     1       6.838  25.950  55.044  1.00  0.00     0.167 HD
HETATM   42  C   UNL     1       8.045  22.478  52.897  1.00  0.00     0.002 A 
HETATM   43  C   UNL     1       8.893  21.736  53.724  1.00  0.00     0.002 A 
ENDBRANCH  33  34
ENDBRANCH  31  33
ENDBRANCH  28  31
ENDBRANCH   3  28
TORSDOF 8
ENDMDL
MODEL 2
REMARK VINA RESULT:     -12.1      4.049      6.549
REMARK  8 active torsions:
REMARK  status: ('A' for Active; 'I' for Inactive)
REMARK    1  A    between atoms: C_3  and  S_4 
REMARK    2  A    between atoms: S_4  and  N_5 
REMARK    3  A    between atoms: N_5  and  C_6 
REMARK    4  A    between atoms: C_6  and  C_7 
REMARK    5  A    between atoms: C_20  and  C_21 
REMARK    6  A    between atoms: C_25  and  N_26 
REMARK    7  A    between atoms: N_26  and  C_27 
REMARK    8  A    between atoms: C_27  and  C_28 
ROOT
HETATM    1  C   UNL     1       7.213  23.292  54.857  1.00  0.00     0.050 C 
HETATM    2  C   UNL     1       7.311  24.702  55.371  1.00  0.00    -0.039 A 
HETATM    3  C   UNL     1       6.830  25.829  54.686  1.00  0.00     0.081 A 
HETATM    4  C   UNL     1       7.010  27.119  55.223  1.00  0.00     0.039 A 
HETATM    5  C   UNL     1       7.597  27.322  56.483  1.00  0.00    -0.003 A 
HETATM    6  C   UNL     1       8.043  26.185  57.173  1.00  0.00     0.014 A 
HETATM    7  C   UNL     1       7.926  24.905  56.618  1.00  0.00     0.009 A 
ENDROOT
BRANCH   5   8
HETATM    8  C   UNL     1       7.631  28.669  57.089  1.00  0.00     0.098 C 
HETATM    9  N   UNL     1       6.403  29.119  57.417  1.00  0.00    -0.172 NA
HETATM   10  N   UNL     1       6.286  30.252  58.082  1.00  0.00    -0.266 N 
HETATM   11  H   UNL     1       5.345  30.593  58.258  1.00  0.00     0.190 HD
HETATM   12  C   UNL     1       7.326  30.972  58.539  1.00  0.00     0.108 C 
HETATM   13  C   UNL     1       8.630  30.595  58.111  1.00  0.00     0.016 A 
HETATM   14  C   UNL     1       8.790  29.411  57.359  1.00  0.00     0.009 A 
HETATM   15  C   UNL     1       9.785  31.364  58.402  1.00  0.00     0.016 A 
HETATM   16  C   UNL     1      10.089  29.054  56.914  1.00  0.00     0.015 A 
HETATM   17  C   UNL     1      11.206  29.827  57.221  1.00  0.00     0.001 A 
HETATM   18  C   UNL     1      11.055  30.983  57.968  1.00  0.00     0.001 A 
BRANCH  12  19
HETATM   19  N   UNL     1       7.132  32.112  59.330  1.00  0.00    -0.273 NA
HETATM   20  H   UNL     1       8.009  32.396  59.771  1.00  0.00     0.129 HD
BRANCH  19  21
HETATM   21  C   UNL     1       6.031  32.241  60.288  1.00  0.00     0.132 C 
BRANCH  21  22
HETATM   22  C   UNL     1       6.531  32.623  61.658  1.00  0.00    -0.045 A 
HETATM   23  C   UNL     1       5.772  33.466  62.484  1.00  0.00     0.008 A 
HETATM   24  C   UNL     1       6.232  33.809  63.756  1.00  0.00     0.001 A 
HETATM   25  C   UNL     1       7.442  33.301  64.224  1.00  0.00     0.000 A 
HETATM   26  C   UNL     1       8.193  32.443  63.425  1.00  0.00     0.001 A 
HETATM   27  C   UNL     1       7.739  32.101  62.151  1.00  0.00     0.008 A 
ENDBRANCH  21  22
ENDBRANCH  19  21
ENDBRANCH  12  19
ENDBRANCH   5   8
BRANCH   3  28
HETATM   28  S   UNL     1       5.938  25.732  53.130  1.00  0.00     0.242 S 
HETATM   29  O   UNL     1       6.914  25.526  52.082  1.00  0.00    -0.206 OA
HETATM   30  O   UNL     1       4.800  24.861  53.289  1.00  0.00    -0.206 OA
BRANCH  28  31
HETATM   31  N   UNL     1       5.341  27.317  52.995  1.00  0.00    -0.208 NA
HETATM   32  H   UNL     1       5.557  27.854  53.838  1.00  0.00     0.140 HD
BRANCH  31  33
HETATM   33  C   UNL     1       5.750  28.018  51.767  1.00  0.00     0.182 C 
BRANCH  33  34
HETATM   34  C   UNL     1       4.800  27.679  50.672  1.00  0.00     0.119 A 
HETATM   35  N   UNL     1       3.663  28.292  50.395  1.00  0.00    -0.232 NA
HETATM   36  C   UNL     1       3.179  27.668  49.268  1.00  0.00     0.085 A 
HETATM   37  C   UNL     1       4.024  26.637  48.869  1.00  0.00     0.062 A 
HETATM   38  C   UNL     1       2.022  27.931  48.519  1.00  0.00     0.034 A 
HETATM   39  N   UNL     1       5.039  26.655  49.788  1.00  0.00    -0.342 N 
HETATM   40  C   UNL     1       3.782  25.834  47.752  1.00  0.00     0.032 A 
HETATM   41  H   UNL     1       5.835  26.030  49.811  1.00  0.00     0.167 HD
HETATM   42  C   UNL     1       2.624  26.114  47.017  1.00  0.00     0.002 A 
HETATM   43  C   UNL     1       1.758  27.145  47.390  1.00  0.00     0.002 A 
ENDBRANCH  33  34
ENDBRANCH  31  33
ENDBRANCH  28  31
ENDBRANCH   3  28
TORSDOF 8
ENDMDL
MODEL 3
REMARK VINA RESULT:     -11.8      3.473     10.191
REMARK  8 active torsions:
REMARK  status: ('A' for Active; 'I' for Inactive)
REMARK    1  A    between atoms: C_3  and  S_4 
REMARK    2  A    between atoms: S_4  and  N_5 
REMARK    3  A    between atoms: N_5  and  C_6 
REMARK    4  A    between atoms: C_6  and  C_7 
REMARK    5  A    between atoms: C_20  and  C_21 
REMARK    6  A    between atoms: C_25  and  N_26 
REMARK    7  A    between atoms: N_26  and  C_27 
REMARK    8  A    between atoms: C_27  and  C_28 
ROOT
HETATM    1  C   UNL     1       3.072  35.870  57.764  1.00  0.00     0.050 C 
HETATM    2  C   UNL     1       3.472  34.425  57.654  1.00  0.00    -0.039 A 
HETATM    3  C   UNL     1       3.396  33.501  58.709  1.00  0.00     0.081 A 
HETATM    4  C   UNL     1       3.840  32.176  58.528  1.00  0.00     0.039 A 
HETATM    5  C   UNL     1       4.295  31.710  57.283  1.00  0.00    -0.003 A 
HETATM    6  C   UNL     1       4.334  32.634  56.229  1.00  0.00     0.014 A 
HETATM    7  C   UNL     1       3.955  33.968  56.416  1.00  0.00     0.009 A 
ENDROOT
BRANCH   5   8
HETATM    8  C   UNL     1       4.605  30.280  57.083  1.00  0.00     0.098 C 
HETATM    9  N   UNL     1       3.576  29.598  56.541  1.00  0.00    -0.172 NA
HETATM   10  N   UNL     1       3.748  28.339  56.187  1.00  0.00    -0.266 N 
HETATM   11  H   UNL     1       2.935  27.838  55.840  1.00  0.00     0.190 HD
HETATM   12  C   UNL     1       4.923  27.688  56.254  1.00  0.00     0.108 C 
HETATM   13  C   UNL     1       5.997  28.332  56.930  1.00  0.00     0.016 A 
HETATM   14  C   UNL     1       5.835  29.666  57.363  1.00  0.00     0.009 A 
HETATM   15  C   UNL     1       7.232  27.688  57.197  1.00  0.00     0.016 A 
HETATM   16  C   UNL     1       6.900  30.295  58.058  1.00  0.00     0.015 A 
HETATM   17  C   UNL     1       8.105  29.637  58.300  1.00  0.00     0.001 A 
HETATM   18  C   UNL     1       8.272  28.333  57.867  1.00  0.00     0.001 A 
BRANCH  12  19
HETATM   19  N   UNL     1       5.063  26.384  55.764  1.00  0.00    -0.273 NA
HETATM   20  H   UNL     1       5.638  25.823  56.395  1.00  0.00     0.129 HD
BRANCH  19  21
HETATM   21  C   UNL     1       5.416  26.087  54.375  1.00  0.00     0.132 C 
BRANCH  21  22
HETATM   22  C   UNL     1       6.349  24.906  54.280  1.00  0.00    -0.045 A 
HETATM   23  C   UNL     1       6.764  24.230  55.438  1.00  0.00     0.008 A 
HETATM   24  C   UNL     1       7.618  23.131  55.346  1.00  0.00     0.001 A 
HETATM   25  C   UNL     1       8.053  22.683  54.099  1.00  0.00     0.000 A 
HETATM   26  C   UNL     1       7.629  23.330  52.941  1.00  0.00     0.001 A 
HETATM   27  C   UNL     1       6.778  24.431  53.029  1.00  0.00     0.008 A 
ENDBRANCH  21  22
ENDBRANCH  19  21
ENDBRANCH  12  19
ENDBRANCH   5   8
BRANCH   3  28
HETATM   28  S   UNL     1       2.715  33.899  60.322  1.00  0.00     0.242 S 
HETATM   29  O   UNL     1       3.479  35.006  60.855  1.00  0.00    -0.206 OA
HETATM   30  O   UNL     1       1.276  33.943  60.233  1.00  0.00    -0.206 OA
BRANCH  28  31
HETATM   31  N   UNL     1       3.120  32.503  61.202  1.00  0.00    -0.208 NA
HETATM   32  H   UNL     1       3.500  31.785  60.582  1.00  0.00     0.140 HD
BRANCH  31  33
HETATM   33  C   UNL     1       3.986  32.749  62.367  1.00  0.00     0.182 C 
BRANCH  33  34
HETATM   34  C   UNL     1       5.391  32.407  62.012  1.00  0.00     0.119 A 
HETATM   35  N   UNL     1       6.147  33.011  61.113  1.00  0.00    -0.232 NA
HETATM   36  C   UNL     1       7.373  32.389  61.192  1.00  0.00     0.085 A 
HETATM   37  C   UNL     1       7.353  31.370  62.139  1.00  0.00     0.062 A 
HETATM   38  C   UNL     1       8.560  32.645  60.490  1.00  0.00     0.034 A 
HETATM   39  N   UNL     1       6.076  31.392  62.635  1.00  0.00    -0.342 N 
HETATM   40  C   UNL     1       8.460  30.572  62.432  1.00  0.00     0.032 A 
HETATM   41  H   UNL     1       5.700  30.775  63.344  1.00  0.00     0.167 HD
HETATM   42  C   UNL     1       9.636  30.845  61.723  1.00  0.00     0.002 A 
HETATM   43  C   UNL     1       9.689  31.864  60.769  1.00  0.00     0.002 A 
ENDBRANCH  33  34
ENDBRANCH  31  33
ENDBRANCH  28  31
ENDBRANCH   3  28
TORSDOF 8
ENDMDL
MODEL 4
REMARK VINA RESULT:     -11.6      3.695     10.519
REMARK  8 active torsions:
REMARK  status: ('A' for Active; 'I' for Inactive)
REMARK    1  A    between atoms: C_3  and  S_4 
REMARK    2  A    between atoms: S_4  and  N_5 
REMARK    3  A    between atoms: N_5  and  C_6 
REMARK    4  A    between atoms: C_6  and  C_7 
REMARK    5  A    between atoms: C_20  and  C_21 
REMARK    6  A    between atoms: C_25  and  N_26 
REMARK    7  A    between atoms: N_26  and  C_27 
REMARK    8  A    between atoms: C_27  and  C_28 
ROOT
HETATM    1  C   UNL     1       2.313  33.824  56.322  1.00  0.00     0.050 C 
HETATM    2  C   UNL     1       3.035  32.508  56.241  1.00  0.00    -0.039 A 
HETATM    3  C   UNL     1       3.827  31.976  57.270  1.00  0.00     0.081 A 
HETATM    4  C   UNL     1       4.507  30.755  57.087  1.00  0.00     0.039 A 
HETATM    5  C   UNL     1       4.359  29.993  55.916  1.00  0.00    -0.003 A 
HETATM    6  C   UNL     1       3.537  30.519  54.908  1.00  0.00     0.014 A 
HETATM    7  C   UNL     1       2.909  31.761  55.057  1.00  0.00     0.009 A 
ENDROOT
BRANCH   5   8
HETATM    8  C   UNL     1       4.956  28.645  55.814  1.00  0.00     0.098 C 
HETATM    9  N   UNL     1       5.467  28.216  56.986  1.00  0.00    -0.172 NA
HETATM   10  N   UNL     1       5.920  26.981  57.081  1.00  0.00    -0.266 N 
HETATM   11  H   UNL     1       6.354  26.711  57.959  1.00  0.00     0.190 HD
HETATM   12  C   UNL     1       5.839  26.068  56.097  1.00  0.00     0.108 C 
HETATM   13  C   UNL     1       5.420  26.516  54.812  1.00  0.00     0.016 A 
HETATM   14  C   UNL     1       4.969  27.845  54.662  1.00  0.00     0.009 A 
HETATM   15  C   UNL     1       5.441  25.684  53.664  1.00  0.00     0.016 A 
HETATM   16  C   UNL     1       4.576  28.294  53.375  1.00  0.00     0.015 A 
HETATM   17  C   UNL     1       4.602  27.449  52.266  1.00  0.00     0.001 A 
HETATM   18  C   UNL     1       5.032  26.142  52.412  1.00  0.00     0.001 A 
BRANCH  12  19
HETATM   19  N   UNL     1       6.244  24.742  56.297  1.00  0.00    -0.273 NA
HETATM   20  H   UNL     1       5.862  24.379  57.172  1.00  0.00     0.129 HD
BRANCH  19  21
HETATM   21  C   UNL     1       7.631  24.299  56.139  1.00  0.00     0.132 C 
BRANCH  21  22
HETATM   22  C   UNL     1       7.729  23.094  55.240  1.00  0.00    -0.045 A 
HETATM   23  C   UNL     1       7.928  23.248  53.859  1.00  0.00     0.008 A 
HETATM   24  C   UNL     1       8.029  22.130  53.031  1.00  0.00     0.001 A 
HETATM   25  C   UNL     1       7.951  20.848  53.572  1.00  0.00     0.000 A 
HETATM   26  C   UNL     1       7.778  20.680  54.943  1.00  0.00     0.001 A 
HETATM   27  C   UNL     1       7.672  21.795  55.774  1.00  0.00     0.008 A 
ENDBRANCH  21  22
ENDBRANCH  19  21
ENDBRANCH  12  19
ENDBRANCH   5   8
BRANCH   3  28
HETATM   28  S   UNL     1       4.012  32.756  58.877  1.00  0.00     0.242 S 
HETATM   29  O   UNL     1       4.750  33.985  58.679  1.00  0.00    -0.206 OA
HETATM   30  O   UNL     1       2.745  32.733  59.566  1.00  0.00    -0.206 OA
BRANCH  28  31
HETATM   31  N   UNL     1       5.031  31.648  59.664  1.00  0.00    -0.208 NA
HETATM   32  H   UNL     1       5.162  30.811  59.091  1.00  0.00     0.140 HD
BRANCH  31  33
HETATM   33  C   UNL     1       6.311  32.216  60.121  1.00  0.00     0.182 C 
BRANCH  33  34
HETATM   34  C   UNL     1       7.421  31.618  59.329  1.00  0.00     0.119 A 
HETATM   35  N   UNL     1       8.613  32.146  59.117  1.00  0.00    -0.232 NA
HETATM   36  C   UNL     1       9.305  31.201  58.395  1.00  0.00     0.085 A 
HETATM   37  C   UNL     1       8.510  30.089  58.139  1.00  0.00     0.062 A 
HETATM   38  C   UNL     1      10.626  31.217  57.924  1.00  0.00     0.034 A 
HETATM   39  N   UNL     1       7.310  30.386  58.731  1.00  0.00    -0.342 N 
HETATM   40  C   UNL     1       8.954  28.974  57.427  1.00  0.00     0.032 A 
HETATM   41  H   UNL     1       6.486  29.799  58.737  1.00  0.00     0.167 HD
HETATM   42  C   UNL     1      10.276  29.007  56.968  1.00  0.00     0.002 A 
HETATM   43  C   UNL     1      11.102  30.108  57.212  1.00  0.00     0.002 A 
ENDBRANCH  33  34
ENDBRANCH  31  33
ENDBRANCH  28  31
ENDBRANCH   3  28
TORSDOF 8
ENDMDL
MODEL 5
REMARK VINA RESULT:     -11.5      2.998      5.464
REMARK  8 active torsions:
REMARK  status: ('A' for Active; 'I' for Inactive)
REMARK    1  A    between atoms: C_3  and  S_4 
REMARK    2  A    between atoms: S_4  and  N_5 
REMARK    3  A    between atoms: N_5  and  C_6 
REMARK    4  A    between atoms: C_6  and  C_7 
REMARK    5  A    between atoms: C_20  and  C_21 
REMARK    6  A    between atoms: C_25  and  N_26 
REMARK    7  A    between atoms: N_26  and  C_27 
REMARK    8  A    between atoms: C_27  and  C_28 
ROOT
HETATM    1  C   UNL     1       3.046  28.667  52.160  1.00  0.00     0.050 C 
HETATM    2  C   UNL     1       3.941  28.923  53.341  1.00  0.00    -0.039 A 
HETATM    3  C   UNL     1       5.002  28.088  53.725  1.00  0.00     0.081 A 
HETATM    4  C   UNL     1       5.759  28.383  54.877  1.00  0.00     0.039 A 
HETATM    5  C   UNL     1       5.538  29.547  55.630  1.00  0.00    -0.003 A 
HETATM    6  C   UNL     1       4.497  30.392  55.216  1.00  0.00     0.014 A 
HETATM    7  C   UNL     1       3.700  30.074  54.111  1.00  0.00     0.009 A 
ENDROOT
BRANCH   5   8
HETATM    8  C   UNL     1       6.446  29.910  56.738  1.00  0.00     0.098 C 
HETATM    9  N   UNL     1       5.787  30.393  57.811  1.00  0.00    -0.172 NA
HETATM   10  N   UNL     1       6.453  30.641  58.922  1.00  0.00    -0.266 N 
HETATM   11  H   UNL     1       5.936  31.062  59.689  1.00  0.00     0.190 HD
HETATM   12  C   UNL     1       7.757  30.368  59.098  1.00  0.00     0.108 C 
HETATM   13  C   UNL     1       8.511  29.974  57.957  1.00  0.00     0.016 A 
HETATM   14  C   UNL     1       7.838  29.742  56.738  1.00  0.00     0.009 A 
HETATM   15  C   UNL     1       9.919  29.807  57.987  1.00  0.00     0.016 A 
HETATM   16  C   UNL     1       8.597  29.372  55.597  1.00  0.00     0.015 A 
HETATM   17  C   UNL     1       9.980  29.210  55.659  1.00  0.00     0.001 A 
HETATM   18  C   UNL     1      10.641  29.425  56.856  1.00  0.00     0.001 A 
BRANCH  12  19
HETATM   19  N   UNL     1       8.380  30.558  60.339  1.00  0.00    -0.273 NA
HETATM   20  H   UNL     1       7.808  30.170  61.091  1.00  0.00     0.129 HD
BRANCH  19  21
HETATM   21  C   UNL     1       8.948  31.841  60.758  1.00  0.00     0.132 C 
BRANCH  21  22
HETATM   22  C   UNL     1       8.087  32.515  61.796  1.00  0.00    -0.045 A 
HETATM   23  C   UNL     1       6.968  33.271  61.413  1.00  0.00     0.008 A 
HETATM   24  C   UNL     1       6.167  33.885  62.377  1.00  0.00     0.001 A 
HETATM   25  C   UNL     1       6.462  33.737  63.731  1.00  0.00     0.000 A 
HETATM   26  C   UNL     1       7.554  32.969  64.126  1.00  0.00     0.001 A 
HETATM   27  C   UNL     1       8.360  32.357  63.165  1.00  0.00     0.008 A 
ENDBRANCH  21  22
ENDBRANCH  19  21
ENDBRANCH  12  19
ENDBRANCH   5   8
BRANCH   3  28
HETATM   28  S   UNL     1       5.501  26.635  52.795  1.00  0.00     0.242 S 
HETATM   29  O   UNL     1       4.690  25.527  53.254  1.00  0.00    -0.206 OA
HETATM   30  O   UNL     1       5.600  26.976  51.397  1.00  0.00    -0.206 OA
BRANCH  28  31
HETATM   31  N   UNL     1       7.083  26.406  53.369  1.00  0.00    -0.208 NA
HETATM   32  H   UNL     1       7.077  26.220  54.374  1.00  0.00     0.140 HD
BRANCH  31  33
HETATM   33  C   UNL     1       7.863  25.405  52.622  1.00  0.00     0.182 C 
BRANCH  33  34
HETATM   34  C   UNL     1       8.022  24.185  53.460  1.00  0.00     0.119 A 
HETATM   35  N   UNL     1       8.099  24.136  54.777  1.00  0.00    -0.232 NA
HETATM   36  C   UNL     1       8.171  22.797  55.088  1.00  0.00     0.085 A 
HETATM   37  C   UNL     1       8.166  22.018  53.935  1.00  0.00     0.062 A 
HETATM   38  C   UNL     1       8.237  22.164  56.338  1.00  0.00     0.034 A 
HETATM   39  N   UNL     1       8.086  22.926  52.912  1.00  0.00    -0.342 N 
HETATM   40  C   UNL     1       8.227  20.624  53.950  1.00  0.00     0.032 A 
HETATM   41  H   UNL     1       8.068  22.711  51.924  1.00  0.00     0.167 HD
HETATM   42  C   UNL     1       8.288  20.011  55.207  1.00  0.00     0.002 A 
HETATM   43  C   UNL     1       8.292  20.766  56.383  1.00  0.00     0.002 A 
ENDBRANCH  33  34
ENDBRANCH  31  33
ENDBRANCH  28  31
ENDBRANCH   3  28
TORSDOF 8
ENDMDL
MODEL 6
REMARK VINA RESULT:     -11.3      2.542     11.967
REMARK  8 active torsions:
REMARK  status: ('A' for Active; 'I' for Inactive)
REMARK    1  A    between atoms: C_3  and  S_4 
REMARK    2  A    between atoms: S_4  and  N_5 
REMARK    3  A    between atoms: N_5  and  C_6 
REMARK    4  A    between atoms: C_6  and  C_7 
REMARK    5  A    between atoms: C_20  and  C_21 
REMARK    6  A    between atoms: C_25  and  N_26 
REMARK    7  A    between atoms: N_26  and  C_27 
REMARK    8  A    between atoms: C_27  and  C_28 
ROOT
HETATM    1  C   UNL     1       8.294  32.279  59.900  1.00  0.00     0.050 C 
HETATM    2  C   UNL     1       7.896  31.149  58.992  1.00  0.00    -0.039 A 
HETATM    3  C   UNL     1       6.586  30.921  58.542  1.00  0.00     0.081 A 
HETATM    4  C   UNL     1       6.297  29.805  57.730  1.00  0.00     0.039 A 
HETATM    5  C   UNL     1       7.304  28.936  57.279  1.00  0.00    -0.003 A 
HETATM    6  C   UNL     1       8.614  29.195  57.708  1.00  0.00     0.014 A 
HETATM    7  C   UNL     1       8.900  30.263  58.566  1.00  0.00     0.009 A 
ENDROOT
BRANCH   5   8
HETATM    8  C   UNL     1       6.996  27.870  56.304  1.00  0.00     0.098 C 
HETATM    9  N   UNL     1       7.713  26.748  56.520  1.00  0.00    -0.172 NA
HETATM   10  N   UNL     1       7.455  25.669  55.808  1.00  0.00    -0.266 N 
HETATM   11  H   UNL     1       8.055  24.861  55.954  1.00  0.00     0.190 HD
HETATM   12  C   UNL     1       6.455  25.573  54.914  1.00  0.00     0.108 C 
HETATM   13  C   UNL     1       5.758  26.766  54.571  1.00  0.00     0.016 A 
HETATM   14  C   UNL     1       6.038  27.952  55.282  1.00  0.00     0.009 A 
HETATM   15  C   UNL     1       4.791  26.819  53.535  1.00  0.00     0.016 A 
HETATM   16  C   UNL     1       5.358  29.144  54.921  1.00  0.00     0.015 A 
HETATM   17  C   UNL     1       4.408  29.163  53.901  1.00  0.00     0.001 A 
HETATM   18  C   UNL     1       4.122  27.999  53.210  1.00  0.00     0.001 A 
BRANCH  12  19
HETATM   19  N   UNL     1       6.169  24.364  54.267  1.00  0.00    -0.273 NA
HETATM   20  H   UNL     1       5.849  23.664  54.939  1.00  0.00     0.129 HD
BRANCH  19  21
HETATM   21  C   UNL     1       7.075  23.743  53.298  1.00  0.00     0.132 C 
BRANCH  21  22
HETATM   22  C   UNL     1       7.641  22.447  53.820  1.00  0.00    -0.045 A 
HETATM   23  C   UNL     1       7.649  22.175  55.196  1.00  0.00     0.008 A 
HETATM   24  C   UNL     1       8.164  20.970  55.675  1.00  0.00     0.001 A 
HETATM   25  C   UNL     1       8.659  20.017  54.786  1.00  0.00     0.000 A 
HETATM   26  C   UNL     1       8.633  20.263  53.416  1.00  0.00     0.001 A 
HETATM   27  C   UNL     1       8.123  21.469  52.934  1.00  0.00     0.008 A 
ENDBRANCH  21  22
ENDBRANCH  19  21
ENDBRANCH  12  19
ENDBRANCH   5   8
BRANCH   3  28
HETATM   28  S   UNL     1       5.209  32.011  58.915  1.00  0.00     0.242 S 
HETATM   29  O   UNL     1       5.613  33.356  58.566  1.00  0.00    -0.206 OA
HETATM   30  O   UNL     1       3.991  31.429  58.409  1.00  0.00    -0.206 OA
BRANCH  28  31
HETATM   31  N   UNL     1       5.152  31.898  60.610  1.00  0.00    -0.208 NA
HETATM   32  H   UNL     1       6.083  32.034  61.010  1.00  0.00     0.140 HD
BRANCH  31  33
HETATM   33  C   UNL     1       4.142  32.762  61.243  1.00  0.00     0.182 C 
BRANCH  33  34
HETATM   34  C   UNL     1       4.613  33.150  62.601  1.00  0.00     0.119 A 
HETATM   35  N   UNL     1       3.860  33.441  63.646  1.00  0.00    -0.232 NA
HETATM   36  C   UNL     1       4.742  33.669  64.678  1.00  0.00     0.085 A 
HETATM   37  C   UNL     1       6.058  33.543  64.244  1.00  0.00     0.062 A 
HETATM   38  C   UNL     1       4.494  33.984  66.022  1.00  0.00     0.034 A 
HETATM   39  N   UNL     1       5.949  33.228  62.915  1.00  0.00    -0.342 N 
HETATM   40  C   UNL     1       7.162  33.718  65.080  1.00  0.00     0.032 A 
HETATM   41  H   UNL     1       6.716  33.069  62.275  1.00  0.00     0.167 HD
HETATM   42  C   UNL     1       6.894  34.029  66.418  1.00  0.00     0.002 A 
HETATM   43  C   UNL     1       5.583  34.159  66.885  1.00  0.00     0.002 A 
ENDBRANCH  33  34
ENDBRANCH  31  33
ENDBRANCH  28  31
ENDBRANCH   3  28
TORSDOF 8
ENDMDL
MODEL 7
REMARK VINA RESULT:     -11.1      3.018     11.754
REMARK  8 active torsions:
REMARK  status: ('A' for Active; 'I' for Inactive)
REMARK    1  A    between atoms: C_3  and  S_4 
REMARK    2  A    between atoms: S_4  and  N_5 
REMARK    3  A    between atoms: N_5  and  C_6 
REMARK    4  A    between atoms: C_6  and  C_7 
REMARK    5  A    between atoms: C_20  and  C_21 
REMARK    6  A    between atoms: C_25  and  N_26 
REMARK    7  A    between atoms: N_26  and  C_27 
REMARK    8  A    between atoms: C_27  and  C_28 
ROOT
HETATM    1  C   UNL     1       2.859  32.793  54.992  1.00  0.00     0.050 C 
HETATM    2  C   UNL     1       3.637  31.524  55.202  1.00  0.00    -0.039 A 
HETATM    3  C   UNL     1       4.425  31.258  56.332  1.00  0.00     0.081 A 
HETATM    4  C   UNL     1       5.161  30.058  56.421  1.00  0.00     0.039 A 
HETATM    5  C   UNL     1       5.073  29.061  55.436  1.00  0.00    -0.003 A 
HETATM    6  C   UNL     1       4.256  29.325  54.327  1.00  0.00     0.014 A 
HETATM    7  C   UNL     1       3.572  30.540  54.201  1.00  0.00     0.009 A 
ENDROOT
BRANCH   5   8
HETATM    8  C   UNL     1       5.729  27.752  55.630  1.00  0.00     0.098 C 
HETATM    9  N   UNL     1       6.362  27.661  56.817  1.00  0.00    -0.172 NA
HETATM   10  N   UNL     1       6.886  26.508  57.185  1.00  0.00    -0.266 N 
HETATM   11  H   UNL     1       7.409  26.491  58.056  1.00  0.00     0.190 HD
HETATM   12  C   UNL     1       6.767  25.366  56.485  1.00  0.00     0.108 C 
HETATM   13  C   UNL     1       6.215  25.447  55.176  1.00  0.00     0.016 A 
HETATM   14  C   UNL     1       5.684  26.676  54.731  1.00  0.00     0.009 A 
HETATM   15  C   UNL     1       6.178  24.342  54.288  1.00  0.00     0.016 A 
HETATM   16  C   UNL     1       5.156  26.758  53.416  1.00  0.00     0.015 A 
HETATM   17  C   UNL     1       5.128  25.652  52.569  1.00  0.00     0.001 A 
HETATM   18  C   UNL     1       5.638  24.441  53.006  1.00  0.00     0.001 A 
BRANCH  12  19
HETATM   19  N   UNL     1       7.257  24.152  56.983  1.00  0.00    -0.273 NA
HETATM   20  H   UNL     1       7.032  24.053  57.975  1.00  0.00     0.129 HD
BRANCH  19  21
HETATM   21  C   UNL     1       8.622  23.680  56.736  1.00  0.00     0.132 C 
BRANCH  21  22
HETATM   22  C   UNL     1       8.632  22.428  55.897  1.00  0.00    -0.045 A 
HETATM   23  C   UNL     1       8.993  22.480  54.542  1.00  0.00     0.008 A 
HETATM   24  C   UNL     1       9.012  21.318  53.771  1.00  0.00     0.001 A 
HETATM   25  C   UNL     1       8.690  20.090  54.346  1.00  0.00     0.000 A 
HETATM   26  C   UNL     1       8.354  20.020  55.695  1.00  0.00     0.001 A 
HETATM   27  C   UNL     1       8.330  21.181  56.469  1.00  0.00     0.008 A 
ENDBRANCH  21  22
ENDBRANCH  19  21
ENDBRANCH  12  19
ENDBRANCH   5   8
BRANCH   3  28
HETATM   28  S   UNL     1       4.539  32.366  57.740  1.00  0.00     0.242 S 
HETATM   29  O   UNL     1       5.378  33.479  57.350  1.00  0.00    -0.206 OA
HETATM   30  O   UNL     1       3.223  32.566  58.295  1.00  0.00    -0.206 OA
BRANCH  28  31
HETATM   31  N   UNL     1       5.407  31.409  58.843  1.00  0.00    -0.208 NA
HETATM   32  H   UNL     1       5.415  30.432  58.542  1.00  0.00     0.140 HD
BRANCH  31  33
HETATM   33  C   UNL     1       6.758  31.908  59.150  1.00  0.00     0.182 C 
BRANCH  33  34
HETATM   34  C   UNL     1       6.792  32.390  60.558  1.00  0.00     0.119 A 
HETATM   35  N   UNL     1       7.621  31.998  61.508  1.00  0.00    -0.232 NA
HETATM   36  C   UNL     1       7.309  32.770  62.604  1.00  0.00     0.085 A 
HETATM   37  C   UNL     1       6.252  33.629  62.323  1.00  0.00     0.062 A 
HETATM   38  C   UNL     1       7.892  32.800  63.879  1.00  0.00     0.034 A 
HETATM   39  N   UNL     1       5.931  33.357  61.019  1.00  0.00    -0.342 N 
HETATM   40  C   UNL     1       5.727  34.529  63.251  1.00  0.00     0.032 A 
HETATM   41  H   UNL     1       5.194  33.795  60.482  1.00  0.00     0.167 HD
HETATM   42  C   UNL     1       6.324  34.547  64.517  1.00  0.00     0.002 A 
HETATM   43  C   UNL     1       7.390  33.699  64.828  1.00  0.00     0.002 A 
ENDBRANCH  33  34
ENDBRANCH  31  33
ENDBRANCH  28  31
ENDBRANCH   3  28
TORSDOF 8
ENDMDL
MODEL 8
REMARK VINA RESULT:     -11.0      2.136      3.272
REMARK  8 active torsions:
REMARK  status: ('A' for Active; 'I' for Inactive)
REMARK    1  A    between atoms: C_3  and  S_4 
REMARK    2  A    between atoms: S_4  and  N_5 
REMARK    3  A    between atoms: N_5  and  C_6 
REMARK    4  A    between atoms: C_6  and  C_7 
REMARK    5  A    between atoms: C_20  and  C_21 
REMARK    6  A    between atoms: C_25  and  N_26 
REMARK    7  A    between atoms: N_26  and  C_27 
REMARK    8  A    between atoms: C_27  and  C_28 
ROOT
HETATM    1  C   UNL     1       4.948  28.048  53.603  1.00  0.00     0.050 C 
HETATM    2  C   UNL     1       5.142  28.827  54.873  1.00  0.00    -0.039 A 
HETATM    3  C   UNL     1       5.492  28.255  56.106  1.00  0.00     0.081 A 
HETATM    4  C   UNL     1       5.606  29.059  57.258  1.00  0.00     0.039 A 
HETATM    5  C   UNL     1       5.455  30.455  57.205  1.00  0.00    -0.003 A 
HETATM    6  C   UNL     1       5.140  31.019  55.960  1.00  0.00     0.014 A 
HETATM    7  C   UNL     1       4.962  30.220  54.824  1.00  0.00     0.009 A 
ENDROOT
BRANCH   5   8
HETATM    8  C   UNL     1       5.734  31.288  58.393  1.00  0.00     0.098 C 
HETATM    9  N   UNL     1       4.617  31.829  58.919  1.00  0.00    -0.172 NA
HETATM   10  N   UNL     1       4.694  32.494  60.056  1.00  0.00    -0.266 N 
HETATM   11  H   UNL     1       3.845  32.941  60.391  1.00  0.00     0.190 HD
HETATM   12  C   UNL     1       5.814  32.610  60.790  1.00  0.00     0.108 C 
HETATM   13  C   UNL     1       7.034  32.159  60.211  1.00  0.00     0.016 A 
HETATM   14  C   UNL     1       6.996  31.481  58.974  1.00  0.00     0.009 A 
HETATM   15  C   UNL     1       8.296  32.365  60.823  1.00  0.00     0.016 A 
HETATM   16  C   UNL     1       8.217  31.055  58.389  1.00  0.00     0.015 A 
HETATM   17  C   UNL     1       9.442  31.267  59.018  1.00  0.00     0.001 A 
HETATM   18  C   UNL     1       9.482  31.921  60.237  1.00  0.00     0.001 A 
BRANCH  12  19
HETATM   19  N   UNL     1       5.804  33.240  62.041  1.00  0.00    -0.273 NA
HETATM   20  H   UNL     1       6.751  33.302  62.420  1.00  0.00     0.129 HD
BRANCH  19  21
HETATM   21  C   UNL     1       4.866  32.882  63.107  1.00  0.00     0.132 C 
BRANCH  21  22
HETATM   22  C   UNL     1       5.343  33.370  64.452  1.00  0.00    -0.045 A 
HETATM   23  C   UNL     1       4.423  33.695  65.460  1.00  0.00     0.008 A 
HETATM   24  C   UNL     1       4.867  34.136  66.707  1.00  0.00     0.001 A 
HETATM   25  C   UNL     1       6.233  34.240  66.967  1.00  0.00     0.000 A 
HETATM   26  C   UNL     1       7.157  33.897  65.984  1.00  0.00     0.001 A 
HETATM   27  C   UNL     1       6.716  33.460  64.735  1.00  0.00     0.008 A 
ENDBRANCH  21  22
ENDBRANCH  19  21
ENDBRANCH  12  19
ENDBRANCH   5   8
BRANCH   3  28
HETATM   28  S   UNL     1       5.851  26.508  56.318  1.00  0.00     0.242 S 
HETATM   29  O   UNL     1       5.266  26.094  57.575  1.00  0.00    -0.206 OA
HETATM   30  O   UNL     1       5.571  25.813  55.085  1.00  0.00    -0.206 OA
BRANCH  28  31
HETATM   31  N   UNL     1       7.539  26.540  56.504  1.00  0.00    -0.208 NA
HETATM   32  H   UNL     1       7.844  27.450  56.855  1.00  0.00     0.140 HD
BRANCH  31  33
HETATM   33  C   UNL     1       8.085  25.425  57.295  1.00  0.00     0.182 C 
BRANCH  33  34
HETATM   34  C   UNL     1       8.166  24.211  56.437  1.00  0.00     0.119 A 
HETATM   35  N   UNL     1       8.178  22.955  56.845  1.00  0.00    -0.232 NA
HETATM   36  C   UNL     1       8.194  22.200  55.695  1.00  0.00     0.085 A 
HETATM   37  C   UNL     1       8.220  23.012  54.566  1.00  0.00     0.062 A 
HETATM   38  C   UNL     1       8.180  20.806  55.532  1.00  0.00     0.034 A 
HETATM   39  N   UNL     1       8.218  24.288  55.066  1.00  0.00    -0.342 N 
HETATM   40  C   UNL     1       8.238  22.515  53.262  1.00  0.00     0.032 A 
HETATM   41  H   UNL     1       8.241  25.142  54.524  1.00  0.00     0.167 HD
HETATM   42  C   UNL     1       8.220  21.123  53.120  1.00  0.00     0.002 A 
HETATM   43  C   UNL     1       8.190  20.280  54.234  1.00  0.00     0.002 A 
ENDBRANCH  33  34
ENDBRANCH  31  33
ENDBRANCH  28  31
ENDBRANCH   3  28
TORSDOF 8
ENDMDL
MODEL 9
REMARK VINA RESULT:     -10.8      6.931     11.164
REMARK  8 active torsions:
REMARK  status: ('A' for Active; 'I' for Inactive)
REMARK    1  A    between atoms: C_3  and  S_4 
REMARK    2  A    between atoms: S_4  and  N_5 
REMARK    3  A    between atoms: N_5  and  C_6 
REMARK    4  A    between atoms: C_6  and  C_7 
REMARK    5  A    between atoms: C_20  and  C_21 
REMARK    6  A    between atoms: C_25  and  N_26 
REMARK    7  A    between atoms: N_26  and  C_27 
REMARK    8  A    between atoms: C_27  and  C_28 
ROOT
HETATM    1  C   UNL     1       2.532  33.154  54.051  1.00  0.00     0.050 C 
HETATM    2  C   UNL     1       3.188  31.808  54.189  1.00  0.00    -0.039 A 
HETATM    3  C   UNL     1       3.983  31.212  53.198  1.00  0.00     0.081 A 
HETATM    4  C   UNL     1       4.519  29.923  53.395  1.00  0.00     0.039 A 
HETATM    5  C   UNL     1       4.348  29.227  54.603  1.00  0.00    -0.003 A 
HETATM    6  C   UNL     1       3.579  29.848  55.598  1.00  0.00     0.014 A 
HETATM    7  C   UNL     1       2.991  31.100  55.386  1.00  0.00     0.009 A 
ENDROOT
BRANCH   5   8
HETATM    8  C   UNL     1       5.050  27.948  54.840  1.00  0.00     0.098 C 
HETATM    9  N   UNL     1       5.561  27.862  56.085  1.00  0.00    -0.172 NA
HETATM   10  N   UNL     1       6.105  26.728  56.484  1.00  0.00    -0.266 N 
HETATM   11  H   UNL     1       6.535  26.718  57.404  1.00  0.00     0.190 HD
HETATM   12  C   UNL     1       6.120  25.599  55.755  1.00  0.00     0.108 C 
HETATM   13  C   UNL     1       5.702  25.683  54.397  1.00  0.00     0.016 A 
HETATM   14  C   UNL     1       5.155  26.894  53.921  1.00  0.00     0.009 A 
HETATM   15  C   UNL     1       5.817  24.599  53.489  1.00  0.00     0.016 A 
HETATM   16  C   UNL     1       4.762  26.980  52.560  1.00  0.00     0.015 A 
HETATM   17  C   UNL     1       4.881  25.895  51.694  1.00  0.00     0.001 A 
HETATM   18  C   UNL     1       5.407  24.702  52.160  1.00  0.00     0.001 A 
BRANCH  12  19
HETATM   19  N   UNL     1       6.621  24.400  56.278  1.00  0.00    -0.273 NA
HETATM   20  H   UNL     1       6.291  24.261  57.235  1.00  0.00     0.129 HD
BRANCH  19  21
HETATM   21  C   UNL     1       8.029  24.012  56.178  1.00  0.00     0.132 C 
BRANCH  21  22
HETATM   22  C   UNL     1       8.193  22.703  55.449  1.00  0.00    -0.045 A 
HETATM   23  C   UNL     1       7.937  21.487  56.101  1.00  0.00     0.008 A 
HETATM   24  C   UNL     1       8.080  20.277  55.421  1.00  0.00     0.001 A 
HETATM   25  C   UNL     1       8.461  20.268  54.080  1.00  0.00     0.000 A 
HETATM   26  C   UNL     1       8.694  21.468  53.414  1.00  0.00     0.001 A 
HETATM   27  C   UNL     1       8.557  22.679  54.092  1.00  0.00     0.008 A 
ENDBRANCH  21  22
ENDBRANCH  19  21
ENDBRANCH  12  19
ENDBRANCH   5   8
BRANCH   3  28
HETATM   28  S   UNL     1       4.409  32.022  51.654  1.00  0.00     0.242 S 
HETATM   29  O   UNL     1       3.250  31.950  50.791  1.00  0.00    -0.206 OA
HETATM   30  O   UNL     1       5.066  33.274  51.939  1.00  0.00    -0.206 OA
BRANCH  28  31
HETATM   31  N   UNL     1       5.590  30.965  51.043  1.00  0.00    -0.208 NA
HETATM   32  H   UNL     1       5.477  30.031  51.443  1.00  0.00     0.140 HD
BRANCH  31  33
HETATM   33  C   UNL     1       5.679  30.935  49.574  1.00  0.00     0.182 C 
BRANCH  33  34
HETATM   34  C   UNL     1       5.019  29.699  49.069  1.00  0.00     0.119 A 
HETATM   35  N   UNL     1       5.613  28.573  48.719  1.00  0.00    -0.232 NA
HETATM   36  C   UNL     1       4.591  27.711  48.389  1.00  0.00     0.085 A 
HETATM   37  C   UNL     1       3.354  28.335  48.515  1.00  0.00     0.062 A 
HETATM   38  C   UNL     1       4.641  26.371  47.978  1.00  0.00     0.034 A 
HETATM   39  N   UNL     1       3.655  29.604  48.934  1.00  0.00    -0.342 N 
HETATM   40  C   UNL     1       2.142  27.696  48.248  1.00  0.00     0.032 A 
HETATM   41  H   UNL     1       2.990  30.343  49.122  1.00  0.00     0.167 HD
HETATM   42  C   UNL     1       2.212  26.359  47.842  1.00  0.00     0.002 A 
HETATM   43  C   UNL     1       3.440  25.704  47.710  1.00  0.00     0.002 A 
ENDBRANCH  33  34
ENDBRANCH  31  33
ENDBRANCH  28  31
ENDBRANCH   3  28
TORSDOF 8
ENDMDL
MODEL 10
REMARK VINA RESULT:     -10.8      3.443     11.533
REMARK  8 active torsions:
REMARK  status: ('A' for Active; 'I' for Inactive)
REMARK    1  A    between atoms: C_3  and  S_4 
REMARK    2  A    between atoms: S_4  and  N_5 
REMARK    3  A    between atoms: N_5  and  C_6 
REMARK    4  A    between atoms: C_6  and  C_7 
REMARK    5  A    between atoms: C_20  and  C_21 
REMARK    6  A    between atoms: C_25  and  N_26 
REMARK    7  A    between atoms: N_26  and  C_27 
REMARK    8  A    between atoms: C_27  and  C_28 
ROOT
HETATM    1  C   UNL     1      10.670  31.544  58.963  1.00  0.00     0.050 C 
HETATM    2  C   UNL     1       9.744  30.639  58.199  1.00  0.00    -0.039 A 
HETATM    3  C   UNL     1       8.353  30.595  58.383  1.00  0.00     0.081 A 
HETATM    4  C   UNL     1       7.568  29.678  57.655  1.00  0.00     0.039 A 
HETATM    5  C   UNL     1       8.125  28.841  56.674  1.00  0.00    -0.003 A 
HETATM    6  C   UNL     1       9.511  28.919  56.476  1.00  0.00     0.014 A 
HETATM    7  C   UNL     1      10.307  29.782  57.239  1.00  0.00     0.009 A 
ENDROOT
BRANCH   5   8
HETATM    8  C   UNL     1       7.259  28.005  55.818  1.00  0.00     0.098 C 
HETATM    9  N   UNL     1       6.492  28.737  54.985  1.00  0.00    -0.172 NA
HETATM   10  N   UNL     1       5.760  28.126  54.074  1.00  0.00    -0.266 N 
HETATM   11  H   UNL     1       5.148  28.704  53.505  1.00  0.00     0.190 HD
HETATM   12  C   UNL     1       5.779  26.800  53.853  1.00  0.00     0.108 C 
HETATM   13  C   UNL     1       6.479  25.984  54.787  1.00  0.00     0.016 A 
HETATM   14  C   UNL     1       7.238  26.602  55.803  1.00  0.00     0.009 A 
HETATM   15  C   UNL     1       6.443  24.567  54.746  1.00  0.00     0.016 A 
HETATM   16  C   UNL     1       7.914  25.784  56.746  1.00  0.00     0.015 A 
HETATM   17  C   UNL     1       7.865  24.393  56.676  1.00  0.00     0.001 A 
HETATM   18  C   UNL     1       7.131  23.784  55.673  1.00  0.00     0.001 A 
BRANCH  12  19
HETATM   19  N   UNL     1       5.056  26.226  52.800  1.00  0.00    -0.273 NA
HETATM   20  H   UNL     1       4.513  25.426  53.131  1.00  0.00     0.129 HD
BRANCH  19  21
HETATM   21  C   UNL     1       5.653  25.915  51.499  1.00  0.00     0.132 C 
BRANCH  21  22
HETATM   22  C   UNL     1       5.050  26.750  50.399  1.00  0.00    -0.045 A 
HETATM   23  C   UNL     1       4.513  26.141  49.254  1.00  0.00     0.008 A 
HETATM   24  C   UNL     1       3.946  26.917  48.242  1.00  0.00     0.001 A 
HETATM   25  C   UNL     1       3.892  28.304  48.368  1.00  0.00     0.000 A 
HETATM   26  C   UNL     1       4.399  28.919  49.510  1.00  0.00     0.001 A 
HETATM   27  C   UNL     1       4.970  28.148  50.522  1.00  0.00     0.008 A 
ENDBRANCH  21  22
ENDBRANCH  19  21
ENDBRANCH  12  19
ENDBRANCH   5   8
BRANCH   3  28
HETATM   28  S   UNL     1       7.469  31.689  59.498  1.00  0.00     0.242 S 
HETATM   29  O   UNL     1       8.247  32.903  59.623  1.00  0.00    -0.206 OA
HETATM   30  O   UNL     1       6.074  31.716  59.132  1.00  0.00    -0.206 OA
BRANCH  28  31
HETATM   31  N   UNL     1       7.587  30.832  60.961  1.00  0.00    -0.208 NA
HETATM   32  H   UNL     1       7.862  29.862  60.787  1.00  0.00     0.140 HD
BRANCH  31  33
HETATM   33  C   UNL     1       8.432  31.478  61.978  1.00  0.00     0.182 C 
BRANCH  33  34
HETATM   34  C   UNL     1       7.562  32.184  62.959  1.00  0.00     0.119 A 
HETATM   35  N   UNL     1       6.247  32.295  62.912  1.00  0.00    -0.232 NA
HETATM   36  C   UNL     1       5.897  32.968  64.060  1.00  0.00     0.085 A 
HETATM   37  C   UNL     1       7.024  33.298  64.806  1.00  0.00     0.062 A 
HETATM   38  C   UNL     1       4.631  33.331  64.541  1.00  0.00     0.034 A 
HETATM   39  N   UNL     1       8.072  32.801  64.076  1.00  0.00    -0.342 N 
HETATM   40  C   UNL     1       6.968  33.983  66.021  1.00  0.00     0.032 A 
HETATM   41  H   UNL     1       9.052  32.867  64.317  1.00  0.00     0.167 HD
HETATM   42  C   UNL     1       5.695  34.333  66.486  1.00  0.00     0.002 A 
HETATM   43  C   UNL     1       4.544  34.013  65.762  1.00  0.00     0.002 A 
ENDBRANCH  33  34
ENDBRANCH  31  33
ENDBRANCH  28  31
ENDBRANCH   3  28
TORSDOF 8
ENDMDL
