MODEL 1
REMARK VINA RESULT:     -11.7      0.000      0.000
REMARK  9 active torsions:
REMARK  status: ('A' for Active; 'I' for Inactive)
REMARK    1  A    between atoms: N_2  and  C_5 
REMARK    2  A    between atoms: C_10  and  N_11 
REMARK       I    between atoms: N_11  and  C_12 
REMARK    3  A    between atoms: C_12  and  C_14 
REMARK    4  A    between atoms: C_18  and  C_19 
REMARK    5  A    between atoms: C_19  and  N_20 
REMARK       I    between atoms: N_20  and  C_21 
REMARK    6  A    between atoms: C_21  and  C_23 
REMARK    7  A    between atoms: N_26  and  C_34 
REMARK    8  A    between atoms: C_27  and  C_28 
REMARK    9  A    between atoms: C_38  and  N_39 
ROOT
HETATM    1  C   UNL     1       7.833  27.605  57.008  1.00  0.00     0.161 C 
ENDROOT
BRANCH   1   2
HETATM    2  C   UNL     1       8.653  28.791  57.442  1.00  0.00    -0.040 A 
HETATM    3  C   UNL     1       9.890  29.049  56.834  1.00  0.00     0.009 A 
HETATM    4  C   UNL     1      10.642  30.163  57.204  1.00  0.00     0.002 A 
HETATM    5  C   UNL     1      10.171  31.024  58.194  1.00  0.00     0.017 A 
HETATM    6  C   UNL     1       8.942  30.780  58.823  1.00  0.00     0.033 A 
HETATM    7  C   UNL     1       8.175  29.673  58.428  1.00  0.00     0.026 A 
BRANCH   6   8
HETATM    8  C   UNL     1       8.500  31.740  59.882  1.00  0.00     0.257 C 
HETATM    9  N   UNL     1       7.571  31.255  60.776  1.00  0.00    -0.301 N 
HETATM   10  H   UNL     1       7.252  30.299  60.719  1.00  0.00     0.171 HD
HETATM   11  O   UNL     1       9.009  32.855  59.893  1.00  0.00    -0.267 OA
BRANCH   9  12
HETATM   12  C   UNL     1       7.037  31.926  61.848  1.00  0.00     0.174 A 
HETATM   13  N   UNL     1       5.773  32.298  61.862  1.00  0.00    -0.228 NA
HETATM   14  C   UNL     1       5.494  32.942  63.044  1.00  0.00     0.050 A 
HETATM   15  C   UNL     1       4.131  33.468  63.345  1.00  0.00     0.062 C 
HETATM   16  C   UNL     1       6.548  33.021  63.929  1.00  0.00     0.013 A 
HETATM   17  C   UNL     1       4.159  34.416  64.563  1.00  0.00     0.039 C 
HETATM   18  C   UNL     1       5.028  33.836  65.704  1.00  0.00     0.192 C 
HETATM   19  C   UNL     1       6.507  33.654  65.276  1.00  0.00     0.081 C 
HETATM   20  S   UNL     1       7.936  32.323  63.247  1.00  0.00    -0.055 SA
BRANCH  18  21
HETATM   21  N   UNL     1       4.876  34.681  66.972  1.00  0.00    -0.074 N 
HETATM   22  C   UNL     1       6.062  34.550  67.900  1.00  0.00     0.269 C 
HETATM   23  H   UNL     1       4.088  34.267  67.490  1.00  0.00     0.279 HD
HETATM   24  C   UNL     1       4.508  36.129  66.771  1.00  0.00     0.269 C 
ENDBRANCH  18  21
ENDBRANCH   9  12
ENDBRANCH   6   8
ENDBRANCH   1   2
BRANCH   1  25
HETATM   25  N   UNL     1       7.120  27.886  55.788  1.00  0.00    -0.351 N 
HETATM   26  C   UNL     1       5.771  27.628  55.679  1.00  0.00     0.274 C 
HETATM   27  O   UNL     1       5.082  27.297  56.638  1.00  0.00    -0.266 OA
HETATM   28  H   UNL     1       7.637  28.040  54.930  1.00  0.00     0.163 HD
BRANCH  26  29
HETATM   29  C   UNL     1       5.267  27.764  54.316  1.00  0.00     0.177 A 
HETATM   30  N   UNL     1       4.385  28.756  53.974  1.00  0.00    -0.124 NA
HETATM   31  N   UNL     1       4.103  28.636  52.690  1.00  0.00    -0.058 NA
HETATM   32  N   UNL     1       4.816  27.592  52.169  1.00  0.00    -0.188 N 
HETATM   33  C   UNL     1       5.544  26.986  53.199  1.00  0.00     0.109 A 
BRANCH  32  34
HETATM   34  C   UNL     1       4.764  27.286  50.785  1.00  0.00     0.230 A 
HETATM   35  N   UNL     1       4.440  26.068  50.353  1.00  0.00    -0.081 NA
HETATM   36  O   UNL     1       4.522  26.163  48.966  1.00  0.00    -0.103 OA
HETATM   37  N   UNL     1       4.898  27.442  48.570  1.00  0.00    -0.083 NA
HETATM   38  C   UNL     1       5.046  28.135  49.697  1.00  0.00     0.201 A 
BRANCH  38  39
HETATM   39  N   UNL     1       5.399  29.433  49.747  1.00  0.00    -0.379 N 
HETATM   40  H   UNL     1       6.382  29.684  49.739  1.00  0.00     0.158 HD
HETATM   41  H   UNL     1       4.778  30.145  50.124  1.00  0.00     0.158 HD
ENDBRANCH  38  39
ENDBRANCH  32  34
BRANCH  33  42
HETATM   42  C   UNL     1       6.369  25.790  53.068  1.00  0.00    -0.005 A 
HETATM   43  C   UNL     1       6.032  24.617  53.754  1.00  0.00     0.014 A 
HETATM   44  C   UNL     1       6.820  23.472  53.620  1.00  0.00     0.001 A 
HETATM   45  C   UNL     1       7.946  23.490  52.798  1.00  0.00     0.000 A 
HETATM   46  C   UNL     1       8.283  24.651  52.105  1.00  0.00     0.001 A 
HETATM   47  C   UNL     1       7.495  25.796  52.234  1.00  0.00     0.014 A 
ENDBRANCH  33  42
ENDBRANCH  26  29
ENDBRANCH   1  25
TORSDOF 9
ENDMDL
MODEL 2
REMARK VINA RESULT:     -11.3      3.731     13.309
REMARK  9 active torsions:
REMARK  status: ('A' for Active; 'I' for Inactive)
REMARK    1  A    between atoms: N_2  and  C_5 
REMARK    2  A    between atoms: C_10  and  N_11 
REMARK       I    between atoms: N_11  and  C_12 
REMARK    3  A    between atoms: C_12  and  C_14 
REMARK    4  A    between atoms: C_18  and  C_19 
REMARK    5  A    between atoms: C_19  and  N_20 
REMARK       I    between atoms: N_20  and  C_21 
REMARK    6  A    between atoms: C_21  and  C_23 
REMARK    7  A    between atoms: N_26  and  C_34 
REMARK    8  A    between atoms: C_27  and  C_28 
REMARK    9  A    between atoms: C_38  and  N_39 
ROOT
HETATM    1  C   UNL     1       5.312  31.842  59.126  1.00  0.00     0.161 C 
ENDROOT
BRANCH   1   2
HETATM    2  C   UNL     1       6.740  31.387  58.966  1.00  0.00    -0.040 A 
HETATM    3  C   UNL     1       7.777  32.102  59.582  1.00  0.00     0.009 A 
HETATM    4  C   UNL     1       9.098  31.672  59.470  1.00  0.00     0.002 A 
HETATM    5  C   UNL     1       9.397  30.529  58.729  1.00  0.00     0.017 A 
HETATM    6  C   UNL     1       8.377  29.805  58.095  1.00  0.00     0.033 A 
HETATM    7  C   UNL     1       7.046  30.226  58.235  1.00  0.00     0.026 A 
BRANCH   6   8
HETATM    8  C   UNL     1       8.770  28.592  57.311  1.00  0.00     0.257 C 
HETATM    9  N   UNL     1       7.862  27.557  57.321  1.00  0.00    -0.301 N 
HETATM   10  H   UNL     1       6.982  27.649  57.806  1.00  0.00     0.171 HD
HETATM   11  O   UNL     1       9.835  28.622  56.705  1.00  0.00    -0.267 OA
BRANCH   9  12
HETATM   12  C   UNL     1       7.976  26.360  56.658  1.00  0.00     0.174 A 
HETATM   13  N   UNL     1       7.642  26.247  55.388  1.00  0.00    -0.228 NA
HETATM   14  C   UNL     1       7.856  24.955  54.967  1.00  0.00     0.050 A 
HETATM   15  C   UNL     1       7.574  24.534  53.565  1.00  0.00     0.062 C 
HETATM   16  C   UNL     1       8.383  24.111  55.921  1.00  0.00     0.013 A 
HETATM   17  C   UNL     1       7.583  22.996  53.436  1.00  0.00     0.039 C 
HETATM   18  C   UNL     1       8.780  22.378  54.198  1.00  0.00     0.192 C 
HETATM   19  C   UNL     1       8.718  22.674  55.719  1.00  0.00     0.081 C 
HETATM   20  S   UNL     1       8.566  24.934  57.393  1.00  0.00    -0.055 SA
BRANCH  18  21
HETATM   21  N   UNL     1       8.894  20.882  53.888  1.00  0.00    -0.074 N 
HETATM   22  C   UNL     1       8.715  20.022  55.118  1.00  0.00     0.269 C 
HETATM   23  H   UNL     1       9.871  20.731  53.600  1.00  0.00     0.279 HD
HETATM   24  C   UNL     1       8.054  20.369  52.746  1.00  0.00     0.269 C 
ENDBRANCH  18  21
ENDBRANCH   9  12
ENDBRANCH   6   8
ENDBRANCH   1   2
BRANCH   1  25
HETATM   25  N   UNL     1       5.007  32.112  60.507  1.00  0.00    -0.351 N 
HETATM   26  C   UNL     1       4.774  33.398  60.943  1.00  0.00     0.274 C 
HETATM   27  O   UNL     1       4.663  34.347  60.174  1.00  0.00    -0.266 OA
HETATM   28  H   UNL     1       5.200  31.408  61.211  1.00  0.00     0.163 HD
BRANCH  26  29
HETATM   29  C   UNL     1       4.702  33.508  62.397  1.00  0.00     0.177 A 
HETATM   30  N   UNL     1       4.646  32.397  63.198  1.00  0.00    -0.124 NA
HETATM   31  N   UNL     1       4.585  32.794  64.455  1.00  0.00    -0.058 NA
HETATM   32  N   UNL     1       4.632  34.159  64.499  1.00  0.00    -0.188 N 
HETATM   33  C   UNL     1       4.666  34.650  63.188  1.00  0.00     0.109 A 
BRANCH  32  34
HETATM   34  C   UNL     1       4.662  34.854  65.735  1.00  0.00     0.230 A 
HETATM   35  N   UNL     1       3.712  35.730  66.064  1.00  0.00    -0.081 NA
HETATM   36  O   UNL     1       4.102  36.204  67.314  1.00  0.00    -0.103 OA
HETATM   37  N   UNL     1       5.289  35.610  67.731  1.00  0.00    -0.083 NA
HETATM   38  C   UNL     1       5.632  34.774  66.752  1.00  0.00     0.201 A 
BRANCH  38  39
HETATM   39  N   UNL     1       6.728  33.993  66.773  1.00  0.00    -0.379 N 
HETATM   40  H   UNL     1       6.960  33.436  65.957  1.00  0.00     0.158 HD
HETATM   41  H   UNL     1       7.141  33.669  67.645  1.00  0.00     0.158 HD
ENDBRANCH  38  39
ENDBRANCH  32  34
BRANCH  33  42
HETATM   42  C   UNL     1       4.641  36.058  62.805  1.00  0.00    -0.005 A 
HETATM   43  C   UNL     1       5.832  36.786  62.702  1.00  0.00     0.014 A 
HETATM   44  C   UNL     1       5.804  38.132  62.328  1.00  0.00     0.001 A 
HETATM   45  C   UNL     1       4.588  38.756  62.054  1.00  0.00     0.000 A 
HETATM   46  C   UNL     1       3.399  38.035  62.146  1.00  0.00     0.001 A 
HETATM   47  C   UNL     1       3.424  36.689  62.515  1.00  0.00     0.014 A 
ENDBRANCH  33  42
ENDBRANCH  26  29
ENDBRANCH   1  25
TORSDOF 9
ENDMDL
MODEL 3
REMARK VINA RESULT:     -11.2      3.431     12.624
REMARK  9 active torsions:
REMARK  status: ('A' for Active; 'I' for Inactive)
REMARK    1  A    between atoms: N_2  and  C_5 
REMARK    2  A    between atoms: C_10  and  N_11 
REMARK       I    between atoms: N_11  and  C_12 
REMARK    3  A    between atoms: C_12  and  C_14 
REMARK    4  A    between atoms: C_18  and  C_19 
REMARK    5  A    between atoms: C_19  and  N_20 
REMARK       I    between atoms: N_20  and  C_21 
REMARK    6  A    between atoms: C_21  and  C_23 
REMARK    7  A    between atoms: N_26  and  C_34 
REMARK    8  A    between atoms: C_27  and  C_28 
REMARK    9  A    between atoms: C_38  and  N_39 
ROOT
HETATM    1  C   UNL     1       8.461  32.123  59.625  1.00  0.00     0.161 C 
ENDROOT
BRANCH   1   2
HETATM    2  C   UNL     1       7.262  31.585  58.888  1.00  0.00    -0.040 A 
HETATM    3  C   UNL     1       6.124  32.387  58.719  1.00  0.00     0.009 A 
HETATM    4  C   UNL     1       5.022  31.912  58.010  1.00  0.00     0.002 A 
HETATM    5  C   UNL     1       5.041  30.627  57.472  1.00  0.00     0.017 A 
HETATM    6  C   UNL     1       6.164  29.803  57.638  1.00  0.00     0.033 A 
HETATM    7  C   UNL     1       7.282  30.295  58.329  1.00  0.00     0.026 A 
BRANCH   6   8
HETATM    8  C   UNL     1       6.114  28.432  57.041  1.00  0.00     0.257 C 
HETATM    9  N   UNL     1       7.334  27.873  56.731  1.00  0.00    -0.301 N 
HETATM   10  H   UNL     1       8.192  28.363  56.935  1.00  0.00     0.171 HD
HETATM   11  O   UNL     1       5.016  27.906  56.903  1.00  0.00    -0.267 OA
BRANCH   9  12
HETATM   12  C   UNL     1       7.553  26.623  56.207  1.00  0.00     0.174 A 
HETATM   13  N   UNL     1       7.408  26.386  54.919  1.00  0.00    -0.228 NA
HETATM   14  C   UNL     1       7.691  25.065  54.657  1.00  0.00     0.050 A 
HETATM   15  C   UNL     1       7.618  24.510  53.275  1.00  0.00     0.062 C 
HETATM   16  C   UNL     1       8.081  24.324  55.752  1.00  0.00     0.013 A 
HETATM   17  C   UNL     1       7.659  22.967  53.295  1.00  0.00     0.039 C 
HETATM   18  C   UNL     1       8.738  22.448  54.276  1.00  0.00     0.192 C 
HETATM   19  C   UNL     1       8.453  22.882  55.737  1.00  0.00     0.081 C 
HETATM   20  S   UNL     1       8.042  25.283  57.151  1.00  0.00    -0.055 SA
BRANCH  18  21
HETATM   21  N   UNL     1       8.908  20.933  54.129  1.00  0.00    -0.074 N 
HETATM   22  C   UNL     1       8.410  20.175  55.338  1.00  0.00     0.269 C 
HETATM   23  H   UNL     1       9.923  20.768  54.113  1.00  0.00     0.279 HD
HETATM   24  C   UNL     1       8.380  20.321  52.856  1.00  0.00     0.269 C 
ENDBRANCH  18  21
ENDBRANCH   9  12
ENDBRANCH   6   8
ENDBRANCH   1   2
BRANCH   1  25
HETATM   25  N   UNL     1       8.076  32.700  60.887  1.00  0.00    -0.351 N 
HETATM   26  C   UNL     1       7.907  31.913  62.006  1.00  0.00     0.274 C 
HETATM   27  O   UNL     1       8.215  30.726  62.030  1.00  0.00    -0.266 OA
HETATM   28  H   UNL     1       7.690  33.637  60.913  1.00  0.00     0.163 HD
BRANCH  26  29
HETATM   29  C   UNL     1       7.306  32.628  63.127  1.00  0.00     0.177 A 
HETATM   30  N   UNL     1       7.964  32.771  64.321  1.00  0.00    -0.124 NA
HETATM   31  N   UNL     1       7.189  33.452  65.144  1.00  0.00    -0.058 NA
HETATM   32  N   UNL     1       6.034  33.791  64.496  1.00  0.00    -0.188 N 
HETATM   33  C   UNL     1       6.062  33.241  63.209  1.00  0.00     0.109 A 
BRANCH  32  34
HETATM   34  C   UNL     1       5.050  34.598  65.123  1.00  0.00     0.230 A 
HETATM   35  N   UNL     1       4.111  34.067  65.905  1.00  0.00    -0.081 NA
HETATM   36  O   UNL     1       3.340  35.157  66.303  1.00  0.00    -0.103 OA
HETATM   37  N   UNL     1       3.821  36.342  65.753  1.00  0.00    -0.083 NA
HETATM   38  C   UNL     1       4.880  35.992  65.025  1.00  0.00     0.201 A 
BRANCH  38  39
HETATM   39  N   UNL     1       5.641  36.859  64.331  1.00  0.00    -0.379 N 
HETATM   40  H   UNL     1       5.238  37.736  64.018  1.00  0.00     0.158 HD
HETATM   41  H   UNL     1       6.468  36.559  63.819  1.00  0.00     0.158 HD
ENDBRANCH  38  39
ENDBRANCH  32  34
BRANCH  33  42
HETATM   42  C   UNL     1       4.982  33.308  62.231  1.00  0.00    -0.005 A 
HETATM   43  C   UNL     1       4.746  34.487  61.514  1.00  0.00     0.014 A 
HETATM   44  C   UNL     1       3.715  34.545  60.573  1.00  0.00     0.001 A 
HETATM   45  C   UNL     1       2.916  33.427  60.342  1.00  0.00     0.000 A 
HETATM   46  C   UNL     1       3.149  32.247  61.046  1.00  0.00     0.001 A 
HETATM   47  C   UNL     1       4.182  32.184  61.983  1.00  0.00     0.014 A 
ENDBRANCH  33  42
ENDBRANCH  26  29
ENDBRANCH   1  25
TORSDOF 9
ENDMDL
MODEL 4
REMARK VINA RESULT:     -10.9      3.601     12.605
REMARK  9 active torsions:
REMARK  status: ('A' for Active; 'I' for Inactive)
REMARK    1  A    between atoms: N_2  and  C_5 
REMARK    2  A    between atoms: C_10  and  N_11 
REMARK       I    between atoms: N_11  and  C_12 
REMARK    3  A    between atoms: C_12  and  C_14 
REMARK    4  A    between atoms: C_18  and  C_19 
REMARK    5  A    between atoms: C_19  and  N_20 
REMARK       I    between atoms: N_20  and  C_21 
REMARK    6  A    between atoms: C_21  and  C_23 
REMARK    7  A    between atoms: N_26  and  C_34 
REMARK    8  A    between atoms: C_27  and  C_28 
REMARK    9  A    between atoms: C_38  and  N_39 
ROOT
HETATM    1  C   UNL     1       3.722  32.790  58.334  1.00  0.00     0.161 C 
ENDROOT
BRANCH   1   2
HETATM    2  C   UNL     1       4.922  31.879  58.309  1.00  0.00    -0.040 A 
HETATM    3  C   UNL     1       6.117  32.277  58.925  1.00  0.00     0.009 A 
HETATM    4  C   UNL     1       7.223  31.429  58.938  1.00  0.00     0.002 A 
HETATM    5  C   UNL     1       7.150  30.179  58.325  1.00  0.00     0.017 A 
HETATM    6  C   UNL     1       5.968  29.765  57.693  1.00  0.00     0.033 A 
HETATM    7  C   UNL     1       4.849  30.611  57.707  1.00  0.00     0.026 A 
BRANCH   6   8
HETATM    8  C   UNL     1       5.961  28.415  57.048  1.00  0.00     0.257 C 
HETATM    9  N   UNL     1       7.200  27.859  56.816  1.00  0.00    -0.301 N 
HETATM   10  H   UNL     1       8.040  28.337  57.104  1.00  0.00     0.171 HD
HETATM   11  O   UNL     1       4.875  27.901  56.806  1.00  0.00    -0.267 OA
BRANCH   9  12
HETATM   12  C   UNL     1       7.455  26.626  56.269  1.00  0.00     0.174 A 
HETATM   13  N   UNL     1       7.352  26.419  54.972  1.00  0.00    -0.228 NA
HETATM   14  C   UNL     1       7.665  25.110  54.687  1.00  0.00     0.050 A 
HETATM   15  C   UNL     1       7.643  24.587  53.290  1.00  0.00     0.062 C 
HETATM   16  C   UNL     1       8.034  24.348  55.775  1.00  0.00     0.013 A 
HETATM   17  C   UNL     1       7.709  23.045  53.274  1.00  0.00     0.039 C 
HETATM   18  C   UNL     1       8.765  22.519  54.275  1.00  0.00     0.192 C 
HETATM   19  C   UNL     1       8.430  22.913  55.737  1.00  0.00     0.081 C 
HETATM   20  S   UNL     1       7.937  25.272  57.195  1.00  0.00    -0.055 SA
BRANCH  18  21
HETATM   21  N   UNL     1       8.965  21.011  54.097  1.00  0.00    -0.074 N 
HETATM   22  C   UNL     1       8.681  20.237  55.363  1.00  0.00     0.269 C 
HETATM   23  H   UNL     1       9.972  20.882  53.928  1.00  0.00     0.279 HD
HETATM   24  C   UNL     1       8.274  20.381  52.914  1.00  0.00     0.269 C 
ENDBRANCH  18  21
ENDBRANCH   9  12
ENDBRANCH   6   8
ENDBRANCH   1   2
BRANCH   1  25
HETATM   25  N   UNL     1       3.521  33.346  59.647  1.00  0.00    -0.351 N 
HETATM   26  C   UNL     1       3.892  34.642  59.933  1.00  0.00     0.274 C 
HETATM   27  O   UNL     1       4.263  35.428  59.069  1.00  0.00    -0.266 OA
HETATM   28  H   UNL     1       3.338  32.729  60.431  1.00  0.00     0.163 HD
BRANCH  26  29
HETATM   29  C   UNL     1       3.821  34.960  61.355  1.00  0.00     0.177 A 
HETATM   30  N   UNL     1       2.972  35.925  61.833  1.00  0.00    -0.124 NA
HETATM   31  N   UNL     1       3.120  35.999  63.142  1.00  0.00    -0.058 NA
HETATM   32  N   UNL     1       4.038  35.068  63.543  1.00  0.00    -0.188 N 
HETATM   33  C   UNL     1       4.536  34.411  62.412  1.00  0.00     0.109 A 
BRANCH  32  34
HETATM   34  C   UNL     1       4.334  34.875  64.917  1.00  0.00     0.230 A 
HETATM   35  N   UNL     1       4.164  33.691  65.505  1.00  0.00    -0.081 NA
HETATM   36  O   UNL     1       4.535  33.910  66.830  1.00  0.00    -0.103 OA
HETATM   37  N   UNL     1       4.927  35.230  67.032  1.00  0.00    -0.083 NA
HETATM   38  C   UNL     1       4.803  35.824  65.846  1.00  0.00     0.201 A 
BRANCH  38  39
HETATM   39  N   UNL     1       5.095  37.117  65.613  1.00  0.00    -0.379 N 
HETATM   40  H   UNL     1       4.838  37.534  64.724  1.00  0.00     0.158 HD
HETATM   41  H   UNL     1       5.836  37.600  66.116  1.00  0.00     0.158 HD
ENDBRANCH  38  39
ENDBRANCH  32  34
BRANCH  33  42
HETATM   42  C   UNL     1       5.592  33.404  62.410  1.00  0.00    -0.005 A 
HETATM   43  C   UNL     1       5.284  32.053  62.615  1.00  0.00     0.014 A 
HETATM   44  C   UNL     1       6.297  31.092  62.604  1.00  0.00     0.001 A 
HETATM   45  C   UNL     1       7.621  31.471  62.387  1.00  0.00     0.000 A 
HETATM   46  C   UNL     1       7.933  32.813  62.173  1.00  0.00     0.001 A 
HETATM   47  C   UNL     1       6.923  33.776  62.178  1.00  0.00     0.014 A 
ENDBRANCH  33  42
ENDBRANCH  26  29
ENDBRANCH   1  25
TORSDOF 9
ENDMDL
MODEL 5
REMARK VINA RESULT:     -10.9      3.658     13.034
REMARK  9 active torsions:
REMARK  status: ('A' for Active; 'I' for Inactive)
REMARK    1  A    between atoms: N_2  and  C_5 
REMARK    2  A    between atoms: C_10  and  N_11 
REMARK       I    between atoms: N_11  and  C_12 
REMARK    3  A    between atoms: C_12  and  C_14 
REMARK    4  A    between atoms: C_18  and  C_19 
REMARK    5  A    between atoms: C_19  and  N_20 
REMARK       I    between atoms: N_20  and  C_21 
REMARK    6  A    between atoms: C_21  and  C_23 
REMARK    7  A    between atoms: N_26  and  C_34 
REMARK    8  A    between atoms: C_27  and  C_28 
REMARK    9  A    between atoms: C_38  and  N_39 
ROOT
HETATM    1  C   UNL     1       4.817  33.461  57.841  1.00  0.00     0.161 C 
ENDROOT
BRANCH   1   2
HETATM    2  C   UNL     1       4.453  32.291  56.965  1.00  0.00    -0.040 A 
HETATM    3  C   UNL     1       3.227  32.277  56.285  1.00  0.00     0.009 A 
HETATM    4  C   UNL     1       2.894  31.216  55.445  1.00  0.00     0.002 A 
HETATM    5  C   UNL     1       3.779  30.151  55.285  1.00  0.00     0.017 A 
HETATM    6  C   UNL     1       5.006  30.137  55.964  1.00  0.00     0.033 A 
HETATM    7  C   UNL     1       5.348  31.221  56.786  1.00  0.00     0.026 A 
BRANCH   6   8
HETATM    8  C   UNL     1       5.904  28.959  55.753  1.00  0.00     0.257 C 
HETATM    9  N   UNL     1       5.283  27.804  55.334  1.00  0.00    -0.301 N 
HETATM   10  H   UNL     1       4.290  27.789  55.155  1.00  0.00     0.171 HD
HETATM   11  O   UNL     1       7.106  29.116  55.935  1.00  0.00    -0.267 OA
BRANCH   9  12
HETATM   12  C   UNL     1       5.889  26.607  55.043  1.00  0.00     0.174 A 
HETATM   13  N   UNL     1       6.496  26.409  53.890  1.00  0.00    -0.228 NA
HETATM   14  C   UNL     1       7.020  25.138  53.855  1.00  0.00     0.050 A 
HETATM   15  C   UNL     1       7.774  24.636  52.671  1.00  0.00     0.062 C 
HETATM   16  C   UNL     1       6.830  24.398  55.002  1.00  0.00     0.013 A 
HETATM   17  C   UNL     1       7.968  23.106  52.745  1.00  0.00     0.039 C 
HETATM   18  C   UNL     1       8.387  22.664  54.167  1.00  0.00     0.192 C 
HETATM   19  C   UNL     1       7.307  23.004  55.226  1.00  0.00     0.081 C 
HETATM   20  S   UNL     1       5.929  25.288  56.131  1.00  0.00    -0.055 SA
BRANCH  18  21
HETATM   21  N   UNL     1       8.777  21.183  54.171  1.00  0.00    -0.074 N 
HETATM   22  C   UNL     1       8.290  20.460  55.406  1.00  0.00     0.269 C 
HETATM   23  H   UNL     1       9.804  21.165  54.242  1.00  0.00     0.279 HD
HETATM   24  C   UNL     1       8.446  20.401  52.925  1.00  0.00     0.269 C 
ENDBRANCH  18  21
ENDBRANCH   9  12
ENDBRANCH   6   8
ENDBRANCH   1   2
BRANCH   1  25
HETATM   25  N   UNL     1       4.920  33.062  59.221  1.00  0.00    -0.351 N 
HETATM   26  C   UNL     1       3.855  33.209  60.084  1.00  0.00     0.274 C 
HETATM   27  O   UNL     1       2.737  33.538  59.702  1.00  0.00    -0.266 OA
HETATM   28  H   UNL     1       5.833  32.902  59.630  1.00  0.00     0.163 HD
BRANCH  26  29
HETATM   29  C   UNL     1       4.207  32.963  61.478  1.00  0.00     0.177 A 
HETATM   30  N   UNL     1       4.246  31.694  61.994  1.00  0.00    -0.124 NA
HETATM   31  N   UNL     1       4.588  31.773  63.267  1.00  0.00    -0.058 NA
HETATM   32  N   UNL     1       4.807  33.082  63.593  1.00  0.00    -0.188 N 
HETATM   33  C   UNL     1       4.531  33.876  62.474  1.00  0.00     0.109 A 
BRANCH  32  34
HETATM   34  C   UNL     1       5.264  33.451  64.884  1.00  0.00     0.230 A 
HETATM   35  N   UNL     1       4.414  33.687  65.883  1.00  0.00    -0.081 NA
HETATM   36  O   UNL     1       5.232  34.034  66.955  1.00  0.00    -0.103 OA
HETATM   37  N   UNL     1       6.575  34.007  66.593  1.00  0.00    -0.083 NA
HETATM   38  C   UNL     1       6.592  33.644  65.312  1.00  0.00     0.201 A 
BRANCH  38  39
HETATM   39  N   UNL     1       7.713  33.490  64.583  1.00  0.00    -0.379 N 
HETATM   40  H   UNL     1       7.839  34.038  63.739  1.00  0.00     0.158 HD
HETATM   41  H   UNL     1       8.274  32.642  64.633  1.00  0.00     0.158 HD
ENDBRANCH  38  39
ENDBRANCH  32  34
BRANCH  33  42
HETATM   42  C   UNL     1       4.567  35.335  62.436  1.00  0.00    -0.005 A 
HETATM   43  C   UNL     1       3.382  36.077  62.509  1.00  0.00     0.014 A 
HETATM   44  C   UNL     1       3.423  37.472  62.480  1.00  0.00     0.001 A 
HETATM   45  C   UNL     1       4.646  38.135  62.381  1.00  0.00     0.000 A 
HETATM   46  C   UNL     1       5.830  37.403  62.316  1.00  0.00     0.001 A 
HETATM   47  C   UNL     1       5.793  36.009  62.350  1.00  0.00     0.014 A 
ENDBRANCH  33  42
ENDBRANCH  26  29
ENDBRANCH   1  25
TORSDOF 9
ENDMDL
MODEL 6
REMARK VINA RESULT:     -10.7      3.656     12.588
REMARK  9 active torsions:
REMARK  status: ('A' for Active; 'I' for Inactive)
REMARK    1  A    between atoms: N_2  and  C_5 
REMARK    2  A    between atoms: C_10  and  N_11 
REMARK       I    between atoms: N_11  and  C_12 
REMARK    3  A    between atoms: C_12  and  C_14 
REMARK    4  A    between atoms: C_18  and  C_19 
REMARK    5  A    between atoms: C_19  and  N_20 
REMARK       I    between atoms: N_20  and  C_21 
REMARK    6  A    between atoms: C_21  and  C_23 
REMARK    7  A    between atoms: N_26  and  C_34 
REMARK    8  A    between atoms: C_27  and  C_28 
REMARK    9  A    between atoms: C_38  and  N_39 
ROOT
HETATM    1  C   UNL     1       4.927  31.942  58.972  1.00  0.00     0.161 C 
ENDROOT
BRANCH   1   2
HETATM    2  C   UNL     1       6.351  31.495  58.771  1.00  0.00    -0.040 A 
HETATM    3  C   UNL     1       7.399  32.183  59.399  1.00  0.00     0.009 A 
HETATM    4  C   UNL     1       8.718  31.758  59.247  1.00  0.00     0.002 A 
HETATM    5  C   UNL     1       9.004  30.647  58.456  1.00  0.00     0.017 A 
HETATM    6  C   UNL     1       7.974  29.949  57.809  1.00  0.00     0.033 A 
HETATM    7  C   UNL     1       6.645  30.364  57.988  1.00  0.00     0.026 A 
BRANCH   6   8
HETATM    8  C   UNL     1       8.353  28.770  56.969  1.00  0.00     0.257 C 
HETATM    9  N   UNL     1       7.699  27.594  57.265  1.00  0.00    -0.301 N 
HETATM   10  H   UNL     1       6.991  27.565  57.983  1.00  0.00     0.171 HD
HETATM   11  O   UNL     1       9.177  28.942  56.079  1.00  0.00    -0.267 OA
BRANCH   9  12
HETATM   12  C   UNL     1       7.848  26.390  56.621  1.00  0.00     0.174 A 
HETATM   13  N   UNL     1       7.489  26.239  55.363  1.00  0.00    -0.228 NA
HETATM   14  C   UNL     1       7.746  24.949  54.961  1.00  0.00     0.050 A 
HETATM   15  C   UNL     1       7.449  24.488  53.574  1.00  0.00     0.062 C 
HETATM   16  C   UNL     1       8.331  24.146  55.916  1.00  0.00     0.013 A 
HETATM   17  C   UNL     1       7.519  22.949  53.473  1.00  0.00     0.039 C 
HETATM   18  C   UNL     1       8.759  22.397  54.218  1.00  0.00     0.192 C 
HETATM   19  C   UNL     1       8.720  22.720  55.734  1.00  0.00     0.081 C 
HETATM   20  S   UNL     1       8.514  25.004  57.368  1.00  0.00    -0.055 SA
BRANCH  18  21
HETATM   21  N   UNL     1       8.928  20.901  53.933  1.00  0.00    -0.074 N 
HETATM   22  C   UNL     1       8.641  20.046  55.146  1.00  0.00     0.269 C 
HETATM   23  H   UNL     1       9.931  20.766  53.745  1.00  0.00     0.279 HD
HETATM   24  C   UNL     1       8.215  20.366  52.717  1.00  0.00     0.269 C 
ENDBRANCH  18  21
ENDBRANCH   9  12
ENDBRANCH   6   8
ENDBRANCH   1   2
BRANCH   1  25
HETATM   25  N   UNL     1       4.693  32.324  60.341  1.00  0.00    -0.351 N 
HETATM   26  C   UNL     1       3.482  32.853  60.733  1.00  0.00     0.274 C 
HETATM   27  O   UNL     1       2.506  32.887  59.992  1.00  0.00    -0.266 OA
HETATM   28  H   UNL     1       5.479  32.439  60.971  1.00  0.00     0.163 HD
BRANCH  26  29
HETATM   29  C   UNL     1       3.500  33.384  62.092  1.00  0.00     0.177 A 
HETATM   30  N   UNL     1       2.425  34.057  62.612  1.00  0.00    -0.124 NA
HETATM   31  N   UNL     1       2.719  34.420  63.847  1.00  0.00    -0.058 NA
HETATM   32  N   UNL     1       3.970  33.966  64.162  1.00  0.00    -0.188 N 
HETATM   33  C   UNL     1       4.514  33.330  63.040  1.00  0.00     0.109 A 
BRANCH  32  34
HETATM   34  C   UNL     1       4.511  34.148  65.461  1.00  0.00     0.230 A 
HETATM   35  N   UNL     1       5.737  33.727  65.769  1.00  0.00    -0.081 NA
HETATM   36  O   UNL     1       5.887  34.063  67.112  1.00  0.00    -0.103 OA
HETATM   37  N   UNL     1       4.745  34.686  67.607  1.00  0.00    -0.083 NA
HETATM   38  C   UNL     1       3.896  34.738  66.582  1.00  0.00     0.201 A 
BRANCH  38  39
HETATM   39  N   UNL     1       2.666  35.281  66.646  1.00  0.00    -0.379 N 
HETATM   40  H   UNL     1       2.043  35.200  65.849  1.00  0.00     0.158 HD
HETATM   41  H   UNL     1       2.445  36.038  67.289  1.00  0.00     0.158 HD
ENDBRANCH  38  39
ENDBRANCH  32  34
BRANCH  33  42
HETATM   42  C   UNL     1       5.861  32.779  62.945  1.00  0.00    -0.005 A 
HETATM   43  C   UNL     1       6.972  33.629  62.881  1.00  0.00     0.014 A 
HETATM   44  C   UNL     1       8.261  33.096  62.797  1.00  0.00     0.001 A 
HETATM   45  C   UNL     1       8.448  31.715  62.780  1.00  0.00     0.000 A 
HETATM   46  C   UNL     1       7.347  30.863  62.852  1.00  0.00     0.001 A 
HETATM   47  C   UNL     1       6.059  31.392  62.940  1.00  0.00     0.014 A 
ENDBRANCH  33  42
ENDBRANCH  26  29
ENDBRANCH   1  25
TORSDOF 9
ENDMDL
MODEL 7
REMARK VINA RESULT:     -10.7      3.267      4.770
REMARK  9 active torsions:
REMARK  status: ('A' for Active; 'I' for Inactive)
REMARK    1  A    between atoms: N_2  and  C_5 
REMARK    2  A    between atoms: C_10  and  N_11 
REMARK       I    between atoms: N_11  and  C_12 
REMARK    3  A    between atoms: C_12  and  C_14 
REMARK    4  A    between atoms: C_18  and  C_19 
REMARK    5  A    between atoms: C_19  and  N_20 
REMARK       I    between atoms: N_20  and  C_21 
REMARK    6  A    between atoms: C_21  and  C_23 
REMARK    7  A    between atoms: N_26  and  C_34 
REMARK    8  A    between atoms: C_27  and  C_28 
REMARK    9  A    between atoms: C_38  and  N_39 
ROOT
HETATM    1  C   UNL     1       7.684  28.995  55.831  1.00  0.00     0.161 C 
ENDROOT
BRANCH   1   2
HETATM    2  C   UNL     1       6.278  29.415  56.172  1.00  0.00    -0.040 A 
HETATM    3  C   UNL     1       5.212  29.036  55.344  1.00  0.00     0.009 A 
HETATM    4  C   UNL     1       3.904  29.390  55.667  1.00  0.00     0.002 A 
HETATM    5  C   UNL     1       3.648  30.138  56.815  1.00  0.00     0.017 A 
HETATM    6  C   UNL     1       4.700  30.539  57.652  1.00  0.00     0.033 A 
HETATM    7  C   UNL     1       6.012  30.156  57.337  1.00  0.00     0.026 A 
BRANCH   6   8
HETATM    8  C   UNL     1       4.356  31.347  58.864  1.00  0.00     0.257 C 
HETATM    9  N   UNL     1       5.406  31.629  59.709  1.00  0.00    -0.301 N 
HETATM   10  H   UNL     1       6.342  31.328  59.485  1.00  0.00     0.171 HD
HETATM   11  O   UNL     1       3.194  31.715  58.996  1.00  0.00    -0.267 OA
BRANCH   9  12
HETATM   12  C   UNL     1       5.353  32.374  60.861  1.00  0.00     0.174 A 
HETATM   13  N   UNL     1       5.434  33.689  60.829  1.00  0.00    -0.228 NA
HETATM   14  C   UNL     1       5.350  34.188  62.108  1.00  0.00     0.050 A 
HETATM   15  C   UNL     1       5.403  35.654  62.381  1.00  0.00     0.062 C 
HETATM   16  C   UNL     1       5.172  33.241  63.094  1.00  0.00     0.013 A 
HETATM   17  C   UNL     1       5.616  35.931  63.884  1.00  0.00     0.039 C 
HETATM   18  C   UNL     1       4.716  35.020  64.753  1.00  0.00     0.192 C 
HETATM   19  C   UNL     1       5.040  33.517  64.551  1.00  0.00     0.081 C 
HETATM   20  S   UNL     1       5.164  31.686  62.415  1.00  0.00    -0.055 SA
BRANCH  18  21
HETATM   21  N   UNL     1       4.784  35.450  66.222  1.00  0.00    -0.074 N 
HETATM   22  C   UNL     1       3.421  35.753  66.799  1.00  0.00     0.269 C 
HETATM   23  H   UNL     1       5.279  36.352  66.225  1.00  0.00     0.279 HD
HETATM   24  C   UNL     1       5.571  34.556  67.145  1.00  0.00     0.269 C 
ENDBRANCH  18  21
ENDBRANCH   9  12
ENDBRANCH   6   8
ENDBRANCH   1   2
BRANCH   1  25
HETATM   25  N   UNL     1       7.766  27.570  55.639  1.00  0.00    -0.351 N 
HETATM   26  C   UNL     1       7.865  26.714  56.714  1.00  0.00     0.274 C 
HETATM   27  O   UNL     1       7.736  27.092  57.873  1.00  0.00    -0.266 OA
HETATM   28  H   UNL     1       7.999  27.200  54.724  1.00  0.00     0.163 HD
BRANCH  26  29
HETATM   29  C   UNL     1       8.160  25.338  56.328  1.00  0.00     0.177 A 
HETATM   30  N   UNL     1       8.965  24.535  57.095  1.00  0.00    -0.124 NA
HETATM   31  N   UNL     1       9.057  23.357  56.508  1.00  0.00    -0.058 NA
HETATM   32  N   UNL     1       8.295  23.359  55.373  1.00  0.00    -0.188 N 
HETATM   33  C   UNL     1       7.737  24.633  55.208  1.00  0.00     0.109 A 
BRANCH  32  34
HETATM   34  C   UNL     1       8.149  22.189  54.584  1.00  0.00     0.230 A 
HETATM   35  N   UNL     1       8.131  22.246  53.252  1.00  0.00    -0.081 NA
HETATM   36  O   UNL     1       7.952  20.923  52.856  1.00  0.00    -0.103 OA
HETATM   37  N   UNL     1       7.861  20.075  53.956  1.00  0.00    -0.083 NA
HETATM   38  C   UNL     1       7.985  20.861  55.023  1.00  0.00     0.201 A 
BRANCH  38  39
HETATM   39  N   UNL     1       7.961  20.421  56.295  1.00  0.00    -0.379 N 
HETATM   40  H   UNL     1       7.801  19.436  56.479  1.00  0.00     0.158 HD
HETATM   41  H   UNL     1       7.759  21.042  57.075  1.00  0.00     0.158 HD
ENDBRANCH  38  39
ENDBRANCH  32  34
BRANCH  33  42
HETATM   42  C   UNL     1       6.925  25.065  54.076  1.00  0.00    -0.005 A 
HETATM   43  C   UNL     1       5.528  25.082  54.170  1.00  0.00     0.014 A 
HETATM   44  C   UNL     1       4.755  25.504  53.086  1.00  0.00     0.001 A 
HETATM   45  C   UNL     1       5.370  25.915  51.905  1.00  0.00     0.000 A 
HETATM   46  C   UNL     1       6.761  25.910  51.807  1.00  0.00     0.001 A 
HETATM   47  C   UNL     1       7.536  25.493  52.890  1.00  0.00     0.014 A 
ENDBRANCH  33  42
ENDBRANCH  26  29
ENDBRANCH   1  25
TORSDOF 9
ENDMDL
MODEL 8
REMARK VINA RESULT:     -10.6      4.010     12.918
REMARK  9 active torsions:
REMARK  status: ('A' for Active; 'I' for Inactive)
REMARK    1  A    between atoms: N_2  and  C_5 
REMARK    2  A    between atoms: C_10  and  N_11 
REMARK       I    between atoms: N_11  and  C_12 
REMARK    3  A    between atoms: C_12  and  C_14 
REMARK    4  A    between atoms: C_18  and  C_19 
REMARK    5  A    between atoms: C_19  and  N_20 
REMARK       I    between atoms: N_20  and  C_21 
REMARK    6  A    between atoms: C_21  and  C_23 
REMARK    7  A    between atoms: N_26  and  C_34 
REMARK    8  A    between atoms: C_27  and  C_28 
REMARK    9  A    between atoms: C_38  and  N_39 
ROOT
HETATM    1  C   UNL     1       4.602  33.616  57.967  1.00  0.00     0.161 C 
ENDROOT
BRANCH   1   2
HETATM    2  C   UNL     1       4.298  32.437  57.081  1.00  0.00    -0.040 A 
HETATM    3  C   UNL     1       3.088  32.384  56.373  1.00  0.00     0.009 A 
HETATM    4  C   UNL     1       2.811  31.315  55.524  1.00  0.00     0.002 A 
HETATM    5  C   UNL     1       3.734  30.280  55.382  1.00  0.00     0.017 A 
HETATM    6  C   UNL     1       4.945  30.305  56.089  1.00  0.00     0.033 A 
HETATM    7  C   UNL     1       5.232  31.398  56.921  1.00  0.00     0.026 A 
BRANCH   6   8
HETATM    8  C   UNL     1       5.886  29.158  55.897  1.00  0.00     0.257 C 
HETATM    9  N   UNL     1       5.298  27.921  55.761  1.00  0.00    -0.301 N 
HETATM   10  H   UNL     1       4.293  27.826  55.760  1.00  0.00     0.171 HD
HETATM   11  O   UNL     1       7.086  29.404  55.845  1.00  0.00    -0.267 OA
BRANCH   9  12
HETATM   12  C   UNL     1       5.940  26.727  55.544  1.00  0.00     0.174 A 
HETATM   13  N   UNL     1       6.666  26.160  56.486  1.00  0.00    -0.228 NA
HETATM   14  C   UNL     1       7.192  24.979  56.016  1.00  0.00     0.050 A 
HETATM   15  C   UNL     1       8.053  24.112  56.871  1.00  0.00     0.062 C 
HETATM   16  C   UNL     1       6.829  24.651  54.727  1.00  0.00     0.013 A 
HETATM   17  C   UNL     1       8.769  23.036  56.026  1.00  0.00     0.039 C 
HETATM   18  C   UNL     1       7.802  22.391  55.005  1.00  0.00     0.192 C 
HETATM   19  C   UNL     1       7.250  23.426  53.991  1.00  0.00     0.081 C 
HETATM   20  S   UNL     1       5.851  25.870  54.067  1.00  0.00    -0.055 SA
BRANCH  18  21
HETATM   21  N   UNL     1       8.468  21.191  54.325  1.00  0.00    -0.074 N 
HETATM   22  C   UNL     1       8.695  20.040  55.277  1.00  0.00     0.269 C 
HETATM   23  H   UNL     1       9.412  21.508  54.063  1.00  0.00     0.279 HD
HETATM   24  C   UNL     1       7.835  20.711  53.044  1.00  0.00     0.269 C 
ENDBRANCH  18  21
ENDBRANCH   9  12
ENDBRANCH   6   8
ENDBRANCH   1   2
BRANCH   1  25
HETATM   25  N   UNL     1       4.789  33.201  59.334  1.00  0.00    -0.351 N 
HETATM   26  C   UNL     1       3.735  33.189  60.222  1.00  0.00     0.274 C 
HETATM   27  O   UNL     1       2.575  33.378  59.872  1.00  0.00    -0.266 OA
HETATM   28  H   UNL     1       5.725  33.152  59.720  1.00  0.00     0.163 HD
BRANCH  26  29
HETATM   29  C   UNL     1       4.148  32.959  61.602  1.00  0.00     0.177 A 
HETATM   30  N   UNL     1       4.191  31.697  62.136  1.00  0.00    -0.124 NA
HETATM   31  N   UNL     1       4.594  31.789  63.390  1.00  0.00    -0.058 NA
HETATM   32  N   UNL     1       4.850  33.100  63.684  1.00  0.00    -0.188 N 
HETATM   33  C   UNL     1       4.534  33.881  62.566  1.00  0.00     0.109 A 
BRANCH  32  34
HETATM   34  C   UNL     1       5.374  33.480  64.946  1.00  0.00     0.230 A 
HETATM   35  N   UNL     1       4.576  33.765  65.974  1.00  0.00    -0.081 NA
HETATM   36  O   UNL     1       5.451  34.108  67.002  1.00  0.00    -0.103 OA
HETATM   37  N   UNL     1       6.775  34.028  66.585  1.00  0.00    -0.083 NA
HETATM   38  C   UNL     1       6.725  33.638  65.312  1.00  0.00     0.201 A 
BRANCH  38  39
HETATM   39  N   UNL     1       7.808  33.432  64.540  1.00  0.00    -0.379 N 
HETATM   40  H   UNL     1       7.838  33.827  63.606  1.00  0.00     0.158 HD
HETATM   41  H   UNL     1       8.437  32.647  64.695  1.00  0.00     0.158 HD
ENDBRANCH  38  39
ENDBRANCH  32  34
BRANCH  33  42
HETATM   42  C   UNL     1       4.593  35.338  62.503  1.00  0.00    -0.005 A 
HETATM   43  C   UNL     1       5.813  35.990  62.293  1.00  0.00     0.014 A 
HETATM   44  C   UNL     1       5.863  37.384  62.225  1.00  0.00     0.001 A 
HETATM   45  C   UNL     1       4.697  38.134  62.365  1.00  0.00     0.000 A 
HETATM   46  C   UNL     1       3.476  37.491  62.566  1.00  0.00     0.001 A 
HETATM   47  C   UNL     1       3.422  36.098  62.629  1.00  0.00     0.014 A 
ENDBRANCH  33  42
ENDBRANCH  26  29
ENDBRANCH   1  25
TORSDOF 9
ENDMDL
MODEL 9
REMARK VINA RESULT:     -10.2      3.500     12.148
REMARK  9 active torsions:
REMARK  status: ('A' for Active; 'I' for Inactive)
REMARK    1  A    between atoms: N_2  and  C_5 
REMARK    2  A    between atoms: C_10  and  N_11 
REMARK       I    between atoms: N_11  and  C_12 
REMARK    3  A    between atoms: C_12  and  C_14 
REMARK    4  A    between atoms: C_18  and  C_19 
REMARK    5  A    between atoms: C_19  and  N_20 
REMARK       I    between atoms: N_20  and  C_21 
REMARK    6  A    between atoms: C_21  and  C_23 
REMARK    7  A    between atoms: N_26  and  C_34 
REMARK    8  A    between atoms: C_27  and  C_28 
REMARK    9  A    between atoms: C_38  and  N_39 
ROOT
HETATM    1  C   UNL     1       8.299  28.075  57.384  1.00  0.00     0.161 C 
ENDROOT
BRANCH   1   2
HETATM    2  C   UNL     1       7.743  26.843  56.720  1.00  0.00    -0.040 A 
HETATM    3  C   UNL     1       7.979  25.577  57.277  1.00  0.00     0.009 A 
HETATM    4  C   UNL     1       7.441  24.434  56.689  1.00  0.00     0.002 A 
HETATM    5  C   UNL     1       6.672  24.541  55.532  1.00  0.00     0.017 A 
HETATM    6  C   UNL     1       6.432  25.795  54.951  1.00  0.00     0.033 A 
HETATM    7  C   UNL     1       6.952  26.946  55.562  1.00  0.00     0.026 A 
BRANCH   6   8
HETATM    8  C   UNL     1       5.604  25.837  53.705  1.00  0.00     0.257 C 
HETATM    9  N   UNL     1       5.705  26.992  52.962  1.00  0.00    -0.301 N 
HETATM   10  H   UNL     1       6.330  27.732  53.244  1.00  0.00     0.171 HD
HETATM   11  O   UNL     1       4.935  24.848  53.428  1.00  0.00    -0.267 OA
BRANCH   9  12
HETATM   12  C   UNL     1       5.075  27.258  51.772  1.00  0.00     0.174 A 
HETATM   13  N   UNL     1       5.290  26.518  50.703  1.00  0.00    -0.228 NA
HETATM   14  C   UNL     1       4.537  26.991  49.654  1.00  0.00     0.050 A 
HETATM   15  C   UNL     1       4.570  26.341  48.312  1.00  0.00     0.062 C 
HETATM   16  C   UNL     1       3.732  28.070  49.953  1.00  0.00     0.013 A 
HETATM   17  C   UNL     1       3.907  27.237  47.245  1.00  0.00     0.039 C 
HETATM   18  C   UNL     1       2.586  27.848  47.770  1.00  0.00     0.192 C 
HETATM   19  C   UNL     1       2.815  28.760  49.003  1.00  0.00     0.081 C 
HETATM   20  S   UNL     1       3.961  28.539  51.567  1.00  0.00    -0.055 SA
BRANCH  18  21
HETATM   21  N   UNL     1       1.840  28.560  46.637  1.00  0.00    -0.074 N 
HETATM   22  C   UNL     1       0.413  28.083  46.495  1.00  0.00     0.269 C 
HETATM   23  H   UNL     1       2.306  28.263  45.768  1.00  0.00     0.279 HD
HETATM   24  C   UNL     1       1.906  30.066  46.634  1.00  0.00     0.269 C 
ENDBRANCH  18  21
ENDBRANCH   9  12
ENDBRANCH   6   8
ENDBRANCH   1   2
BRANCH   1  25
HETATM   25  N   UNL     1       7.246  28.877  57.951  1.00  0.00    -0.351 N 
HETATM   26  C   UNL     1       6.796  30.012  57.311  1.00  0.00     0.274 C 
HETATM   27  O   UNL     1       7.147  30.313  56.176  1.00  0.00    -0.266 OA
HETATM   28  H   UNL     1       6.998  28.762  58.928  1.00  0.00     0.163 HD
BRANCH  26  29
HETATM   29  C   UNL     1       5.892  30.813  58.130  1.00  0.00     0.177 A 
HETATM   30  N   UNL     1       4.584  31.013  57.768  1.00  0.00    -0.124 NA
HETATM   31  N   UNL     1       4.011  31.770  58.684  1.00  0.00    -0.058 NA
HETATM   32  N   UNL     1       4.917  32.050  59.668  1.00  0.00    -0.188 N 
HETATM   33  C   UNL     1       6.148  31.481  59.320  1.00  0.00     0.109 A 
BRANCH  32  34
HETATM   34  C   UNL     1       4.545  32.785  60.822  1.00  0.00     0.230 A 
HETATM   35  N   UNL     1       4.910  34.057  60.985  1.00  0.00    -0.081 NA
HETATM   36  O   UNL     1       4.381  34.409  62.224  1.00  0.00    -0.103 OA
HETATM   37  N   UNL     1       3.700  33.343  62.803  1.00  0.00    -0.083 NA
HETATM   38  C   UNL     1       3.802  32.340  61.933  1.00  0.00     0.201 A 
BRANCH  38  39
HETATM   39  N   UNL     1       3.263  31.120  62.117  1.00  0.00    -0.379 N 
HETATM   40  H   UNL     1       3.472  30.378  61.458  1.00  0.00     0.158 HD
HETATM   41  H   UNL     1       2.416  30.984  62.664  1.00  0.00     0.158 HD
ENDBRANCH  38  39
ENDBRANCH  32  34
BRANCH  33  42
HETATM   42  C   UNL     1       7.392  31.620  60.070  1.00  0.00    -0.005 A 
HETATM   43  C   UNL     1       8.573  32.003  59.423  1.00  0.00     0.014 A 
HETATM   44  C   UNL     1       9.759  32.142  60.147  1.00  0.00     0.001 A 
HETATM   45  C   UNL     1       9.773  31.903  61.520  1.00  0.00     0.000 A 
HETATM   46  C   UNL     1       8.600  31.530  62.173  1.00  0.00     0.001 A 
HETATM   47  C   UNL     1       7.412  31.395  61.454  1.00  0.00     0.014 A 
ENDBRANCH  33  42
ENDBRANCH  26  29
ENDBRANCH   1  25
TORSDOF 9
ENDMDL
MODEL 10
REMARK VINA RESULT:     -10.1      3.927     11.540
REMARK  9 active torsions:
REMARK  status: ('A' for Active; 'I' for Inactive)
REMARK    1  A    between atoms: N_2  and  C_5 
REMARK    2  A    between atoms: C_10  and  N_11 
REMARK       I    between atoms: N_11  and  C_12 
REMARK    3  A    between atoms: C_12  and  C_14 
REMARK    4  A    between atoms: C_18  and  C_19 
REMARK    5  A    between atoms: C_19  and  N_20 
REMARK       I    between atoms: N_20  and  C_21 
REMARK    6  A    between atoms: C_21  and  C_23 
REMARK    7  A    between atoms: N_26  and  C_34 
REMARK    8  A    between atoms: C_27  and  C_28 
REMARK    9  A    between atoms: C_38  and  N_39 
ROOT
HETATM    1  C   UNL     1       8.786  27.764  57.024  1.00  0.00     0.161 C 
ENDROOT
BRANCH   1   2
HETATM    2  C   UNL     1       8.005  26.602  56.468  1.00  0.00    -0.040 A 
HETATM    3  C   UNL     1       8.074  25.347  57.089  1.00  0.00     0.009 A 
HETATM    4  C   UNL     1       7.330  24.274  56.603  1.00  0.00     0.002 A 
HETATM    5  C   UNL     1       6.517  24.441  55.483  1.00  0.00     0.017 A 
HETATM    6  C   UNL     1       6.440  25.684  54.839  1.00  0.00     0.033 A 
HETATM    7  C   UNL     1       7.170  26.768  55.348  1.00  0.00     0.026 A 
BRANCH   6   8
HETATM    8  C   UNL     1       5.554  25.791  53.637  1.00  0.00     0.257 C 
HETATM    9  N   UNL     1       5.806  26.859  52.805  1.00  0.00    -0.301 N 
HETATM   10  H   UNL     1       6.566  27.493  52.997  1.00  0.00     0.171 HD
HETATM   11  O   UNL     1       4.707  24.921  53.471  1.00  0.00    -0.267 OA
BRANCH   9  12
HETATM   12  C   UNL     1       5.156  27.154  51.632  1.00  0.00     0.174 A 
HETATM   13  N   UNL     1       5.050  26.265  50.666  1.00  0.00    -0.228 NA
HETATM   14  C   UNL     1       4.354  26.809  49.612  1.00  0.00     0.050 A 
HETATM   15  C   UNL     1       4.071  26.025  48.375  1.00  0.00     0.062 C 
HETATM   16  C   UNL     1       3.912  28.099  49.808  1.00  0.00     0.013 A 
HETATM   17  C   UNL     1       3.576  26.943  47.237  1.00  0.00     0.039 C 
HETATM   18  C   UNL     1       2.534  27.964  47.756  1.00  0.00     0.192 C 
HETATM   19  C   UNL     1       3.129  28.908  48.832  1.00  0.00     0.081 C 
HETATM   20  S   UNL     1       4.423  28.668  51.323  1.00  0.00    -0.055 SA
BRANCH  18  21
HETATM   21  N   UNL     1       1.903  28.722  46.584  1.00  0.00    -0.074 N 
HETATM   22  C   UNL     1       0.420  28.459  46.457  1.00  0.00     0.269 C 
HETATM   23  H   UNL     1       2.318  28.316  45.734  1.00  0.00     0.279 HD
HETATM   24  C   UNL     1       2.195  30.199  46.509  1.00  0.00     0.269 C 
ENDBRANCH  18  21
ENDBRANCH   9  12
ENDBRANCH   6   8
ENDBRANCH   1   2
BRANCH   1  25
HETATM   25  N   UNL     1       7.905  28.792  57.515  1.00  0.00    -0.351 N 
HETATM   26  C   UNL     1       8.404  29.987  57.988  1.00  0.00     0.274 C 
HETATM   27  O   UNL     1       9.584  30.298  57.880  1.00  0.00    -0.266 OA
HETATM   28  H   UNL     1       6.945  28.562  57.747  1.00  0.00     0.163 HD
BRANCH  26  29
HETATM   29  C   UNL     1       7.394  30.812  58.644  1.00  0.00     0.177 A 
HETATM   30  N   UNL     1       7.653  31.457  59.825  1.00  0.00    -0.124 NA
HETATM   31  N   UNL     1       6.570  32.120  60.183  1.00  0.00    -0.058 NA
HETATM   32  N   UNL     1       5.602  31.946  59.233  1.00  0.00    -0.188 N 
HETATM   33  C   UNL     1       6.089  31.076  58.250  1.00  0.00     0.109 A 
BRANCH  32  34
HETATM   34  C   UNL     1       4.354  32.613  59.326  1.00  0.00     0.230 A 
HETATM   35  N   UNL     1       4.009  33.566  58.461  1.00  0.00    -0.081 NA
HETATM   36  O   UNL     1       2.751  33.980  58.892  1.00  0.00    -0.103 OA
HETATM   37  N   UNL     1       2.345  33.272  60.018  1.00  0.00    -0.083 NA
HETATM   38  C   UNL     1       3.339  32.426  60.284  1.00  0.00     0.201 A 
BRANCH  38  39
HETATM   39  N   UNL     1       3.332  31.547  61.303  1.00  0.00    -0.379 N 
HETATM   40  H   UNL     1       3.850  30.678  61.216  1.00  0.00     0.158 HD
HETATM   41  H   UNL     1       2.591  31.538  62.001  1.00  0.00     0.158 HD
ENDBRANCH  38  39
ENDBRANCH  32  34
BRANCH  33  42
HETATM   42  C   UNL     1       5.332  30.576  57.107  1.00  0.00    -0.005 A 
HETATM   43  C   UNL     1       4.703  29.327  57.163  1.00  0.00     0.014 A 
HETATM   44  C   UNL     1       3.974  28.857  56.069  1.00  0.00     0.001 A 
HETATM   45  C   UNL     1       3.866  29.630  54.915  1.00  0.00     0.000 A 
HETATM   46  C   UNL     1       4.483  30.879  54.854  1.00  0.00     0.001 A 
HETATM   47  C   UNL     1       5.208  31.354  55.947  1.00  0.00     0.014 A 
ENDBRANCH  33  42
ENDBRANCH  26  29
ENDBRANCH   1  25
TORSDOF 9
ENDMDL
