MODEL 1
REMARK VINA RESULT:      -8.8      0.000      0.000
REMARK  2 active torsions:
REMARK  status: ('A' for Active; 'I' for Inactive)
REMARK    1  A    between atoms: C_5  and  C_7 
REMARK    2  A    between atoms: C_5  and  O_6 
ROOT
HETATM    1  C   UNL     1       6.903  32.275  60.032  1.00  0.00     0.050 C 
HETATM    2  C   UNL     1       6.899  32.674  61.475  1.00  0.00    -0.034 A 
HETATM    3  C   UNL     1       5.868  33.379  62.081  1.00  0.00     0.052 A 
HETATM    4  C   UNL     1       5.887  33.754  63.435  1.00  0.00     0.039 A 
HETATM    5  C   UNL     1       4.600  34.477  63.773  1.00  0.00     0.200 A 
HETATM    6  C   UNL     1       3.871  34.493  62.384  1.00  0.00     0.266 A 
HETATM    7  O   UNL     1       2.773  34.945  62.096  1.00  0.00    -0.269 OA
HETATM    8  N   UNL     1       4.690  33.811  61.485  1.00  0.00    -0.323 N 
HETATM    9  C   UNL     1       6.964  33.392  64.228  1.00  0.00     0.046 A 
HETATM   10 CL   UNL     1       7.042  33.737  65.909  1.00  0.00    -0.084 Cl
HETATM   11  C   UNL     1       8.023  32.688  63.644  1.00  0.00     0.025 A 
HETATM   12  C   UNL     1       7.992  32.338  62.284  1.00  0.00     0.011 A 
HETATM   13  H   UNL     1       4.421  33.681  60.521  1.00  0.00     0.169 HD
ENDROOT
BRANCH   5  14
HETATM   14  C   UNL     1       4.939  35.872  64.254  1.00  0.00     0.025 A 
HETATM   15  C   UNL     1       5.533  36.951  63.491  1.00  0.00     0.003 A 
HETATM   16  C   UNL     1       5.663  38.050  64.340  1.00  0.00     0.043 A 
HETATM   17  C   UNL     1       5.975  37.107  62.157  1.00  0.00     0.014 A 
HETATM   18  C   UNL     1       6.206  39.276  63.936  1.00  0.00     0.030 A 
HETATM   19  N   UNL     1       5.166  37.678  65.562  1.00  0.00    -0.359 N 
HETATM   20  C   UNL     1       6.632  39.395  62.612  1.00  0.00     0.002 A 
HETATM   21  C   UNL     1       6.518  38.326  61.731  1.00  0.00     0.001 A 
HETATM   22  H   UNL     1       5.129  38.286  66.368  1.00  0.00     0.166 HD
HETATM   23  C   UNL     1       4.713  36.387  65.531  1.00  0.00     0.016 A 
HETATM   24  C   UNL     1       4.098  35.775  66.742  1.00  0.00     0.069 C 
ENDBRANCH   5  14
BRANCH   5  25
HETATM   25  O   UNL     1       3.840  33.706  64.702  1.00  0.00    -0.371 OA
HETATM   26  H   UNL     1       2.948  34.085  64.725  1.00  0.00     0.212 HD
ENDBRANCH   5  25
TORSDOF 2
ENDMDL
MODEL 2
REMARK VINA RESULT:      -8.3      9.800     13.914
REMARK  2 active torsions:
REMARK  status: ('A' for Active; 'I' for Inactive)
REMARK    1  A    between atoms: C_5  and  C_7 
REMARK    2  A    between atoms: C_5  and  O_6 
ROOT
HETATM    1  C   UNL     1       6.200  29.873  57.281  1.00  0.00     0.050 C 
HETATM    2  C   UNL     1       6.639  28.893  56.237  1.00  0.00    -0.034 A 
HETATM    3  C   UNL     1       6.247  27.562  56.209  1.00  0.00     0.052 A 
HETATM    4  C   UNL     1       6.679  26.655  55.227  1.00  0.00     0.039 A 
HETATM    5  C   UNL     1       6.038  25.305  55.477  1.00  0.00     0.200 A 
HETATM    6  C   UNL     1       5.215  25.581  56.782  1.00  0.00     0.266 A 
HETATM    7  O   UNL     1       4.488  24.823  57.408  1.00  0.00    -0.269 OA
HETATM    8  N   UNL     1       5.394  26.926  57.103  1.00  0.00    -0.323 N 
HETATM    9  C   UNL     1       7.516  27.094  54.214  1.00  0.00     0.046 A 
HETATM   10 CL   UNL     1       8.032  26.080  52.927  1.00  0.00    -0.084 Cl
HETATM   11  C   UNL     1       7.935  28.428  54.218  1.00  0.00     0.025 A 
HETATM   12  C   UNL     1       7.506  29.315  55.219  1.00  0.00     0.011 A 
HETATM   13  H   UNL     1       4.946  27.340  57.905  1.00  0.00     0.169 HD
ENDROOT
BRANCH   5  14
HETATM   14  C   UNL     1       7.133  24.283  55.699  1.00  0.00     0.025 A 
HETATM   15  C   UNL     1       7.538  23.213  54.810  1.00  0.00     0.003 A 
HETATM   16  C   UNL     1       8.584  22.524  55.423  1.00  0.00     0.043 A 
HETATM   17  C   UNL     1       7.120  22.759  53.537  1.00  0.00     0.014 A 
HETATM   18  C   UNL     1       9.222  21.419  54.846  1.00  0.00     0.030 A 
HETATM   19  N   UNL     1       8.823  23.138  56.625  1.00  0.00    -0.359 N 
HETATM   20  C   UNL     1       8.785  20.997  53.590  1.00  0.00     0.002 A 
HETATM   21  C   UNL     1       7.749  21.658  52.941  1.00  0.00     0.001 A 
HETATM   22  H   UNL     1       9.538  22.850  57.277  1.00  0.00     0.166 HD
HETATM   23  C   UNL     1       7.980  24.203  56.804  1.00  0.00     0.016 A 
HETATM   24  C   UNL     1       8.080  25.043  58.029  1.00  0.00     0.069 C 
ENDBRANCH   5  14
BRANCH   5  25
HETATM   25  O   UNL     1       5.148  24.986  54.408  1.00  0.00    -0.371 OA
HETATM   26  H   UNL     1       4.927  24.046  54.491  1.00  0.00     0.212 HD
ENDBRANCH   5  25
TORSDOF 2
ENDMDL
MODEL 3
REMARK VINA RESULT:      -8.2      7.689     11.700
REMARK  2 active torsions:
REMARK  status: ('A' for Active; 'I' for Inactive)
REMARK    1  A    between atoms: C_5  and  C_7 
REMARK    2  A    between atoms: C_5  and  O_6 
ROOT
HETATM    1  C   UNL     1       8.409  30.468  60.090  1.00  0.00     0.050 C 
HETATM    2  C   UNL     1       8.662  30.077  58.667  1.00  0.00    -0.034 A 
HETATM    3  C   UNL     1       7.688  29.575  57.816  1.00  0.00     0.052 A 
HETATM    4  C   UNL     1       7.948  29.202  56.486  1.00  0.00     0.039 A 
HETATM    5  C   UNL     1       6.663  28.728  55.839  1.00  0.00     0.200 A 
HETATM    6  C   UNL     1       5.646  28.847  57.027  1.00  0.00     0.266 A 
HETATM    7  O   UNL     1       4.449  28.605  57.042  1.00  0.00    -0.269 OA
HETATM    8  N   UNL     1       6.347  29.366  58.114  1.00  0.00    -0.323 N 
HETATM    9  C   UNL     1       9.225  29.359  55.971  1.00  0.00     0.046 A 
HETATM   10 CL   UNL     1       9.621  29.007  54.338  1.00  0.00    -0.084 Cl
HETATM   11  C   UNL     1      10.230  29.856  56.806  1.00  0.00     0.025 A 
HETATM   12  C   UNL     1       9.954  30.207  58.138  1.00  0.00     0.011 A 
HETATM   13  H   UNL     1       5.893  29.544  58.997  1.00  0.00     0.169 HD
ENDROOT
BRANCH   5  14
HETATM   14  C   UNL     1       6.848  27.295  55.387  1.00  0.00     0.025 A 
HETATM   15  C   UNL     1       7.508  26.221  56.101  1.00  0.00     0.003 A 
HETATM   16  C   UNL     1       7.439  25.077  55.306  1.00  0.00     0.043 A 
HETATM   17  C   UNL     1       8.161  26.104  57.350  1.00  0.00     0.014 A 
HETATM   18  C   UNL     1       7.982  23.842  55.683  1.00  0.00     0.030 A 
HETATM   19  N   UNL     1       6.762  25.418  54.165  1.00  0.00    -0.359 N 
HETATM   20  C   UNL     1       8.619  23.762  56.923  1.00  0.00     0.002 A 
HETATM   21  C   UNL     1       8.707  24.877  57.748  1.00  0.00     0.001 A 
HETATM   22  H   UNL     1       6.559  24.776  53.412  1.00  0.00     0.166 HD
HETATM   23  C   UNL     1       6.384  26.734  54.197  1.00  0.00     0.016 A 
HETATM   24  C   UNL     1       5.605  27.321  53.072  1.00  0.00     0.069 C 
ENDBRANCH   5  14
BRANCH   5  25
HETATM   25  O   UNL     1       6.286  29.626  54.796  1.00  0.00    -0.371 OA
HETATM   26  H   UNL     1       6.959  30.323  54.762  1.00  0.00     0.212 HD
ENDBRANCH   5  25
TORSDOF 2
ENDMDL
MODEL 4
REMARK VINA RESULT:      -8.2      1.221      1.462
REMARK  2 active torsions:
REMARK  status: ('A' for Active; 'I' for Inactive)
REMARK    1  A    between atoms: C_5  and  C_7 
REMARK    2  A    between atoms: C_5  and  O_6 
ROOT
HETATM    1  C   UNL     1       5.524  32.260  58.704  1.00  0.00     0.050 C 
HETATM    2  C   UNL     1       6.105  32.507  60.062  1.00  0.00    -0.034 A 
HETATM    3  C   UNL     1       5.352  32.850  61.176  1.00  0.00     0.052 A 
HETATM    4  C   UNL     1       5.917  33.089  62.441  1.00  0.00     0.039 A 
HETATM    5  C   UNL     1       4.815  33.406  63.430  1.00  0.00     0.200 A 
HETATM    6  C   UNL     1       3.543  33.356  62.514  1.00  0.00     0.266 A 
HETATM    7  O   UNL     1       2.371  33.522  62.816  1.00  0.00    -0.269 OA
HETATM    8  N   UNL     1       3.973  33.005  61.235  1.00  0.00    -0.323 N 
HETATM    9  C   UNL     1       7.286  32.956  62.612  1.00  0.00     0.046 A 
HETATM   10 CL   UNL     1       8.058  33.150  64.134  1.00  0.00    -0.084 Cl
HETATM   11  C   UNL     1       8.073  32.618  61.506  1.00  0.00     0.025 A 
HETATM   12  C   UNL     1       7.490  32.401  60.246  1.00  0.00     0.011 A 
HETATM   13  H   UNL     1       3.322  32.898  60.471  1.00  0.00     0.169 HD
ENDROOT
BRANCH   5  14
HETATM   14  C   UNL     1       5.055  34.790  63.996  1.00  0.00     0.025 A 
HETATM   15  C   UNL     1       5.258  36.023  63.262  1.00  0.00     0.003 A 
HETATM   16  C   UNL     1       5.439  37.045  64.193  1.00  0.00     0.043 A 
HETATM   17  C   UNL     1       5.303  36.376  61.894  1.00  0.00     0.014 A 
HETATM   18  C   UNL     1       5.666  38.380  63.836  1.00  0.00     0.030 A 
HETATM   19  N   UNL     1       5.345  36.481  65.438  1.00  0.00    -0.359 N 
HETATM   20  C   UNL     1       5.705  38.694  62.476  1.00  0.00     0.002 A 
HETATM   21  C   UNL     1       5.524  37.706  61.516  1.00  0.00     0.001 A 
HETATM   22  H   UNL     1       5.431  36.996  66.303  1.00  0.00     0.166 HD
HETATM   23  C   UNL     1       5.099  35.137  65.346  1.00  0.00     0.016 A 
HETATM   24  C   UNL     1       4.925  34.317  66.578  1.00  0.00     0.069 C 
ENDBRANCH   5  14
BRANCH   5  25
HETATM   25  O   UNL     1       4.736  32.376  64.414  1.00  0.00    -0.371 OA
HETATM   26  H   UNL     1       3.805  32.304  64.677  1.00  0.00     0.212 HD
ENDBRANCH   5  25
TORSDOF 2
ENDMDL
MODEL 5
REMARK VINA RESULT:      -8.1      2.566      5.864
REMARK  2 active torsions:
REMARK  status: ('A' for Active; 'I' for Inactive)
REMARK    1  A    between atoms: C_5  and  C_7 
REMARK    2  A    between atoms: C_5  and  O_6 
ROOT
HETATM    1  C   UNL     1       5.356  35.116  66.069  1.00  0.00     0.050 C 
HETATM    2  C   UNL     1       5.074  35.165  64.599  1.00  0.00    -0.034 A 
HETATM    3  C   UNL     1       4.884  34.041  63.808  1.00  0.00     0.052 A 
HETATM    4  C   UNL     1       4.631  34.108  62.427  1.00  0.00     0.039 A 
HETATM    5  C   UNL     1       4.443  32.706  61.884  1.00  0.00     0.200 A 
HETATM    6  C   UNL     1       4.678  31.835  63.167  1.00  0.00     0.266 A 
HETATM    7  O   UNL     1       4.624  30.621  63.292  1.00  0.00    -0.269 OA
HETATM    8  N   UNL     1       4.904  32.715  64.224  1.00  0.00    -0.323 N 
HETATM    9  C   UNL     1       4.537  35.345  61.810  1.00  0.00     0.046 A 
HETATM   10 CL   UNL     1       4.154  35.530  60.146  1.00  0.00    -0.084 Cl
HETATM   11  C   UNL     1       4.732  36.497  62.579  1.00  0.00     0.025 A 
HETATM   12  C   UNL     1       5.001  36.408  63.955  1.00  0.00     0.011 A 
HETATM   13  H   UNL     1       5.069  32.382  65.161  1.00  0.00     0.169 HD
ENDROOT
BRANCH   5  14
HETATM   14  C   UNL     1       5.494  32.453  60.823  1.00  0.00     0.025 A 
HETATM   15  C   UNL     1       6.924  32.317  61.009  1.00  0.00     0.003 A 
HETATM   16  C   UNL     1       7.495  32.091  59.757  1.00  0.00     0.043 A 
HETATM   17  C   UNL     1       7.796  32.361  62.122  1.00  0.00     0.014 A 
HETATM   18  C   UNL     1       8.871  31.916  59.558  1.00  0.00     0.030 A 
HETATM   19  N   UNL     1       6.475  32.077  58.843  1.00  0.00    -0.359 N 
HETATM   20  C   UNL     1       9.702  31.965  60.678  1.00  0.00     0.002 A 
HETATM   21  C   UNL     1       9.174  32.183  61.945  1.00  0.00     0.001 A 
HETATM   22  H   UNL     1       6.602  31.925  57.853  1.00  0.00     0.166 HD
HETATM   23  C   UNL     1       5.267  32.275  59.458  1.00  0.00     0.016 A 
HETATM   24  C   UNL     1       4.007  32.267  58.664  1.00  0.00     0.069 C 
ENDBRANCH   5  14
BRANCH   5  25
HETATM   25  O   UNL     1       3.101  32.538  61.431  1.00  0.00    -0.371 OA
HETATM   26  H   UNL     1       2.523  32.955  62.088  1.00  0.00     0.212 HD
ENDBRANCH   5  25
TORSDOF 2
ENDMDL
MODEL 6
REMARK VINA RESULT:      -8.0      8.749     12.529
REMARK  2 active torsions:
REMARK  status: ('A' for Active; 'I' for Inactive)
REMARK    1  A    between atoms: C_5  and  C_7 
REMARK    2  A    between atoms: C_5  and  O_6 
ROOT
HETATM    1  C   UNL     1       3.538  31.206  57.447  1.00  0.00     0.050 C 
HETATM    2  C   UNL     1       4.784  30.494  57.022  1.00  0.00    -0.034 A 
HETATM    3  C   UNL     1       4.852  29.630  55.937  1.00  0.00     0.052 A 
HETATM    4  C   UNL     1       6.029  28.962  55.560  1.00  0.00     0.039 A 
HETATM    5  C   UNL     1       5.759  28.130  54.324  1.00  0.00     0.200 A 
HETATM    6  C   UNL     1       4.231  28.396  54.090  1.00  0.00     0.266 A 
HETATM    7  O   UNL     1       3.504  27.977  53.203  1.00  0.00    -0.269 OA
HETATM    8  N   UNL     1       3.817  29.295  55.072  1.00  0.00    -0.323 N 
HETATM    9  C   UNL     1       7.196  29.180  56.275  1.00  0.00     0.046 A 
HETATM   10 CL   UNL     1       8.700  28.472  55.844  1.00  0.00    -0.084 Cl
HETATM   11  C   UNL     1       7.158  30.039  57.378  1.00  0.00     0.025 A 
HETATM   12  C   UNL     1       5.967  30.685  57.749  1.00  0.00     0.011 A 
HETATM   13  H   UNL     1       2.866  29.627  55.116  1.00  0.00     0.169 HD
ENDROOT
BRANCH   5  14
HETATM   14  C   UNL     1       6.041  26.678  54.646  1.00  0.00     0.025 A 
HETATM   15  C   UNL     1       6.758  25.715  53.834  1.00  0.00     0.003 A 
HETATM   16  C   UNL     1       6.776  24.505  54.527  1.00  0.00     0.043 A 
HETATM   17  C   UNL     1       7.400  25.751  52.574  1.00  0.00     0.014 A 
HETATM   18  C   UNL     1       7.385  23.344  54.034  1.00  0.00     0.030 A 
HETATM   19  N   UNL     1       6.114  24.706  55.710  1.00  0.00    -0.359 N 
HETATM   20  C   UNL     1       8.009  23.414  52.788  1.00  0.00     0.002 A 
HETATM   21  C   UNL     1       8.018  24.602  52.066  1.00  0.00     0.001 A 
HETATM   22  H   UNL     1       5.982  23.995  56.414  1.00  0.00     0.166 HD
HETATM   23  C   UNL     1       5.681  26.001  55.812  1.00  0.00     0.016 A 
HETATM   24  C   UNL     1       4.962  26.461  57.032  1.00  0.00     0.069 C 
ENDBRANCH   5  14
BRANCH   5  25
HETATM   25  O   UNL     1       6.507  28.642  53.222  1.00  0.00    -0.371 OA
HETATM   26  H   UNL     1       7.366  28.193  53.227  1.00  0.00     0.212 HD
ENDBRANCH   5  25
TORSDOF 2
ENDMDL
MODEL 7
REMARK VINA RESULT:      -8.0      2.200      3.383
REMARK  2 active torsions:
REMARK  status: ('A' for Active; 'I' for Inactive)
REMARK    1  A    between atoms: C_5  and  C_7 
REMARK    2  A    between atoms: C_5  and  O_6 
ROOT
HETATM    1  C   UNL     1       7.803  31.402  58.615  1.00  0.00     0.050 C 
HETATM    2  C   UNL     1       7.722  31.788  60.059  1.00  0.00    -0.034 A 
HETATM    3  C   UNL     1       6.530  31.990  60.741  1.00  0.00     0.052 A 
HETATM    4  C   UNL     1       6.474  32.363  62.095  1.00  0.00     0.039 A 
HETATM    5  C   UNL     1       5.026  32.467  62.526  1.00  0.00     0.200 A 
HETATM    6  C   UNL     1       4.272  32.141  61.190  1.00  0.00     0.266 A 
HETATM    7  O   UNL     1       3.071  32.069  60.982  1.00  0.00    -0.269 OA
HETATM    8  N   UNL     1       5.244  31.861  60.230  1.00  0.00    -0.323 N 
HETATM    9  C   UNL     1       7.651  32.516  62.810  1.00  0.00     0.046 A 
HETATM   10 CL   UNL     1       7.682  32.892  64.485  1.00  0.00    -0.084 Cl
HETATM   11  C   UNL     1       8.869  32.326  62.149  1.00  0.00     0.025 A 
HETATM   12  C   UNL     1       8.904  31.971  60.790  1.00  0.00     0.011 A 
HETATM   13  H   UNL     1       4.995  31.609  59.286  1.00  0.00     0.169 HD
ENDROOT
BRANCH   5  14
HETATM   14  C   UNL     1       4.761  33.881  62.999  1.00  0.00     0.025 A 
HETATM   15  C   UNL     1       4.610  34.343  64.364  1.00  0.00     0.003 A 
HETATM   16  C   UNL     1       4.380  35.718  64.323  1.00  0.00     0.043 A 
HETATM   17  C   UNL     1       4.647  33.729  65.637  1.00  0.00     0.014 A 
HETATM   18  C   UNL     1       4.183  36.501  65.468  1.00  0.00     0.030 A 
HETATM   19  N   UNL     1       4.397  36.092  63.005  1.00  0.00    -0.359 N 
HETATM   20  C   UNL     1       4.226  35.863  66.708  1.00  0.00     0.002 A 
HETATM   21  C   UNL     1       4.457  34.495  66.795  1.00  0.00     0.001 A 
HETATM   22  H   UNL     1       4.265  37.041  62.683  1.00  0.00     0.166 HD
HETATM   23  C   UNL     1       4.640  35.015  62.195  1.00  0.00     0.016 A 
HETATM   24  C   UNL     1       4.736  35.188  60.720  1.00  0.00     0.069 C 
ENDBRANCH   5  14
BRANCH   5  25
HETATM   25  O   UNL     1       4.735  31.461  63.496  1.00  0.00    -0.371 OA
HETATM   26  H   UNL     1       4.616  30.627  63.015  1.00  0.00     0.212 HD
ENDBRANCH   5  25
TORSDOF 2
ENDMDL
MODEL 8
REMARK VINA RESULT:      -8.0      8.605     11.100
REMARK  2 active torsions:
REMARK  status: ('A' for Active; 'I' for Inactive)
REMARK    1  A    between atoms: C_5  and  C_7 
REMARK    2  A    between atoms: C_5  and  O_6 
ROOT
HETATM    1  C   UNL     1       8.071  25.035  52.189  1.00  0.00     0.050 C 
HETATM    2  C   UNL     1       7.281  25.256  53.442  1.00  0.00    -0.034 A 
HETATM    3  C   UNL     1       6.562  26.412  53.711  1.00  0.00     0.052 A 
HETATM    4  C   UNL     1       5.836  26.606  54.899  1.00  0.00     0.039 A 
HETATM    5  C   UNL     1       5.149  27.955  54.850  1.00  0.00     0.200 A 
HETATM    6  C   UNL     1       5.640  28.513  53.469  1.00  0.00     0.266 A 
HETATM    7  O   UNL     1       5.365  29.571  52.925  1.00  0.00    -0.269 OA
HETATM    8  N   UNL     1       6.436  27.526  52.889  1.00  0.00    -0.323 N 
HETATM    9  C   UNL     1       5.801  25.598  55.849  1.00  0.00     0.046 A 
HETATM   10 CL   UNL     1       4.879  25.711  57.293  1.00  0.00    -0.084 Cl
HETATM   11  C   UNL     1       6.522  24.424  55.611  1.00  0.00     0.025 A 
HETATM   12  C   UNL     1       7.256  24.257  54.425  1.00  0.00     0.011 A 
HETATM   13  H   UNL     1       6.858  27.654  51.982  1.00  0.00     0.169 HD
ENDROOT
BRANCH   5  14
HETATM   14  C   UNL     1       5.643  28.793  56.011  1.00  0.00     0.025 A 
HETATM   15  C   UNL     1       7.005  28.933  56.484  1.00  0.00     0.003 A 
HETATM   16  C   UNL     1       6.989  29.803  57.574  1.00  0.00     0.043 A 
HETATM   17  C   UNL     1       8.258  28.407  56.092  1.00  0.00     0.014 A 
HETATM   18  C   UNL     1       8.138  30.166  58.287  1.00  0.00     0.030 A 
HETATM   19  N   UNL     1       5.688  30.191  57.762  1.00  0.00    -0.359 N 
HETATM   20  C   UNL     1       9.358  29.629  57.873  1.00  0.00     0.002 A 
HETATM   21  C   UNL     1       9.420  28.761  56.790  1.00  0.00     0.001 A 
HETATM   22  H   UNL     1       5.385  30.830  58.483  1.00  0.00     0.166 HD
HETATM   23  C   UNL     1       4.867  29.614  56.830  1.00  0.00     0.016 A 
HETATM   24  C   UNL     1       3.409  29.917  56.820  1.00  0.00     0.069 C 
ENDBRANCH   5  14
BRANCH   5  25
HETATM   25  O   UNL     1       3.733  27.777  54.817  1.00  0.00    -0.371 OA
HETATM   26  H   UNL     1       3.424  27.778  55.736  1.00  0.00     0.212 HD
ENDBRANCH   5  25
TORSDOF 2
ENDMDL
MODEL 9
REMARK VINA RESULT:      -7.7      1.927      5.520
REMARK  2 active torsions:
REMARK  status: ('A' for Active; 'I' for Inactive)
REMARK    1  A    between atoms: C_5  and  C_7 
REMARK    2  A    between atoms: C_5  and  O_6 
ROOT
HETATM    1  C   UNL     1       6.040  39.201  64.864  1.00  0.00     0.050 C 
HETATM    2  C   UNL     1       5.575  38.437  63.662  1.00  0.00    -0.034 A 
HETATM    3  C   UNL     1       4.885  37.235  63.728  1.00  0.00     0.052 A 
HETATM    4  C   UNL     1       4.466  36.527  62.587  1.00  0.00     0.039 A 
HETATM    5  C   UNL     1       3.719  35.282  63.018  1.00  0.00     0.200 A 
HETATM    6  C   UNL     1       3.823  35.374  64.580  1.00  0.00     0.266 A 
HETATM    7  O   UNL     1       3.366  34.621  65.427  1.00  0.00    -0.269 OA
HETATM    8  N   UNL     1       4.501  36.555  64.877  1.00  0.00    -0.323 N 
HETATM    9  C   UNL     1       4.721  37.049  61.329  1.00  0.00     0.046 A 
HETATM   10 CL   UNL     1       4.181  36.298  59.882  1.00  0.00    -0.084 Cl
HETATM   11  C   UNL     1       5.421  38.255  61.230  1.00  0.00     0.025 A 
HETATM   12  C   UNL     1       5.846  38.939  62.382  1.00  0.00     0.011 A 
HETATM   13  H   UNL     1       4.677  36.837  65.829  1.00  0.00     0.169 HD
ENDROOT
BRANCH   5  14
HETATM   14  C   UNL     1       4.440  34.070  62.469  1.00  0.00     0.025 A 
HETATM   15  C   UNL     1       5.718  33.534  62.891  1.00  0.00     0.003 A 
HETATM   16  C   UNL     1       5.988  32.412  62.109  1.00  0.00     0.043 A 
HETATM   17  C   UNL     1       6.678  33.890  63.867  1.00  0.00     0.014 A 
HETATM   18  C   UNL     1       7.150  31.641  62.242  1.00  0.00     0.030 A 
HETATM   19  N   UNL     1       4.930  32.252  61.252  1.00  0.00    -0.359 N 
HETATM   20  C   UNL     1       8.075  32.020  63.215  1.00  0.00     0.002 A 
HETATM   21  C   UNL     1       7.844  33.130  64.019  1.00  0.00     0.001 A 
HETATM   22  H   UNL     1       4.858  31.508  60.573  1.00  0.00     0.166 HD
HETATM   23  C   UNL     1       3.985  33.221  61.459  1.00  0.00     0.016 A 
HETATM   24  C   UNL     1       2.727  33.228  60.662  1.00  0.00     0.069 C 
ENDBRANCH   5  14
BRANCH   5  25
HETATM   25  O   UNL     1       2.351  35.378  62.624  1.00  0.00    -0.371 OA
HETATM   26  H   UNL     1       1.993  34.477  62.613  1.00  0.00     0.212 HD
ENDBRANCH   5  25
TORSDOF 2
ENDMDL
MODEL 10
REMARK VINA RESULT:      -7.5      2.152      3.026
REMARK  2 active torsions:
REMARK  status: ('A' for Active; 'I' for Inactive)
REMARK    1  A    between atoms: C_5  and  C_7 
REMARK    2  A    between atoms: C_5  and  O_6 
ROOT
HETATM    1  C   UNL     1       8.711  31.996  62.461  1.00  0.00     0.050 C 
HETATM    2  C   UNL     1       7.491  32.606  63.078  1.00  0.00    -0.034 A 
HETATM    3  C   UNL     1       6.291  32.791  62.404  1.00  0.00     0.052 A 
HETATM    4  C   UNL     1       5.159  33.375  62.998  1.00  0.00     0.039 A 
HETATM    5  C   UNL     1       4.023  33.395  61.996  1.00  0.00     0.200 A 
HETATM    6  C   UNL     1       4.706  32.773  60.729  1.00  0.00     0.266 A 
HETATM    7  O   UNL     1       4.223  32.540  59.631  1.00  0.00    -0.269 OA
HETATM    8  N   UNL     1       6.012  32.443  61.088  1.00  0.00    -0.323 N 
HETATM    9  C   UNL     1       5.212  33.769  64.325  1.00  0.00     0.046 A 
HETATM   10 CL   UNL     1       3.859  34.419  65.159  1.00  0.00    -0.084 Cl
HETATM   11  C   UNL     1       6.409  33.602  65.029  1.00  0.00     0.025 A 
HETATM   12  C   UNL     1       7.535  33.032  64.412  1.00  0.00     0.011 A 
HETATM   13  H   UNL     1       6.646  32.012  60.433  1.00  0.00     0.169 HD
ENDROOT
BRANCH   5  14
HETATM   14  C   UNL     1       3.601  34.831  61.770  1.00  0.00     0.025 A 
HETATM   15  C   UNL     1       4.411  36.024  61.913  1.00  0.00     0.003 A 
HETATM   16  C   UNL     1       3.609  37.121  61.601  1.00  0.00     0.043 A 
HETATM   17  C   UNL     1       5.754  36.283  62.275  1.00  0.00     0.014 A 
HETATM   18  C   UNL     1       4.067  38.445  61.638  1.00  0.00     0.030 A 
HETATM   19  N   UNL     1       2.371  36.637  61.273  1.00  0.00    -0.359 N 
HETATM   20  C   UNL     1       5.397  38.665  62.000  1.00  0.00     0.002 A 
HETATM   21  C   UNL     1       6.232  37.599  62.314  1.00  0.00     0.001 A 
HETATM   22  H   UNL     1       1.590  37.216  60.996  1.00  0.00     0.166 HD
HETATM   23  C   UNL     1       2.345  35.270  61.349  1.00  0.00     0.016 A 
HETATM   24  C   UNL     1       1.107  34.519  61.003  1.00  0.00     0.069 C 
ENDBRANCH   5  14
BRANCH   5  25
HETATM   25  O   UNL     1       2.971  32.539  62.440  1.00  0.00    -0.371 OA
HETATM   26  H   UNL     1       3.355  31.657  62.566  1.00  0.00     0.212 HD
ENDBRANCH   5  25
TORSDOF 2
ENDMDL
