MODEL 1
REMARK VINA RESULT:      -9.0      0.000      0.000
REMARK  5 active torsions:
REMARK  status: ('A' for Active; 'I' for Inactive)
REMARK    1  A    between atoms: C_2  and  C_3 
REMARK    2  A    between atoms: C_3  and  N_4 
REMARK    3  A    between atoms: C_3  and  C_19 
REMARK       I    between atoms: N_4  and  C_5 
REMARK       I    between atoms: C_5  and  N_6 
REMARK    4  A    between atoms: N_6  and  C_7 
REMARK    5  A    between atoms: C_12  and  C_13 
ROOT
HETATM    1  N   UNL     1       7.201  26.640  56.709  1.00  0.00    -0.334 N 
HETATM    2  C   UNL     1       7.843  25.625  57.326  1.00  0.00     0.321 C 
HETATM    3  N   UNL     1       8.307  24.589  56.577  1.00  0.00    -0.306 N 
HETATM    4  O   UNL     1       8.121  25.645  58.525  1.00  0.00    -0.247 OA
HETATM    5  H   UNL     1       6.758  26.443  55.827  1.00  0.00     0.165 HD
HETATM    6  H   UNL     1       8.949  24.040  57.138  1.00  0.00     0.171 HD
ENDROOT
BRANCH   1   7
HETATM    7  C   UNL     1       6.723  27.806  57.428  1.00  0.00     0.122 C 
BRANCH   7   8
HETATM    8  C   UNL     1       5.421  28.375  56.836  1.00  0.00     0.026 C 
HETATM    9  C   UNL     1       4.949  27.708  55.548  1.00  0.00     0.007 C 
ENDBRANCH   7   8
BRANCH   7  10
HETATM   10  C   UNL     1       7.836  28.808  57.508  1.00  0.00     0.001 A 
HETATM   11  C   UNL     1       8.121  29.752  58.480  1.00  0.00     0.122 A 
HETATM   12  N   UNL     1       9.227  30.427  58.052  1.00  0.00    -0.285 N 
HETATM   13  C   UNL     1       9.878  31.534  58.708  1.00  0.00     0.179 C 
HETATM   14  N   UNL     1       9.706  29.977  56.881  1.00  0.00    -0.185 NA
HETATM   15  C   UNL     1       8.859  29.002  56.548  1.00  0.00     0.149 A 
ENDBRANCH   7  10
ENDBRANCH   1   7
BRANCH   3  16
HETATM   16  C   UNL     1       8.141  24.180  55.239  1.00  0.00     0.075 A 
HETATM   17  C   UNL     1       7.913  25.013  54.140  1.00  0.00     0.143 A 
HETATM   18  F   UNL     1       7.795  26.341  54.276  1.00  0.00    -0.204 F 
HETATM   19  C   UNL     1       7.745  24.493  52.855  1.00  0.00     0.045 A 
HETATM   20  C   UNL     1       7.800  23.118  52.642  1.00  0.00     0.019 A 
HETATM   21  C   UNL     1       8.013  22.251  53.722  1.00  0.00     0.050 A 
HETATM   22  C   UNL     1       8.169  22.793  55.012  1.00  0.00     0.049 A 
BRANCH  21  23
HETATM   23  C   UNL     1       8.088  20.755  53.522  1.00  0.00     0.417 C 
HETATM   24  F   UNL     1       9.255  20.338  52.959  1.00  0.00    -0.166 F 
HETATM   25  F   UNL     1       7.971  20.071  54.693  1.00  0.00    -0.166 F 
HETATM   26  F   UNL     1       7.095  20.292  52.715  1.00  0.00    -0.166 F 
ENDBRANCH  21  23
ENDBRANCH   3  16
TORSDOF 5
ENDMDL
MODEL 2
REMARK VINA RESULT:      -8.9      1.598      1.913
REMARK  5 active torsions:
REMARK  status: ('A' for Active; 'I' for Inactive)
REMARK    1  A    between atoms: C_2  and  C_3 
REMARK    2  A    between atoms: C_3  and  N_4 
REMARK    3  A    between atoms: C_3  and  C_19 
REMARK       I    between atoms: N_4  and  C_5 
REMARK       I    between atoms: C_5  and  N_6 
REMARK    4  A    between atoms: N_6  and  C_7 
REMARK    5  A    between atoms: C_12  and  C_13 
ROOT
HETATM    1  N   UNL     1       6.270  27.091  56.465  1.00  0.00    -0.334 N 
HETATM    2  C   UNL     1       5.420  26.047  56.565  1.00  0.00     0.321 C 
HETATM    3  N   UNL     1       5.591  24.978  55.741  1.00  0.00    -0.306 N 
HETATM    4  O   UNL     1       4.558  25.973  57.440  1.00  0.00    -0.247 OA
HETATM    5  H   UNL     1       6.739  27.228  55.585  1.00  0.00     0.165 HD
HETATM    6  H   UNL     1       5.035  24.205  56.088  1.00  0.00     0.171 HD
ENDROOT
BRANCH   1   7
HETATM    7  C   UNL     1       6.189  28.244  57.342  1.00  0.00     0.122 C 
BRANCH   7   8
HETATM    8  C   UNL     1       5.127  29.261  56.886  1.00  0.00     0.026 C 
HETATM    9  C   UNL     1       5.193  29.651  55.414  1.00  0.00     0.007 C 
ENDBRANCH   7   8
BRANCH   7  10
HETATM   10  C   UNL     1       7.561  28.831  57.490  1.00  0.00     0.001 A 
HETATM   11  C   UNL     1       8.690  28.677  56.705  1.00  0.00     0.122 A 
HETATM   12  N   UNL     1       9.679  29.404  57.300  1.00  0.00    -0.285 N 
HETATM   13  C   UNL     1      11.052  29.518  56.873  1.00  0.00     0.179 C 
HETATM   14  N   UNL     1       9.275  30.049  58.407  1.00  0.00    -0.185 NA
HETATM   15  C   UNL     1       7.994  29.695  58.526  1.00  0.00     0.149 A 
ENDBRANCH   7  10
ENDBRANCH   1   7
BRANCH   3  16
HETATM   16  C   UNL     1       6.387  24.717  54.608  1.00  0.00     0.075 A 
HETATM   17  C   UNL     1       6.596  25.575  53.525  1.00  0.00     0.143 A 
HETATM   18  F   UNL     1       5.999  26.773  53.452  1.00  0.00    -0.204 F 
HETATM   19  C   UNL     1       7.394  25.201  52.443  1.00  0.00     0.045 A 
HETATM   20  C   UNL     1       8.004  23.949  52.422  1.00  0.00     0.019 A 
HETATM   21  C   UNL     1       7.807  23.056  53.483  1.00  0.00     0.050 A 
HETATM   22  C   UNL     1       6.989  23.447  54.561  1.00  0.00     0.049 A 
BRANCH  21  23
HETATM   23  C   UNL     1       8.463  21.695  53.493  1.00  0.00     0.417 C 
HETATM   24  F   UNL     1       8.217  20.964  52.372  1.00  0.00    -0.166 F 
HETATM   25  F   UNL     1       9.817  21.776  53.600  1.00  0.00    -0.166 F 
HETATM   26  F   UNL     1       8.047  20.930  54.540  1.00  0.00    -0.166 F 
ENDBRANCH  21  23
ENDBRANCH   3  16
TORSDOF 5
ENDMDL
MODEL 3
REMARK VINA RESULT:      -8.8      3.620      5.332
REMARK  5 active torsions:
REMARK  status: ('A' for Active; 'I' for Inactive)
REMARK    1  A    between atoms: C_2  and  C_3 
REMARK    2  A    between atoms: C_3  and  N_4 
REMARK    3  A    between atoms: C_3  and  C_19 
REMARK       I    between atoms: N_4  and  C_5 
REMARK       I    between atoms: C_5  and  N_6 
REMARK    4  A    between atoms: N_6  and  C_7 
REMARK    5  A    between atoms: C_12  and  C_13 
ROOT
HETATM    1  N   UNL     1       6.316  26.301  53.279  1.00  0.00    -0.334 N 
HETATM    2  C   UNL     1       7.209  26.412  54.285  1.00  0.00     0.321 C 
HETATM    3  N   UNL     1       7.981  25.338  54.601  1.00  0.00    -0.306 N 
HETATM    4  O   UNL     1       7.432  27.476  54.862  1.00  0.00    -0.247 OA
HETATM    5  H   UNL     1       5.978  25.380  53.055  1.00  0.00     0.165 HD
HETATM    6  H   UNL     1       8.738  25.643  55.201  1.00  0.00     0.171 HD
ENDROOT
BRANCH   1   7
HETATM    7  C   UNL     1       5.494  27.415  52.844  1.00  0.00     0.122 C 
BRANCH   7   8
HETATM    8  C   UNL     1       4.194  27.544  53.657  1.00  0.00     0.026 C 
HETATM    9  C   UNL     1       4.183  28.666  54.688  1.00  0.00     0.007 C 
ENDBRANCH   7   8
BRANCH   7  10
HETATM   10  C   UNL     1       5.272  27.299  51.366  1.00  0.00     0.001 A 
HETATM   11  C   UNL     1       5.297  28.268  50.378  1.00  0.00     0.122 A 
HETATM   12  N   UNL     1       4.998  27.637  49.207  1.00  0.00    -0.285 N 
HETATM   13  C   UNL     1       4.864  28.239  47.903  1.00  0.00     0.179 C 
HETATM   14  N   UNL     1       4.806  26.315  49.347  1.00  0.00    -0.185 NA
HETATM   15  C   UNL     1       4.963  26.112  50.657  1.00  0.00     0.149 A 
ENDBRANCH   7  10
ENDBRANCH   1   7
BRANCH   3  16
HETATM   16  C   UNL     1       7.984  23.977  54.234  1.00  0.00     0.075 A 
HETATM   17  C   UNL     1       7.965  23.469  52.932  1.00  0.00     0.143 A 
HETATM   18  F   UNL     1       7.907  24.276  51.863  1.00  0.00    -0.204 F 
HETATM   19  C   UNL     1       7.952  22.095  52.686  1.00  0.00     0.045 A 
HETATM   20  C   UNL     1       7.955  21.193  53.749  1.00  0.00     0.019 A 
HETATM   21  C   UNL     1       7.960  21.665  55.068  1.00  0.00     0.050 A 
HETATM   22  C   UNL     1       7.962  23.055  55.295  1.00  0.00     0.049 A 
BRANCH  21  23
HETATM   23  C   UNL     1       7.974  20.712  56.240  1.00  0.00     0.417 C 
HETATM   24  F   UNL     1       8.887  19.711  56.117  1.00  0.00    -0.166 F 
HETATM   25  F   UNL     1       8.261  21.341  57.412  1.00  0.00    -0.166 F 
HETATM   26  F   UNL     1       6.771  20.104  56.425  1.00  0.00    -0.166 F 
ENDBRANCH  21  23
ENDBRANCH   3  16
TORSDOF 5
ENDMDL
MODEL 4
REMARK VINA RESULT:      -8.7      1.710      2.867
REMARK  5 active torsions:
REMARK  status: ('A' for Active; 'I' for Inactive)
REMARK    1  A    between atoms: C_2  and  C_3 
REMARK    2  A    between atoms: C_3  and  N_4 
REMARK    3  A    between atoms: C_3  and  C_19 
REMARK       I    between atoms: N_4  and  C_5 
REMARK       I    between atoms: C_5  and  N_6 
REMARK    4  A    between atoms: N_6  and  C_7 
REMARK    5  A    between atoms: C_12  and  C_13 
ROOT
HETATM    1  N   UNL     1       7.218  26.730  56.816  1.00  0.00    -0.334 N 
HETATM    2  C   UNL     1       7.735  25.640  57.422  1.00  0.00     0.321 C 
HETATM    3  N   UNL     1       8.047  24.553  56.666  1.00  0.00    -0.306 N 
HETATM    4  O   UNL     1       8.035  25.622  58.616  1.00  0.00    -0.247 OA
HETATM    5  H   UNL     1       6.737  26.594  55.943  1.00  0.00     0.165 HD
HETATM    6  H   UNL     1       8.622  23.926  57.215  1.00  0.00     0.171 HD
ENDROOT
BRANCH   1   7
HETATM    7  C   UNL     1       6.909  27.948  57.542  1.00  0.00     0.122 C 
BRANCH   7   8
HETATM    8  C   UNL     1       5.580  28.583  57.096  1.00  0.00     0.026 C 
HETATM    9  C   UNL     1       4.688  27.687  56.244  1.00  0.00     0.007 C 
ENDBRANCH   7   8
BRANCH   7  10
HETATM   10  C   UNL     1       8.083  28.876  57.443  1.00  0.00     0.001 A 
HETATM   11  C   UNL     1       8.547  29.829  58.332  1.00  0.00     0.122 A 
HETATM   12  N   UNL     1       9.628  30.417  57.742  1.00  0.00    -0.285 N 
HETATM   13  C   UNL     1      10.425  31.498  58.267  1.00  0.00     0.179 C 
HETATM   14  N   UNL     1       9.926  29.899  56.540  1.00  0.00    -0.185 NA
HETATM   15  C   UNL     1       8.985  28.971  56.355  1.00  0.00     0.149 A 
ENDBRANCH   7  10
ENDBRANCH   1   7
BRANCH   3  16
HETATM   16  C   UNL     1       7.805  24.172  55.331  1.00  0.00     0.075 A 
HETATM   17  C   UNL     1       8.569  23.282  54.572  1.00  0.00     0.143 A 
HETATM   18  F   UNL     1       9.676  22.708  55.064  1.00  0.00    -0.204 F 
HETATM   19  C   UNL     1       8.245  22.991  53.245  1.00  0.00     0.045 A 
HETATM   20  C   UNL     1       7.139  23.591  52.647  1.00  0.00     0.019 A 
HETATM   21  C   UNL     1       6.358  24.499  53.372  1.00  0.00     0.050 A 
HETATM   22  C   UNL     1       6.707  24.788  54.705  1.00  0.00     0.049 A 
BRANCH  21  23
HETATM   23  C   UNL     1       5.147  25.158  52.754  1.00  0.00     0.417 C 
HETATM   24  F   UNL     1       4.982  26.456  53.129  1.00  0.00    -0.166 F 
HETATM   25  F   UNL     1       5.202  25.165  51.394  1.00  0.00    -0.166 F 
HETATM   26  F   UNL     1       3.989  24.522  53.080  1.00  0.00    -0.166 F 
ENDBRANCH  21  23
ENDBRANCH   3  16
TORSDOF 5
ENDMDL
MODEL 5
REMARK VINA RESULT:      -8.3      1.843      2.802
REMARK  5 active torsions:
REMARK  status: ('A' for Active; 'I' for Inactive)
REMARK    1  A    between atoms: C_2  and  C_3 
REMARK    2  A    between atoms: C_3  and  N_4 
REMARK    3  A    between atoms: C_3  and  C_19 
REMARK       I    between atoms: N_4  and  C_5 
REMARK       I    between atoms: C_5  and  N_6 
REMARK    4  A    between atoms: N_6  and  C_7 
REMARK    5  A    between atoms: C_12  and  C_13 
ROOT
HETATM    1  N   UNL     1       7.958  27.715  56.014  1.00  0.00    -0.334 N 
HETATM    2  C   UNL     1       7.617  26.820  56.966  1.00  0.00     0.321 C 
HETATM    3  N   UNL     1       7.303  25.551  56.593  1.00  0.00    -0.306 N 
HETATM    4  O   UNL     1       7.678  27.074  58.169  1.00  0.00    -0.247 OA
HETATM    5  H   UNL     1       7.619  27.554  55.081  1.00  0.00     0.165 HD
HETATM    6  H   UNL     1       7.297  24.960  57.416  1.00  0.00     0.171 HD
ENDROOT
BRANCH   1   7
HETATM    7  C   UNL     1       8.359  29.072  56.333  1.00  0.00     0.122 C 
BRANCH   7   8
HETATM    8  C   UNL     1       9.539  29.126  57.319  1.00  0.00     0.026 C 
HETATM    9  C   UNL     1      10.850  29.636  56.732  1.00  0.00     0.007 C 
ENDBRANCH   7   8
BRANCH   7  10
HETATM   10  C   UNL     1       7.152  29.831  56.796  1.00  0.00     0.001 A 
HETATM   11  C   UNL     1       5.905  29.974  56.212  1.00  0.00     0.122 A 
HETATM   12  N   UNL     1       5.184  30.793  57.031  1.00  0.00    -0.285 N 
HETATM   13  C   UNL     1       3.838  31.267  56.821  1.00  0.00     0.179 C 
HETATM   14  N   UNL     1       5.857  31.178  58.127  1.00  0.00    -0.185 NA
HETATM   15  C   UNL     1       7.052  30.602  57.981  1.00  0.00     0.149 A 
ENDBRANCH   7  10
ENDBRANCH   1   7
BRANCH   3  16
HETATM   16  C   UNL     1       7.063  24.909  55.362  1.00  0.00     0.075 A 
HETATM   17  C   UNL     1       6.203  25.349  54.351  1.00  0.00     0.143 A 
HETATM   18  F   UNL     1       5.469  26.462  54.488  1.00  0.00    -0.204 F 
HETATM   19  C   UNL     1       6.029  24.618  53.174  1.00  0.00     0.045 A 
HETATM   20  C   UNL     1       6.717  23.422  52.984  1.00  0.00     0.019 A 
HETATM   21  C   UNL     1       7.577  22.943  53.980  1.00  0.00     0.050 A 
HETATM   22  C   UNL     1       7.731  23.688  55.165  1.00  0.00     0.049 A 
BRANCH  21  23
HETATM   23  C   UNL     1       8.345  21.654  53.799  1.00  0.00     0.417 C 
HETATM   24  F   UNL     1       9.629  21.838  53.386  1.00  0.00    -0.166 F 
HETATM   25  F   UNL     1       8.420  20.932  54.950  1.00  0.00    -0.166 F 
HETATM   26  F   UNL     1       7.767  20.835  52.878  1.00  0.00    -0.166 F 
ENDBRANCH  21  23
ENDBRANCH   3  16
TORSDOF 5
ENDMDL
MODEL 6
REMARK VINA RESULT:      -8.2      4.120      7.580
REMARK  5 active torsions:
REMARK  status: ('A' for Active; 'I' for Inactive)
REMARK    1  A    between atoms: C_2  and  C_3 
REMARK    2  A    between atoms: C_3  and  N_4 
REMARK    3  A    between atoms: C_3  and  C_19 
REMARK       I    between atoms: N_4  and  C_5 
REMARK       I    between atoms: C_5  and  N_6 
REMARK    4  A    between atoms: N_6  and  C_7 
REMARK    5  A    between atoms: C_12  and  C_13 
ROOT
HETATM    1  N   UNL     1       7.028  26.325  54.773  1.00  0.00    -0.334 N 
HETATM    2  C   UNL     1       7.432  27.332  53.970  1.00  0.00     0.321 C 
HETATM    3  N   UNL     1       7.685  28.550  54.519  1.00  0.00    -0.306 N 
HETATM    4  O   UNL     1       7.682  27.171  52.775  1.00  0.00    -0.247 OA
HETATM    5  H   UNL     1       6.573  26.570  55.636  1.00  0.00     0.165 HD
HETATM    6  H   UNL     1       8.186  29.116  53.845  1.00  0.00     0.171 HD
ENDROOT
BRANCH   1   7
HETATM    7  C   UNL     1       6.789  24.983  54.274  1.00  0.00     0.122 C 
BRANCH   7   8
HETATM    8  C   UNL     1       5.304  24.722  53.964  1.00  0.00     0.026 C 
HETATM    9  C   UNL     1       4.925  24.809  52.490  1.00  0.00     0.007 C 
ENDBRANCH   7   8
BRANCH   7  10
HETATM   10  C   UNL     1       7.385  24.000  55.237  1.00  0.00     0.001 A 
HETATM   11  C   UNL     1       7.545  22.629  55.132  1.00  0.00     0.122 A 
HETATM   12  N   UNL     1       8.115  22.214  56.300  1.00  0.00    -0.285 N 
HETATM   13  C   UNL     1       8.436  20.860  56.678  1.00  0.00     0.179 C 
HETATM   14  N   UNL     1       8.368  23.218  57.156  1.00  0.00    -0.185 NA
HETATM   15  C   UNL     1       7.919  24.299  56.515  1.00  0.00     0.149 A 
ENDBRANCH   7  10
ENDBRANCH   1   7
BRANCH   3  16
HETATM   16  C   UNL     1       7.467  29.132  55.784  1.00  0.00     0.075 A 
HETATM   17  C   UNL     1       6.229  29.346  56.396  1.00  0.00     0.143 A 
HETATM   18  F   UNL     1       5.079  29.027  55.786  1.00  0.00    -0.204 F 
HETATM   19  C   UNL     1       6.131  29.951  57.650  1.00  0.00     0.045 A 
HETATM   20  C   UNL     1       7.281  30.360  58.323  1.00  0.00     0.019 A 
HETATM   21  C   UNL     1       8.539  30.175  57.734  1.00  0.00     0.050 A 
HETATM   22  C   UNL     1       8.616  29.572  56.464  1.00  0.00     0.049 A 
BRANCH  21  23
HETATM   23  C   UNL     1       9.804  30.599  58.443  1.00  0.00     0.417 C 
HETATM   24  F   UNL     1      10.110  31.914  58.273  1.00  0.00    -0.166 F 
HETATM   25  F   UNL     1       9.734  30.400  59.787  1.00  0.00    -0.166 F 
HETATM   26  F   UNL     1      10.892  29.902  58.016  1.00  0.00    -0.166 F 
ENDBRANCH  21  23
ENDBRANCH   3  16
TORSDOF 5
ENDMDL
MODEL 7
REMARK VINA RESULT:      -8.1      4.518      7.022
REMARK  5 active torsions:
REMARK  status: ('A' for Active; 'I' for Inactive)
REMARK    1  A    between atoms: C_2  and  C_3 
REMARK    2  A    between atoms: C_3  and  N_4 
REMARK    3  A    between atoms: C_3  and  C_19 
REMARK       I    between atoms: N_4  and  C_5 
REMARK       I    between atoms: C_5  and  N_6 
REMARK    4  A    between atoms: N_6  and  C_7 
REMARK    5  A    between atoms: C_12  and  C_13 
ROOT
HETATM    1  N   UNL     1       6.962  31.621  60.177  1.00  0.00    -0.334 N 
HETATM    2  C   UNL     1       7.969  31.645  59.278  1.00  0.00     0.321 C 
HETATM    3  N   UNL     1       7.873  30.876  58.161  1.00  0.00    -0.306 N 
HETATM    4  O   UNL     1       8.927  32.413  59.373  1.00  0.00    -0.247 OA
HETATM    5  H   UNL     1       6.381  30.801  60.203  1.00  0.00     0.165 HD
HETATM    6  H   UNL     1       8.577  31.174  57.496  1.00  0.00     0.171 HD
ENDROOT
BRANCH   1   7
HETATM    7  C   UNL     1       6.964  32.452  61.367  1.00  0.00     0.122 C 
BRANCH   7   8
HETATM    8  C   UNL     1       7.685  31.786  62.553  1.00  0.00     0.026 C 
HETATM    9  C   UNL     1       7.974  32.706  63.733  1.00  0.00     0.007 C 
ENDBRANCH   7   8
BRANCH   7  10
HETATM   10  C   UNL     1       5.553  32.858  61.670  1.00  0.00     0.001 A 
HETATM   11  C   UNL     1       4.856  34.002  61.324  1.00  0.00     0.122 A 
HETATM   12  N   UNL     1       3.615  33.885  61.878  1.00  0.00    -0.285 N 
HETATM   13  C   UNL     1       2.545  34.850  61.827  1.00  0.00     0.179 C 
HETATM   14  N   UNL     1       3.435  32.731  62.542  1.00  0.00    -0.185 NA
HETATM   15  C   UNL     1       4.612  32.113  62.423  1.00  0.00     0.149 A 
ENDBRANCH   7  10
ENDBRANCH   1   7
BRANCH   3  16
HETATM   16  C   UNL     1       7.002  29.854  57.733  1.00  0.00     0.075 A 
HETATM   17  C   UNL     1       5.637  29.987  57.463  1.00  0.00     0.143 A 
HETATM   18  F   UNL     1       4.997  31.153  57.628  1.00  0.00    -0.204 F 
HETATM   19  C   UNL     1       4.864  28.895  57.062  1.00  0.00     0.045 A 
HETATM   20  C   UNL     1       5.448  27.638  56.921  1.00  0.00     0.019 A 
HETATM   21  C   UNL     1       6.810  27.464  57.196  1.00  0.00     0.050 A 
HETATM   22  C   UNL     1       7.570  28.574  57.611  1.00  0.00     0.049 A 
BRANCH  21  23
HETATM   23  C   UNL     1       7.474  26.115  57.044  1.00  0.00     0.417 C 
HETATM   24  F   UNL     1       6.700  25.077  57.465  1.00  0.00    -0.166 F 
HETATM   25  F   UNL     1       7.796  25.842  55.751  1.00  0.00    -0.166 F 
HETATM   26  F   UNL     1       8.635  26.028  57.748  1.00  0.00    -0.166 F 
ENDBRANCH  21  23
ENDBRANCH   3  16
TORSDOF 5
ENDMDL
MODEL 8
REMARK VINA RESULT:      -8.1      2.144      3.339
REMARK  5 active torsions:
REMARK  status: ('A' for Active; 'I' for Inactive)
REMARK    1  A    between atoms: C_2  and  C_3 
REMARK    2  A    between atoms: C_3  and  N_4 
REMARK    3  A    between atoms: C_3  and  C_19 
REMARK       I    between atoms: N_4  and  C_5 
REMARK       I    between atoms: C_5  and  N_6 
REMARK    4  A    between atoms: N_6  and  C_7 
REMARK    5  A    between atoms: C_12  and  C_13 
ROOT
HETATM    1  N   UNL     1       7.182  26.723  55.792  1.00  0.00    -0.334 N 
HETATM    2  C   UNL     1       6.187  25.951  56.278  1.00  0.00     0.321 C 
HETATM    3  N   UNL     1       6.154  24.633  55.946  1.00  0.00    -0.306 N 
HETATM    4  O   UNL     1       5.364  26.363  57.096  1.00  0.00    -0.247 OA
HETATM    5  H   UNL     1       7.625  26.428  54.938  1.00  0.00     0.165 HD
HETATM    6  H   UNL     1       5.502  24.156  56.558  1.00  0.00     0.171 HD
ENDROOT
BRANCH   1   7
HETATM    7  C   UNL     1       7.318  28.124  56.142  1.00  0.00     0.122 C 
BRANCH   7   8
HETATM    8  C   UNL     1       7.601  28.336  57.640  1.00  0.00     0.026 C 
HETATM    9  C   UNL     1       8.630  29.413  57.959  1.00  0.00     0.007 C 
ENDBRANCH   7   8
BRANCH   7  10
HETATM   10  C   UNL     1       6.111  28.862  55.647  1.00  0.00     0.001 A 
HETATM   11  C   UNL     1       5.491  28.837  54.410  1.00  0.00     0.122 A 
HETATM   12  N   UNL     1       4.451  29.717  54.478  1.00  0.00    -0.285 N 
HETATM   13  C   UNL     1       3.537  30.066  53.419  1.00  0.00     0.179 C 
HETATM   14  N   UNL     1       4.324  30.299  55.681  1.00  0.00    -0.185 NA
HETATM   15  C   UNL     1       5.334  29.787  56.387  1.00  0.00     0.149 A 
ENDBRANCH   7  10
ENDBRANCH   1   7
BRANCH   3  16
HETATM   16  C   UNL     1       6.848  23.825  55.023  1.00  0.00     0.075 A 
HETATM   17  C   UNL     1       7.013  24.079  53.658  1.00  0.00     0.143 A 
HETATM   18  F   UNL     1       6.467  25.154  53.072  1.00  0.00    -0.204 F 
HETATM   19  C   UNL     1       7.708  23.195  52.831  1.00  0.00     0.045 A 
HETATM   20  C   UNL     1       8.257  22.028  53.358  1.00  0.00     0.019 A 
HETATM   21  C   UNL     1       8.100  21.733  54.719  1.00  0.00     0.050 A 
HETATM   22  C   UNL     1       7.386  22.631  55.534  1.00  0.00     0.049 A 
BRANCH  21  23
HETATM   23  C   UNL     1       8.692  20.480  55.321  1.00  0.00     0.417 C 
HETATM   24  F   UNL     1       9.828  20.703  56.037  1.00  0.00    -0.166 F 
HETATM   25  F   UNL     1       7.830  19.858  56.170  1.00  0.00    -0.166 F 
HETATM   26  F   UNL     1       9.019  19.557  54.375  1.00  0.00    -0.166 F 
ENDBRANCH  21  23
ENDBRANCH   3  16
TORSDOF 5
ENDMDL
MODEL 9
REMARK VINA RESULT:      -8.0      9.297     11.727
REMARK  5 active torsions:
REMARK  status: ('A' for Active; 'I' for Inactive)
REMARK    1  A    between atoms: C_2  and  C_3 
REMARK    2  A    between atoms: C_3  and  N_4 
REMARK    3  A    between atoms: C_3  and  C_19 
REMARK       I    between atoms: N_4  and  C_5 
REMARK       I    between atoms: C_5  and  N_6 
REMARK    4  A    between atoms: N_6  and  C_7 
REMARK    5  A    between atoms: C_12  and  C_13 
ROOT
HETATM    1  N   UNL     1       4.385  34.453  63.525  1.00  0.00    -0.334 N 
HETATM    2  C   UNL     1       3.442  33.656  62.980  1.00  0.00     0.321 C 
HETATM    3  N   UNL     1       3.811  32.750  62.035  1.00  0.00    -0.306 N 
HETATM    4  O   UNL     1       2.276  33.638  63.375  1.00  0.00    -0.247 OA
HETATM    5  H   UNL     1       5.215  34.629  62.985  1.00  0.00     0.165 HD
HETATM    6  H   UNL     1       3.054  32.091  61.898  1.00  0.00     0.171 HD
ENDROOT
BRANCH   1   7
HETATM    7  C   UNL     1       4.082  35.406  64.576  1.00  0.00     0.122 C 
BRANCH   7   8
HETATM    8  C   UNL     1       4.283  36.865  64.129  1.00  0.00     0.026 C 
HETATM    9  C   UNL     1       5.649  37.176  63.529  1.00  0.00     0.007 C 
ENDBRANCH   7   8
BRANCH   7  10
HETATM   10  C   UNL     1       4.869  35.037  65.799  1.00  0.00     0.001 A 
HETATM   11  C   UNL     1       4.694  35.408  67.121  1.00  0.00     0.122 A 
HETATM   12  N   UNL     1       5.703  34.819  67.826  1.00  0.00    -0.285 N 
HETATM   13  C   UNL     1       5.966  34.946  69.238  1.00  0.00     0.179 C 
HETATM   14  N   UNL     1       6.513  34.063  67.067  1.00  0.00    -0.185 NA
HETATM   15  C   UNL     1       6.012  34.202  65.838  1.00  0.00     0.149 A 
ENDBRANCH   7  10
ENDBRANCH   1   7
BRANCH   3  16
HETATM   16  C   UNL     1       4.987  32.513  61.295  1.00  0.00     0.075 A 
HETATM   17  C   UNL     1       5.093  32.450  59.903  1.00  0.00     0.143 A 
HETATM   18  F   UNL     1       4.021  32.586  59.109  1.00  0.00    -0.204 F 
HETATM   19  C   UNL     1       6.312  32.188  59.276  1.00  0.00     0.045 A 
HETATM   20  C   UNL     1       7.461  31.982  60.037  1.00  0.00     0.019 A 
HETATM   21  C   UNL     1       7.391  32.024  61.435  1.00  0.00     0.050 A 
HETATM   22  C   UNL     1       6.149  32.277  62.050  1.00  0.00     0.049 A 
BRANCH  21  23
HETATM   23  C   UNL     1       8.621  31.813  62.287  1.00  0.00     0.417 C 
HETATM   24  F   UNL     1       8.647  32.587  63.407  1.00  0.00    -0.166 F 
HETATM   25  F   UNL     1       8.737  30.527  62.717  1.00  0.00    -0.166 F 
HETATM   26  F   UNL     1       9.770  32.090  61.612  1.00  0.00    -0.166 F 
ENDBRANCH  21  23
ENDBRANCH   3  16
TORSDOF 5
ENDMDL
MODEL 10
REMARK VINA RESULT:      -8.0      7.757     10.731
REMARK  5 active torsions:
REMARK  status: ('A' for Active; 'I' for Inactive)
REMARK    1  A    between atoms: C_2  and  C_3 
REMARK    2  A    between atoms: C_3  and  N_4 
REMARK    3  A    between atoms: C_3  and  C_19 
REMARK       I    between atoms: N_4  and  C_5 
REMARK       I    between atoms: C_5  and  N_6 
REMARK    4  A    between atoms: N_6  and  C_7 
REMARK    5  A    between atoms: C_12  and  C_13 
ROOT
HETATM    1  N   UNL     1       5.069  33.538  62.861  1.00  0.00    -0.334 N 
HETATM    2  C   UNL     1       4.765  32.267  62.521  1.00  0.00     0.321 C 
HETATM    3  N   UNL     1       5.768  31.430  62.142  1.00  0.00    -0.306 N 
HETATM    4  O   UNL     1       3.632  31.800  62.638  1.00  0.00    -0.247 OA
HETATM    5  H   UNL     1       5.912  33.933  62.480  1.00  0.00     0.165 HD
HETATM    6  H   UNL     1       5.419  30.479  62.143  1.00  0.00     0.171 HD
ENDROOT
BRANCH   1   7
HETATM    7  C   UNL     1       4.067  34.477  63.328  1.00  0.00     0.122 C 
BRANCH   7   8
HETATM    8  C   UNL     1       4.011  35.756  62.474  1.00  0.00     0.026 C 
HETATM    9  C   UNL     1       4.256  35.552  60.984  1.00  0.00     0.007 C 
ENDBRANCH   7   8
BRANCH   7  10
HETATM   10  C   UNL     1       4.295  34.736  64.787  1.00  0.00     0.001 A 
HETATM   11  C   UNL     1       4.679  33.875  65.800  1.00  0.00     0.122 A 
HETATM   12  N   UNL     1       4.709  34.612  66.947  1.00  0.00    -0.285 N 
HETATM   13  C   UNL     1       5.014  34.142  68.276  1.00  0.00     0.179 C 
HETATM   14  N   UNL     1       4.399  35.905  66.757  1.00  0.00    -0.185 NA
HETATM   15  C   UNL     1       4.140  35.978  65.450  1.00  0.00     0.149 A 
ENDBRANCH   7  10
ENDBRANCH   1   7
BRANCH   3  16
HETATM   16  C   UNL     1       7.132  31.594  61.830  1.00  0.00     0.075 A 
HETATM   17  C   UNL     1       8.133  32.043  62.696  1.00  0.00     0.143 A 
HETATM   18  F   UNL     1       7.860  32.406  63.957  1.00  0.00    -0.204 F 
HETATM   19  C   UNL     1       9.455  32.186  62.271  1.00  0.00     0.045 A 
HETATM   20  C   UNL     1       9.805  31.880  60.957  1.00  0.00     0.019 A 
HETATM   21  C   UNL     1       8.826  31.441  60.056  1.00  0.00     0.050 A 
HETATM   22  C   UNL     1       7.496  31.314  60.501  1.00  0.00     0.049 A 
BRANCH  21  23
HETATM   23  C   UNL     1       9.177  31.093  58.628  1.00  0.00     0.417 C 
HETATM   24  F   UNL     1      10.099  31.927  58.075  1.00  0.00    -0.166 F 
HETATM   25  F   UNL     1       9.690  29.838  58.514  1.00  0.00    -0.166 F 
HETATM   26  F   UNL     1       8.093  31.132  57.806  1.00  0.00    -0.166 F 
ENDBRANCH  21  23
ENDBRANCH   3  16
TORSDOF 5
ENDMDL
