MODEL 1
REMARK VINA RESULT:      -9.8      0.000      0.000
REMARK  5 active torsions:
REMARK  status: ('A' for Active; 'I' for Inactive)
REMARK    1  A    between atoms: C_5  and  C_6 
REMARK    2  A    between atoms: C_10  and  C_11 
REMARK       I    between atoms: C_11  and  N_12 
REMARK    3  A    between atoms: N_12  and  C_13 
REMARK    4  A    between atoms: C_14  and  C_15 
REMARK       I    between atoms: C_15  and  N_16 
REMARK    5  A    between atoms: N_16  and  C_17 
ROOT
HETATM    1  C   UNL     1       6.903  31.846  60.037  1.00  0.00     0.274 C 
HETATM    2  N   UNL     1       7.672  30.710  59.915  1.00  0.00    -0.321 N 
HETATM    3  O   UNL     1       6.662  32.639  59.138  1.00  0.00    -0.266 OA
HETATM    4  H   UNL     1       7.467  29.974  60.575  1.00  0.00     0.169 HD
ENDROOT
BRANCH   1   5
HETATM    5  C   UNL     1       6.376  32.033  61.367  1.00  0.00     0.120 A 
HETATM    6  N   UNL     1       5.119  31.624  61.719  1.00  0.00    -0.272 N 
HETATM    7  N   UNL     1       4.742  32.015  62.950  1.00  0.00    -0.174 NA
HETATM    8  H   UNL     1       4.456  31.121  61.137  1.00  0.00     0.189 HD
HETATM    9  C   UNL     1       5.808  32.668  63.436  1.00  0.00     0.089 A 
HETATM   10  C   UNL     1       6.864  32.676  62.486  1.00  0.00     0.071 A 
BRANCH   9  11
HETATM   11  C   UNL     1       5.805  33.336  64.736  1.00  0.00    -0.006 A 
HETATM   12  C   UNL     1       4.596  33.648  65.373  1.00  0.00     0.014 A 
HETATM   13  C   UNL     1       4.593  34.193  66.660  1.00  0.00     0.007 A 
HETATM   14  C   UNL     1       5.798  34.442  67.327  1.00  0.00    -0.062 A 
HETATM   15  C   UNL     1       5.791  34.958  68.736  1.00  0.00     0.048 C 
HETATM   16  C   UNL     1       7.006  34.138  66.688  1.00  0.00     0.007 A 
HETATM   17  C   UNL     1       7.010  33.599  65.398  1.00  0.00     0.014 A 
ENDBRANCH   9  11
ENDBRANCH   1   5
BRANCH   2  18
HETATM   18  C   UNL     1       8.608  30.388  58.907  1.00  0.00     0.050 A 
HETATM   19  C   UNL     1       8.566  29.298  58.022  1.00  0.00     0.058 A 
HETATM   20  C   UNL     1       9.608  29.117  57.089  1.00  0.00     0.019 A 
HETATM   21  C   UNL     1      10.657  30.030  56.994  1.00  0.00     0.001 A 
HETATM   22  C   UNL     1      10.677  31.137  57.830  1.00  0.00     0.002 A 
HETATM   23  C   UNL     1       9.661  31.314  58.773  1.00  0.00     0.030 A 
BRANCH  19  24
HETATM   24  C   UNL     1       7.467  28.316  57.878  1.00  0.00     0.254 C 
HETATM   25  N   UNL     1       6.270  28.688  57.305  1.00  0.00    -0.352 N 
HETATM   26  H   UNL     1       5.613  27.917  57.254  1.00  0.00     0.163 HD
HETATM   27  O   UNL     1       7.674  27.136  58.157  1.00  0.00    -0.268 OA
BRANCH  25  28
HETATM   28  C   UNL     1       5.863  29.954  56.797  1.00  0.00     0.084 A 
HETATM   29  C   UNL     1       4.729  30.132  55.829  1.00  0.00     0.027 A 
HETATM   30  C   UNL     1       4.555  30.544  57.259  1.00  0.00     0.027 A 
ENDBRANCH  25  28
ENDBRANCH  19  24
ENDBRANCH   2  18
TORSDOF 5
ENDMDL
MODEL 2
REMARK VINA RESULT:      -9.6      2.587      4.425
REMARK  5 active torsions:
REMARK  status: ('A' for Active; 'I' for Inactive)
REMARK    1  A    between atoms: C_5  and  C_6 
REMARK    2  A    between atoms: C_10  and  C_11 
REMARK       I    between atoms: C_11  and  N_12 
REMARK    3  A    between atoms: N_12  and  C_13 
REMARK    4  A    between atoms: C_14  and  C_15 
REMARK       I    between atoms: C_15  and  N_16 
REMARK    5  A    between atoms: N_16  and  C_17 
ROOT
HETATM    1  C   UNL     1       8.981  29.429  57.489  1.00  0.00     0.274 C 
HETATM    2  N   UNL     1       7.802  28.754  57.256  1.00  0.00    -0.321 N 
HETATM    3  O   UNL     1      10.060  29.172  56.974  1.00  0.00    -0.266 OA
HETATM    4  H   UNL     1       6.959  29.287  57.412  1.00  0.00     0.169 HD
ENDROOT
BRANCH   1   5
HETATM    5  C   UNL     1       8.834  30.516  58.427  1.00  0.00     0.120 A 
HETATM    6  N   UNL     1       9.716  31.560  58.479  1.00  0.00    -0.272 N 
HETATM    7  N   UNL     1       9.511  32.398  59.512  1.00  0.00    -0.174 NA
HETATM    8  H   UNL     1      10.510  31.719  57.866  1.00  0.00     0.189 HD
HETATM    9  C   UNL     1       8.429  31.907  60.133  1.00  0.00     0.089 A 
HETATM   10  C   UNL     1       7.956  30.744  59.467  1.00  0.00     0.071 A 
BRANCH   9  11
HETATM   11  C   UNL     1       7.897  32.474  61.370  1.00  0.00    -0.006 A 
HETATM   12  C   UNL     1       6.677  33.164  61.370  1.00  0.00     0.014 A 
HETATM   13  C   UNL     1       6.118  33.618  62.568  1.00  0.00     0.007 A 
HETATM   14  C   UNL     1       6.774  33.397  63.784  1.00  0.00    -0.062 A 
HETATM   15  C   UNL     1       6.138  33.820  65.075  1.00  0.00     0.048 C 
HETATM   16  C   UNL     1       7.997  32.716  63.784  1.00  0.00     0.007 A 
HETATM   17  C   UNL     1       8.560  32.268  62.585  1.00  0.00     0.014 A 
ENDBRANCH   9  11
ENDBRANCH   1   5
BRANCH   2  18
HETATM   18  C   UNL     1       7.624  27.469  56.698  1.00  0.00     0.050 A 
HETATM   19  C   UNL     1       7.482  27.143  55.339  1.00  0.00     0.058 A 
HETATM   20  C   UNL     1       7.285  25.798  54.962  1.00  0.00     0.019 A 
HETATM   21  C   UNL     1       7.278  24.777  55.910  1.00  0.00     0.001 A 
HETATM   22  C   UNL     1       7.470  25.087  57.249  1.00  0.00     0.002 A 
HETATM   23  C   UNL     1       7.644  26.418  57.636  1.00  0.00     0.030 A 
BRANCH  19  24
HETATM   24  C   UNL     1       7.608  28.067  54.189  1.00  0.00     0.254 C 
HETATM   25  N   UNL     1       6.488  28.475  53.497  1.00  0.00    -0.352 N 
HETATM   26  H   UNL     1       6.714  29.118  52.746  1.00  0.00     0.163 HD
HETATM   27  O   UNL     1       8.702  28.568  53.937  1.00  0.00    -0.268 OA
BRANCH  25  28
HETATM   28  C   UNL     1       5.122  28.128  53.697  1.00  0.00     0.084 A 
HETATM   29  C   UNL     1       4.294  28.647  54.837  1.00  0.00     0.027 A 
HETATM   30  C   UNL     1       4.057  29.165  53.450  1.00  0.00     0.027 A 
ENDBRANCH  25  28
ENDBRANCH  19  24
ENDBRANCH   2  18
TORSDOF 5
ENDMDL
MODEL 3
REMARK VINA RESULT:      -9.4     10.173     12.288
REMARK  5 active torsions:
REMARK  status: ('A' for Active; 'I' for Inactive)
REMARK    1  A    between atoms: C_5  and  C_6 
REMARK    2  A    between atoms: C_10  and  C_11 
REMARK       I    between atoms: C_11  and  N_12 
REMARK    3  A    between atoms: N_12  and  C_13 
REMARK    4  A    between atoms: C_14  and  C_15 
REMARK       I    between atoms: C_15  and  N_16 
REMARK    5  A    between atoms: N_16  and  C_17 
ROOT
HETATM    1  C   UNL     1       4.278  27.769  52.685  1.00  0.00     0.274 C 
HETATM    2  N   UNL     1       4.538  27.731  51.333  1.00  0.00    -0.321 N 
HETATM    3  O   UNL     1       3.628  28.631  53.259  1.00  0.00    -0.266 OA
HETATM    4  H   UNL     1       4.720  26.815  50.951  1.00  0.00     0.169 HD
ENDROOT
BRANCH   1   5
HETATM    5  C   UNL     1       4.856  26.659  53.403  1.00  0.00     0.120 A 
HETATM    6  N   UNL     1       4.957  26.644  54.767  1.00  0.00    -0.272 N 
HETATM    7  N   UNL     1       5.658  25.603  55.252  1.00  0.00    -0.174 NA
HETATM    8  H   UNL     1       4.610  27.348  55.412  1.00  0.00     0.189 HD
HETATM    9  C   UNL     1       5.993  24.889  54.168  1.00  0.00     0.089 A 
HETATM   10  C   UNL     1       5.484  25.501  52.991  1.00  0.00     0.071 A 
BRANCH   9  11
HETATM   11  C   UNL     1       6.837  23.699  54.231  1.00  0.00    -0.006 A 
HETATM   12  C   UNL     1       7.159  23.118  55.466  1.00  0.00     0.014 A 
HETATM   13  C   UNL     1       7.881  21.923  55.521  1.00  0.00     0.007 A 
HETATM   14  C   UNL     1       8.299  21.293  54.344  1.00  0.00    -0.062 A 
HETATM   15  C   UNL     1       9.010  19.973  54.403  1.00  0.00     0.048 C 
HETATM   16  C   UNL     1       7.986  21.876  53.111  1.00  0.00     0.007 A 
HETATM   17  C   UNL     1       7.270  23.075  53.055  1.00  0.00     0.014 A 
ENDBRANCH   9  11
ENDBRANCH   1   5
BRANCH   2  18
HETATM   18  C   UNL     1       4.447  28.782  50.393  1.00  0.00     0.050 A 
HETATM   19  C   UNL     1       3.370  29.068  49.537  1.00  0.00     0.058 A 
HETATM   20  C   UNL     1       3.463  30.150  48.637  1.00  0.00     0.019 A 
HETATM   21  C   UNL     1       4.586  30.976  48.616  1.00  0.00     0.001 A 
HETATM   22  C   UNL     1       5.630  30.730  49.496  1.00  0.00     0.002 A 
HETATM   23  C   UNL     1       5.558  29.648  50.376  1.00  0.00     0.030 A 
BRANCH  19  24
HETATM   24  C   UNL     1       2.051  28.396  49.520  1.00  0.00     0.254 C 
HETATM   25  N   UNL     1       1.833  27.308  48.703  1.00  0.00    -0.352 N 
HETATM   26  H   UNL     1       0.894  26.936  48.802  1.00  0.00     0.163 HD
HETATM   27  O   UNL     1       1.192  28.736  50.333  1.00  0.00    -0.268 OA
BRANCH  25  28
HETATM   28  C   UNL     1       2.716  26.670  47.787  1.00  0.00     0.084 A 
HETATM   29  C   UNL     1       3.971  25.958  48.206  1.00  0.00     0.027 A 
HETATM   30  C   UNL     1       2.781  25.165  47.756  1.00  0.00     0.027 A 
ENDBRANCH  25  28
ENDBRANCH  19  24
ENDBRANCH   2  18
TORSDOF 5
ENDMDL
MODEL 4
REMARK VINA RESULT:      -9.4      2.585      8.534
REMARK  5 active torsions:
REMARK  status: ('A' for Active; 'I' for Inactive)
REMARK    1  A    between atoms: C_5  and  C_6 
REMARK    2  A    between atoms: C_10  and  C_11 
REMARK       I    between atoms: C_11  and  N_12 
REMARK    3  A    between atoms: N_12  and  C_13 
REMARK    4  A    between atoms: C_14  and  C_15 
REMARK       I    between atoms: C_15  and  N_16 
REMARK    5  A    between atoms: N_16  and  C_17 
ROOT
HETATM    1  C   UNL     1       7.597  31.343  59.683  1.00  0.00     0.274 C 
HETATM    2  N   UNL     1       7.151  31.022  60.947  1.00  0.00    -0.321 N 
HETATM    3  O   UNL     1       8.171  32.378  59.375  1.00  0.00    -0.266 OA
HETATM    4  H   UNL     1       7.071  30.035  61.141  1.00  0.00     0.169 HD
ENDROOT
BRANCH   1   5
HETATM    5  C   UNL     1       7.324  30.314  58.709  1.00  0.00     0.120 A 
HETATM    6  N   UNL     1       6.113  30.204  58.083  1.00  0.00    -0.272 N 
HETATM    7  N   UNL     1       5.988  29.100  57.324  1.00  0.00    -0.174 NA
HETATM    8  H   UNL     1       5.317  30.827  58.181  1.00  0.00     0.189 HD
HETATM    9  C   UNL     1       7.176  28.487  57.425  1.00  0.00     0.089 A 
HETATM   10  C   UNL     1       8.052  29.232  58.260  1.00  0.00     0.071 A 
BRANCH   9  11
HETATM   11  C   UNL     1       7.456  27.192  56.811  1.00  0.00    -0.006 A 
HETATM   12  C   UNL     1       7.913  26.118  57.588  1.00  0.00     0.014 A 
HETATM   13  C   UNL     1       8.083  24.853  57.020  1.00  0.00     0.007 A 
HETATM   14  C   UNL     1       7.807  24.641  55.665  1.00  0.00    -0.062 A 
HETATM   15  C   UNL     1       7.920  23.267  55.075  1.00  0.00     0.048 C 
HETATM   16  C   UNL     1       7.358  25.714  54.886  1.00  0.00     0.007 A 
HETATM   17  C   UNL     1       7.195  26.982  55.451  1.00  0.00     0.014 A 
ENDBRANCH   9  11
ENDBRANCH   1   5
BRANCH   2  18
HETATM   18  C   UNL     1       6.927  31.885  62.043  1.00  0.00     0.050 A 
HETATM   19  C   UNL     1       5.711  32.473  62.430  1.00  0.00     0.058 A 
HETATM   20  C   UNL     1       5.678  33.335  63.545  1.00  0.00     0.019 A 
HETATM   21  C   UNL     1       6.822  33.578  64.303  1.00  0.00     0.001 A 
HETATM   22  C   UNL     1       8.014  32.958  63.957  1.00  0.00     0.002 A 
HETATM   23  C   UNL     1       8.064  32.119  62.842  1.00  0.00     0.030 A 
BRANCH  19  24
HETATM   24  C   UNL     1       4.378  32.219  61.838  1.00  0.00     0.254 C 
HETATM   25  N   UNL     1       4.017  32.818  60.651  1.00  0.00    -0.352 N 
HETATM   26  H   UNL     1       3.086  32.546  60.351  1.00  0.00     0.163 HD
HETATM   27  O   UNL     1       3.645  31.372  62.347  1.00  0.00    -0.268 OA
BRANCH  25  28
HETATM   28  C   UNL     1       4.751  33.721  59.831  1.00  0.00     0.084 A 
HETATM   29  C   UNL     1       4.803  33.623  58.333  1.00  0.00     0.027 A 
HETATM   30  C   UNL     1       4.002  34.713  58.978  1.00  0.00     0.027 A 
ENDBRANCH  25  28
ENDBRANCH  19  24
ENDBRANCH   2  18
TORSDOF 5
ENDMDL
MODEL 5
REMARK VINA RESULT:      -9.3      4.063     10.314
REMARK  5 active torsions:
REMARK  status: ('A' for Active; 'I' for Inactive)
REMARK    1  A    between atoms: C_5  and  C_6 
REMARK    2  A    between atoms: C_10  and  C_11 
REMARK       I    between atoms: C_11  and  N_12 
REMARK    3  A    between atoms: N_12  and  C_13 
REMARK    4  A    between atoms: C_14  and  C_15 
REMARK       I    between atoms: C_15  and  N_16 
REMARK    5  A    between atoms: N_16  and  C_17 
ROOT
HETATM    1  C   UNL     1       7.246  28.775  56.710  1.00  0.00     0.274 C 
HETATM    2  N   UNL     1       6.578  29.174  57.848  1.00  0.00    -0.321 N 
HETATM    3  O   UNL     1       7.730  29.522  55.872  1.00  0.00    -0.266 OA
HETATM    4  H   UNL     1       6.590  28.515  58.612  1.00  0.00     0.169 HD
ENDROOT
BRANCH   1   5
HETATM    5  C   UNL     1       7.335  27.341  56.582  1.00  0.00     0.120 A 
HETATM    6  N   UNL     1       7.761  26.540  57.606  1.00  0.00    -0.272 N 
HETATM    7  N   UNL     1       7.926  25.250  57.260  1.00  0.00    -0.174 NA
HETATM    8  H   UNL     1       8.005  26.833  58.547  1.00  0.00     0.189 HD
HETATM    9  C   UNL     1       7.554  25.198  55.973  1.00  0.00     0.089 A 
HETATM   10  C   UNL     1       7.148  26.481  55.518  1.00  0.00     0.071 A 
BRANCH   9  11
HETATM   11  C   UNL     1       7.651  23.983  55.167  1.00  0.00    -0.006 A 
HETATM   12  C   UNL     1       7.721  24.059  53.769  1.00  0.00     0.014 A 
HETATM   13  C   UNL     1       7.916  22.905  53.005  1.00  0.00     0.007 A 
HETATM   14  C   UNL     1       8.036  21.656  53.625  1.00  0.00    -0.062 A 
HETATM   15  C   UNL     1       8.319  20.430  52.808  1.00  0.00     0.048 C 
HETATM   16  C   UNL     1       7.958  21.578  55.020  1.00  0.00     0.007 A 
HETATM   17  C   UNL     1       7.756  22.731  55.785  1.00  0.00     0.014 A 
ENDBRANCH   9  11
ENDBRANCH   1   5
BRANCH   2  18
HETATM   18  C   UNL     1       6.004  30.433  58.131  1.00  0.00     0.050 A 
HETATM   19  C   UNL     1       6.614  31.522  58.777  1.00  0.00     0.058 A 
HETATM   20  C   UNL     1       5.875  32.703  58.999  1.00  0.00     0.019 A 
HETATM   21  C   UNL     1       4.564  32.829  58.545  1.00  0.00     0.001 A 
HETATM   22  C   UNL     1       3.974  31.777  57.859  1.00  0.00     0.002 A 
HETATM   23  C   UNL     1       4.689  30.594  57.652  1.00  0.00     0.030 A 
BRANCH  19  24
HETATM   24  C   UNL     1       8.030  31.622  59.196  1.00  0.00     0.254 C 
HETATM   25  N   UNL     1       8.357  31.714  60.531  1.00  0.00    -0.352 N 
HETATM   26  H   UNL     1       9.360  31.760  60.678  1.00  0.00     0.163 HD
HETATM   27  O   UNL     1       8.918  31.494  58.353  1.00  0.00    -0.268 OA
BRANCH  25  28
HETATM   28  C   UNL     1       7.508  31.747  61.672  1.00  0.00     0.084 A 
HETATM   29  C   UNL     1       8.009  31.958  63.072  1.00  0.00     0.027 A 
HETATM   30  C   UNL     1       7.270  33.060  62.374  1.00  0.00     0.027 A 
ENDBRANCH  25  28
ENDBRANCH  19  24
ENDBRANCH   2  18
TORSDOF 5
ENDMDL
MODEL 6
REMARK VINA RESULT:      -9.2      3.645      6.526
REMARK  5 active torsions:
REMARK  status: ('A' for Active; 'I' for Inactive)
REMARK    1  A    between atoms: C_5  and  C_6 
REMARK    2  A    between atoms: C_10  and  C_11 
REMARK       I    between atoms: C_11  and  N_12 
REMARK    3  A    between atoms: N_12  and  C_13 
REMARK    4  A    between atoms: C_14  and  C_15 
REMARK       I    between atoms: C_15  and  N_16 
REMARK    5  A    between atoms: N_16  and  C_17 
ROOT
HETATM    1  C   UNL     1       7.900  28.683  55.378  1.00  0.00     0.274 C 
HETATM    2  N   UNL     1       6.639  28.142  55.500  1.00  0.00    -0.321 N 
HETATM    3  O   UNL     1       8.615  28.600  54.390  1.00  0.00    -0.266 OA
HETATM    4  H   UNL     1       6.032  28.601  56.163  1.00  0.00     0.169 HD
ENDROOT
BRANCH   1   5
HETATM    5  C   UNL     1       8.329  29.390  56.560  1.00  0.00     0.120 A 
HETATM    6  N   UNL     1       9.648  29.519  56.897  1.00  0.00    -0.272 N 
HETATM    7  N   UNL     1       9.853  30.073  58.106  1.00  0.00    -0.174 NA
HETATM    8  H   UNL     1      10.448  29.196  56.361  1.00  0.00     0.189 HD
HETATM    9  C   UNL     1       8.623  30.356  58.558  1.00  0.00     0.089 A 
HETATM   10  C   UNL     1       7.641  29.970  57.606  1.00  0.00     0.071 A 
BRANCH   9  11
HETATM   11  C   UNL     1       8.373  30.906  59.888  1.00  0.00    -0.006 A 
HETATM   12  C   UNL     1       9.174  30.531  60.976  1.00  0.00     0.014 A 
HETATM   13  C   UNL     1       9.000  31.134  62.225  1.00  0.00     0.007 A 
HETATM   14  C   UNL     1       8.020  32.114  62.409  1.00  0.00    -0.062 A 
HETATM   15  C   UNL     1       7.885  32.811  63.731  1.00  0.00     0.048 C 
HETATM   16  C   UNL     1       7.214  32.483  61.326  1.00  0.00     0.007 A 
HETATM   17  C   UNL     1       7.382  31.876  60.078  1.00  0.00     0.014 A 
ENDBRANCH   9  11
ENDBRANCH   1   5
BRANCH   2  18
HETATM   18  C   UNL     1       6.043  27.124  54.724  1.00  0.00     0.050 A 
HETATM   19  C   UNL     1       6.007  25.748  55.005  1.00  0.00     0.058 A 
HETATM   20  C   UNL     1       5.385  24.866  54.097  1.00  0.00     0.019 A 
HETATM   21  C   UNL     1       4.760  25.341  52.945  1.00  0.00     0.001 A 
HETATM   22  C   UNL     1       4.746  26.704  52.688  1.00  0.00     0.002 A 
HETATM   23  C   UNL     1       5.378  27.585  53.570  1.00  0.00     0.030 A 
BRANCH  19  24
HETATM   24  C   UNL     1       6.485  25.084  56.239  1.00  0.00     0.254 C 
HETATM   25  N   UNL     1       7.510  24.164  56.183  1.00  0.00    -0.352 N 
HETATM   26  H   UNL     1       7.748  23.800  57.100  1.00  0.00     0.163 HD
HETATM   27  O   UNL     1       6.051  25.455  57.329  1.00  0.00    -0.268 OA
BRANCH  25  28
HETATM   28  C   UNL     1       8.239  23.687  55.059  1.00  0.00     0.084 A 
HETATM   29  C   UNL     1       9.214  22.546  55.127  1.00  0.00     0.027 A 
HETATM   30  C   UNL     1       7.884  22.348  54.466  1.00  0.00     0.027 A 
ENDBRANCH  25  28
ENDBRANCH  19  24
ENDBRANCH   2  18
TORSDOF 5
ENDMDL
MODEL 7
REMARK VINA RESULT:      -9.2      4.202      6.653
REMARK  5 active torsions:
REMARK  status: ('A' for Active; 'I' for Inactive)
REMARK    1  A    between atoms: C_5  and  C_6 
REMARK    2  A    between atoms: C_10  and  C_11 
REMARK       I    between atoms: C_11  and  N_12 
REMARK    3  A    between atoms: N_12  and  C_13 
REMARK    4  A    between atoms: C_14  and  C_15 
REMARK       I    between atoms: C_15  and  N_16 
REMARK    5  A    between atoms: N_16  and  C_17 
ROOT
HETATM    1  C   UNL     1       7.851  28.359  55.326  1.00  0.00     0.274 C 
HETATM    2  N   UNL     1       7.074  27.233  55.157  1.00  0.00    -0.321 N 
HETATM    3  O   UNL     1       8.790  28.687  54.614  1.00  0.00    -0.266 OA
HETATM    4  H   UNL     1       6.140  27.290  55.535  1.00  0.00     0.169 HD
ENDROOT
BRANCH   1   5
HETATM    5  C   UNL     1       7.450  29.157  56.459  1.00  0.00     0.120 A 
HETATM    6  N   UNL     1       6.362  29.985  56.421  1.00  0.00    -0.272 N 
HETATM    7  N   UNL     1       6.229  30.763  57.510  1.00  0.00    -0.174 NA
HETATM    8  H   UNL     1       5.708  30.097  55.652  1.00  0.00     0.189 HD
HETATM    9  C   UNL     1       7.243  30.401  58.308  1.00  0.00     0.089 A 
HETATM   10  C   UNL     1       8.015  29.375  57.699  1.00  0.00     0.071 A 
BRANCH   9  11
HETATM   11  C   UNL     1       7.525  31.058  59.582  1.00  0.00    -0.006 A 
HETATM   12  C   UNL     1       6.712  32.105  60.039  1.00  0.00     0.014 A 
HETATM   13  C   UNL     1       6.920  32.664  61.303  1.00  0.00     0.007 A 
HETATM   14  C   UNL     1       7.947  32.192  62.127  1.00  0.00    -0.062 A 
HETATM   15  C   UNL     1       8.121  32.744  63.511  1.00  0.00     0.048 C 
HETATM   16  C   UNL     1       8.765  31.153  61.668  1.00  0.00     0.007 A 
HETATM   17  C   UNL     1       8.563  30.597  60.402  1.00  0.00     0.014 A 
ENDBRANCH   9  11
ENDBRANCH   1   5
BRANCH   2  18
HETATM   18  C   UNL     1       7.364  26.073  54.406  1.00  0.00     0.050 A 
HETATM   19  C   UNL     1       7.738  24.811  54.898  1.00  0.00     0.058 A 
HETATM   20  C   UNL     1       8.017  23.765  53.994  1.00  0.00     0.019 A 
HETATM   21  C   UNL     1       7.879  23.945  52.618  1.00  0.00     0.001 A 
HETATM   22  C   UNL     1       7.459  25.173  52.129  1.00  0.00     0.002 A 
HETATM   23  C   UNL     1       7.201  26.223  53.014  1.00  0.00     0.030 A 
BRANCH  19  24
HETATM   24  C   UNL     1       7.794  24.396  56.318  1.00  0.00     0.254 C 
HETATM   25  N   UNL     1       8.073  23.088  56.651  1.00  0.00    -0.352 N 
HETATM   26  H   UNL     1       8.097  22.945  57.656  1.00  0.00     0.163 HD
HETATM   27  O   UNL     1       7.719  25.252  57.198  1.00  0.00    -0.268 OA
BRANCH  25  28
HETATM   28  C   UNL     1       8.322  21.970  55.806  1.00  0.00     0.084 A 
HETATM   29  C   UNL     1       9.015  20.721  56.269  1.00  0.00     0.027 A 
HETATM   30  C   UNL     1       7.538  20.701  56.018  1.00  0.00     0.027 A 
ENDBRANCH  25  28
ENDBRANCH  19  24
ENDBRANCH   2  18
TORSDOF 5
ENDMDL
MODEL 8
REMARK VINA RESULT:      -9.1     10.535     12.470
REMARK  5 active torsions:
REMARK  status: ('A' for Active; 'I' for Inactive)
REMARK    1  A    between atoms: C_5  and  C_6 
REMARK    2  A    between atoms: C_10  and  C_11 
REMARK       I    between atoms: C_11  and  N_12 
REMARK    3  A    between atoms: N_12  and  C_13 
REMARK    4  A    between atoms: C_14  and  C_15 
REMARK       I    between atoms: C_15  and  N_16 
REMARK    5  A    between atoms: N_16  and  C_17 
ROOT
HETATM    1  C   UNL     1       4.454  27.610  52.085  1.00  0.00     0.274 C 
HETATM    2  N   UNL     1       4.964  27.579  50.806  1.00  0.00    -0.321 N 
HETATM    3  O   UNL     1       3.650  28.429  52.509  1.00  0.00    -0.266 OA
HETATM    4  H   UNL     1       5.276  26.675  50.485  1.00  0.00     0.169 HD
ENDROOT
BRANCH   1   5
HETATM    5  C   UNL     1       4.962  26.551  52.922  1.00  0.00     0.120 A 
HETATM    6  N   UNL     1       4.913  26.612  54.288  1.00  0.00    -0.272 N 
HETATM    7  N   UNL     1       5.569  25.611  54.904  1.00  0.00    -0.174 NA
HETATM    8  H   UNL     1       4.491  27.344  54.851  1.00  0.00     0.189 HD
HETATM    9  C   UNL     1       6.027  24.844  53.904  1.00  0.00     0.089 A 
HETATM   10  C   UNL     1       5.643  25.383  52.646  1.00  0.00     0.071 A 
BRANCH   9  11
HETATM   11  C   UNL     1       6.872  23.673  54.124  1.00  0.00    -0.006 A 
HETATM   12  C   UNL     1       7.105  23.197  55.422  1.00  0.00     0.014 A 
HETATM   13  C   UNL     1       7.829  22.019  55.625  1.00  0.00     0.007 A 
HETATM   14  C   UNL     1       8.338  21.302  54.537  1.00  0.00    -0.062 A 
HETATM   15  C   UNL     1       9.051  20.000  54.754  1.00  0.00     0.048 C 
HETATM   16  C   UNL     1       8.113  21.782  53.241  1.00  0.00     0.007 A 
HETATM   17  C   UNL     1       7.396  22.964  53.036  1.00  0.00     0.014 A 
ENDBRANCH   9  11
ENDBRANCH   1   5
BRANCH   2  18
HETATM   18  C   UNL     1       4.978  28.612  49.842  1.00  0.00     0.050 A 
HETATM   19  C   UNL     1       4.791  28.486  48.456  1.00  0.00     0.058 A 
HETATM   20  C   UNL     1       4.864  29.632  47.636  1.00  0.00     0.019 A 
HETATM   21  C   UNL     1       5.068  30.897  48.182  1.00  0.00     0.001 A 
HETATM   22  C   UNL     1       5.200  31.035  49.556  1.00  0.00     0.002 A 
HETATM   23  C   UNL     1       5.152  29.904  50.376  1.00  0.00     0.030 A 
BRANCH  19  24
HETATM   24  C   UNL     1       4.423  27.255  47.720  1.00  0.00     0.254 C 
HETATM   25  N   UNL     1       3.101  26.883  47.603  1.00  0.00    -0.352 N 
HETATM   26  H   UNL     1       2.989  26.031  47.062  1.00  0.00     0.163 HD
HETATM   27  O   UNL     1       5.292  26.638  47.107  1.00  0.00    -0.268 OA
BRANCH  25  28
HETATM   28  C   UNL     1       1.932  27.513  48.116  1.00  0.00     0.084 A 
HETATM   29  C   UNL     1       1.264  28.684  47.453  1.00  0.00     0.027 A 
HETATM   30  C   UNL     1       0.623  27.330  47.393  1.00  0.00     0.027 A 
ENDBRANCH  25  28
ENDBRANCH  19  24
ENDBRANCH   2  18
TORSDOF 5
ENDMDL
MODEL 9
REMARK VINA RESULT:      -8.9     10.664     12.648
REMARK  5 active torsions:
REMARK  status: ('A' for Active; 'I' for Inactive)
REMARK    1  A    between atoms: C_5  and  C_6 
REMARK    2  A    between atoms: C_10  and  C_11 
REMARK       I    between atoms: C_11  and  N_12 
REMARK    3  A    between atoms: N_12  and  C_13 
REMARK    4  A    between atoms: C_14  and  C_15 
REMARK       I    between atoms: C_15  and  N_16 
REMARK    5  A    between atoms: N_16  and  C_17 
ROOT
HETATM    1  C   UNL     1       4.985  27.852  51.724  1.00  0.00     0.274 C 
HETATM    2  N   UNL     1       3.728  27.936  51.166  1.00  0.00    -0.321 N 
HETATM    3  O   UNL     1       5.828  28.738  51.713  1.00  0.00    -0.266 OA
HETATM    4  H   UNL     1       3.030  27.333  51.575  1.00  0.00     0.169 HD
ENDROOT
BRANCH   1   5
HETATM    5  C   UNL     1       5.240  26.578  52.352  1.00  0.00     0.120 A 
HETATM    6  N   UNL     1       4.274  25.898  53.042  1.00  0.00    -0.272 N 
HETATM    7  N   UNL     1       4.728  24.809  53.688  1.00  0.00    -0.174 NA
HETATM    8  H   UNL     1       3.300  26.164  53.149  1.00  0.00     0.189 HD
HETATM    9  C   UNL     1       6.031  24.751  53.375  1.00  0.00     0.089 A 
HETATM   10  C   UNL     1       6.385  25.826  52.515  1.00  0.00     0.071 A 
BRANCH   9  11
HETATM   11  C   UNL     1       6.938  23.751  53.933  1.00  0.00    -0.006 A 
HETATM   12  C   UNL     1       7.124  23.653  55.319  1.00  0.00     0.014 A 
HETATM   13  C   UNL     1       7.912  22.632  55.858  1.00  0.00     0.007 A 
HETATM   14  C   UNL     1       8.533  21.698  55.021  1.00  0.00    -0.062 A 
HETATM   15  C   UNL     1       9.317  20.561  55.605  1.00  0.00     0.048 C 
HETATM   16  C   UNL     1       8.355  21.801  53.636  1.00  0.00     0.007 A 
HETATM   17  C   UNL     1       7.573  22.826  53.095  1.00  0.00     0.014 A 
ENDBRANCH   9  11
ENDBRANCH   1   5
BRANCH   2  18
HETATM   18  C   UNL     1       3.259  28.852  50.198  1.00  0.00     0.050 A 
HETATM   19  C   UNL     1       3.721  29.012  48.881  1.00  0.00     0.058 A 
HETATM   20  C   UNL     1       3.148  30.001  48.056  1.00  0.00     0.019 A 
HETATM   21  C   UNL     1       2.093  30.793  48.507  1.00  0.00     0.001 A 
HETATM   22  C   UNL     1       1.596  30.603  49.788  1.00  0.00     0.002 A 
HETATM   23  C   UNL     1       2.171  29.641  50.622  1.00  0.00     0.030 A 
BRANCH  19  24
HETATM   24  C   UNL     1       4.725  28.173  48.188  1.00  0.00     0.254 C 
HETATM   25  N   UNL     1       4.401  26.900  47.771  1.00  0.00    -0.352 N 
HETATM   26  H   UNL     1       5.173  26.443  47.296  1.00  0.00     0.163 HD
HETATM   27  O   UNL     1       5.807  28.665  47.872  1.00  0.00    -0.268 OA
BRANCH  25  28
HETATM   28  C   UNL     1       3.179  26.183  47.911  1.00  0.00     0.084 A 
HETATM   29  C   UNL     1       1.956  26.460  47.085  1.00  0.00     0.027 A 
HETATM   30  C   UNL     1       2.762  25.223  46.828  1.00  0.00     0.027 A 
ENDBRANCH  25  28
ENDBRANCH  19  24
ENDBRANCH   2  18
TORSDOF 5
ENDMDL
MODEL 10
REMARK VINA RESULT:      -8.8      3.653      5.877
REMARK  5 active torsions:
REMARK  status: ('A' for Active; 'I' for Inactive)
REMARK    1  A    between atoms: C_5  and  C_6 
REMARK    2  A    between atoms: C_10  and  C_11 
REMARK       I    between atoms: C_11  and  N_12 
REMARK    3  A    between atoms: N_12  and  C_13 
REMARK    4  A    between atoms: C_14  and  C_15 
REMARK       I    between atoms: C_15  and  N_16 
REMARK    5  A    between atoms: N_16  and  C_17 
ROOT
HETATM    1  C   UNL     1       8.083  27.902  56.518  1.00  0.00     0.274 C 
HETATM    2  N   UNL     1       7.900  26.693  57.153  1.00  0.00    -0.321 N 
HETATM    3  O   UNL     1       7.987  28.094  55.315  1.00  0.00    -0.266 OA
HETATM    4  H   UNL     1       7.619  26.749  58.121  1.00  0.00     0.169 HD
ENDROOT
BRANCH   1   5
HETATM    5  C   UNL     1       8.409  28.974  57.428  1.00  0.00     0.120 A 
HETATM    6  N   UNL     1       9.652  29.543  57.471  1.00  0.00    -0.272 N 
HETATM    7  N   UNL     1       9.818  30.418  58.480  1.00  0.00    -0.174 NA
HETATM    8  H   UNL     1      10.441  29.330  56.868  1.00  0.00     0.189 HD
HETATM    9  C   UNL     1       8.626  30.454  59.093  1.00  0.00     0.089 A 
HETATM   10  C   UNL     1       7.706  29.585  58.446  1.00  0.00     0.071 A 
BRANCH   9  11
HETATM   11  C   UNL     1       8.381  31.230  60.306  1.00  0.00    -0.006 A 
HETATM   12  C   UNL     1       7.222  32.009  60.431  1.00  0.00     0.014 A 
HETATM   13  C   UNL     1       6.937  32.670  61.629  1.00  0.00     0.007 A 
HETATM   14  C   UNL     1       7.809  32.569  62.719  1.00  0.00    -0.062 A 
HETATM   15  C   UNL     1       7.464  33.218  64.026  1.00  0.00     0.048 C 
HETATM   16  C   UNL     1       8.970  31.798  62.592  1.00  0.00     0.007 A 
HETATM   17  C   UNL     1       9.260  31.142  61.392  1.00  0.00     0.014 A 
ENDBRANCH   9  11
ENDBRANCH   1   5
BRANCH   2  18
HETATM   18  C   UNL     1       7.918  25.397  56.592  1.00  0.00     0.050 A 
HETATM   19  C   UNL     1       6.915  24.790  55.817  1.00  0.00     0.058 A 
HETATM   20  C   UNL     1       7.094  23.468  55.358  1.00  0.00     0.019 A 
HETATM   21  C   UNL     1       8.271  22.768  55.616  1.00  0.00     0.001 A 
HETATM   22  C   UNL     1       9.286  23.382  56.335  1.00  0.00     0.002 A 
HETATM   23  C   UNL     1       9.112  24.682  56.814  1.00  0.00     0.030 A 
BRANCH  19  24
HETATM   24  C   UNL     1       5.672  25.424  55.325  1.00  0.00     0.254 C 
HETATM   25  N   UNL     1       5.620  25.967  54.059  1.00  0.00    -0.352 N 
HETATM   26  H   UNL     1       4.706  26.353  53.844  1.00  0.00     0.163 HD
HETATM   27  O   UNL     1       4.648  25.350  56.003  1.00  0.00    -0.268 OA
BRANCH  25  28
HETATM   28  C   UNL     1       6.635  26.046  53.064  1.00  0.00     0.084 A 
HETATM   29  C   UNL     1       6.968  24.919  52.129  1.00  0.00     0.027 A 
HETATM   30  C   UNL     1       6.237  26.121  51.613  1.00  0.00     0.027 A 
ENDBRANCH  25  28
ENDBRANCH  19  24
ENDBRANCH   2  18
TORSDOF 5
ENDMDL
