MODEL 1
REMARK VINA RESULT:      -8.9      0.000      0.000
REMARK  7 active torsions:
REMARK  status: ('A' for Active; 'I' for Inactive)
REMARK    1  A    between atoms: C_7  and  C_8 
REMARK    2  A    between atoms: C_8  and  N_9 
REMARK       I    between atoms: N_9  and  C_10 
REMARK       I    between atoms: C_10  and  N_11 
REMARK    3  A    between atoms: N_11  and  C_12 
REMARK    4  A    between atoms: C_12  and  C_13 
REMARK    5  A    between atoms: C_13  and  C_14 
REMARK    6  A    between atoms: C_14  and  O_15 
REMARK    7  A    between atoms: C_14  and  C_16 
ROOT
HETATM    1  N   UNL     1       6.187  27.915  57.020  1.00  0.00    -0.337 N 
HETATM    2  C   UNL     1       7.507  27.863  57.386  1.00  0.00     0.316 C 
HETATM    3  N   UNL     1       8.188  28.980  57.011  1.00  0.00    -0.339 N 
HETATM    4  O   UNL     1       7.991  26.919  58.003  1.00  0.00    -0.247 OA
HETATM    5  H   UNL     1       5.964  28.657  56.371  1.00  0.00     0.164 HD
HETATM    6  H   UNL     1       7.751  29.627  56.358  1.00  0.00     0.164 HD
ENDROOT
BRANCH   1   7
HETATM    7  C   UNL     1       5.391  26.708  56.909  1.00  0.00     0.183 C 
BRANCH   7   8
HETATM    8  C   UNL     1       5.979  25.716  55.975  1.00  0.00     0.044 A 
HETATM    9  N   UNL     1       6.476  24.485  56.379  1.00  0.00    -0.343 N 
HETATM   10  C   UNL     1       6.987  23.815  55.357  1.00  0.00     0.112 A 
HETATM   11  H   UNL     1       6.444  24.171  57.357  1.00  0.00     0.167 HD
HETATM   12  N   UNL     1       6.868  24.590  54.260  1.00  0.00    -0.311 N 
HETATM   13  C   UNL     1       7.617  22.476  55.299  1.00  0.00     0.049 A 
HETATM   14  C   UNL     1       7.346  24.201  53.010  1.00  0.00     0.014 A 
HETATM   15  C   UNL     1       6.228  25.769  54.619  1.00  0.00     0.125 A 
HETATM   16  C   UNL     1       7.226  25.105  51.820  1.00  0.00     0.068 C 
HETATM   17  C   UNL     1       7.927  22.982  52.947  1.00  0.00     0.025 A 
HETATM   18  C   UNL     1       8.068  22.090  54.094  1.00  0.00     0.006 A 
ENDBRANCH   7   8
ENDBRANCH   1   7
BRANCH   3  19
HETATM   19  C   UNL     1       9.641  29.099  57.071  1.00  0.00     0.085 C 
HETATM   20  C   UNL     1      10.196  29.741  55.800  1.00  0.00     0.032 C 
BRANCH  19  21
HETATM   21  C   UNL     1      10.074  29.828  58.362  1.00  0.00     0.063 C 
BRANCH  21  22
HETATM   22  C   UNL     1       9.381  31.160  58.693  1.00  0.00     0.177 C 
BRANCH  22  23
HETATM   23  O   UNL     1      10.212  32.267  58.306  1.00  0.00    -0.389 OA
HETATM   24  H   UNL     1       9.610  32.878  57.836  1.00  0.00     0.210 HD
ENDBRANCH  22  23
BRANCH  22  25
HETATM   25  C   UNL     1       9.010  31.325  60.131  1.00  0.00     0.081 A 
HETATM   26  O   UNL     1       9.164  30.232  60.939  1.00  0.00    -0.324 OA
HETATM   27  C   UNL     1       8.800  30.608  62.192  1.00  0.00     0.142 A 
HETATM   28  C   UNL     1       8.429  31.931  62.208  1.00  0.00     0.027 A 
HETATM   29  C   UNL     1       8.572  32.399  60.879  1.00  0.00     0.037 A 
ENDBRANCH  22  25
ENDBRANCH  21  22
ENDBRANCH  19  21
ENDBRANCH   3  19
TORSDOF 7
ENDMDL
MODEL 2
REMARK VINA RESULT:      -8.7      1.983      2.883
REMARK  7 active torsions:
REMARK  status: ('A' for Active; 'I' for Inactive)
REMARK    1  A    between atoms: C_7  and  C_8 
REMARK    2  A    between atoms: C_8  and  N_9 
REMARK       I    between atoms: N_9  and  C_10 
REMARK       I    between atoms: C_10  and  N_11 
REMARK    3  A    between atoms: N_11  and  C_12 
REMARK    4  A    between atoms: C_12  and  C_13 
REMARK    5  A    between atoms: C_13  and  C_14 
REMARK    6  A    between atoms: C_14  and  O_15 
REMARK    7  A    between atoms: C_14  and  C_16 
ROOT
HETATM    1  N   UNL     1       6.564  26.538  55.260  1.00  0.00    -0.337 N 
HETATM    2  C   UNL     1       6.963  27.850  55.287  1.00  0.00     0.316 C 
HETATM    3  N   UNL     1       6.301  28.569  56.235  1.00  0.00    -0.339 N 
HETATM    4  O   UNL     1       7.836  28.295  54.549  1.00  0.00    -0.247 OA
HETATM    5  H   UNL     1       5.724  26.349  55.791  1.00  0.00     0.164 HD
HETATM    6  H   UNL     1       5.480  28.163  56.676  1.00  0.00     0.164 HD
ENDROOT
BRANCH   1   7
HETATM    7  C   UNL     1       6.783  25.711  54.090  1.00  0.00     0.183 C 
BRANCH   7   8
HETATM    8  C   UNL     1       7.193  24.327  54.433  1.00  0.00     0.044 A 
HETATM    9  N   UNL     1       7.518  23.922  55.720  1.00  0.00    -0.343 N 
HETATM   10  C   UNL     1       7.897  22.653  55.742  1.00  0.00     0.112 A 
HETATM   11  H   UNL     1       7.468  24.555  56.528  1.00  0.00     0.167 HD
HETATM   12  N   UNL     1       7.862  22.194  54.474  1.00  0.00    -0.311 N 
HETATM   13  C   UNL     1       8.324  21.793  56.869  1.00  0.00     0.049 A 
HETATM   14  C   UNL     1       8.244  20.898  54.134  1.00  0.00     0.014 A 
HETATM   15  C   UNL     1       7.410  23.214  53.648  1.00  0.00     0.125 A 
HETATM   16  C   UNL     1       8.222  20.434  52.708  1.00  0.00     0.068 C 
HETATM   17  C   UNL     1       8.639  20.105  55.156  1.00  0.00     0.025 A 
HETATM   18  C   UNL     1       8.681  20.537  56.549  1.00  0.00     0.006 A 
ENDBRANCH   7   8
ENDBRANCH   1   7
BRANCH   3  19
HETATM   19  C   UNL     1       6.362  30.023  56.334  1.00  0.00     0.085 C 
HETATM   20  C   UNL     1       5.052  30.663  55.877  1.00  0.00     0.032 C 
BRANCH  19  21
HETATM   21  C   UNL     1       6.790  30.454  57.754  1.00  0.00     0.063 C 
BRANCH  21  22
HETATM   22  C   UNL     1       8.120  29.905  58.294  1.00  0.00     0.177 C 
BRANCH  22  23
HETATM   23  O   UNL     1       7.975  28.527  58.676  1.00  0.00    -0.389 OA
HETATM   24  H   UNL     1       7.807  28.552  59.640  1.00  0.00     0.210 HD
ENDBRANCH  22  23
BRANCH  22  25
HETATM   25  C   UNL     1       8.679  30.663  59.453  1.00  0.00     0.081 A 
HETATM   26  O   UNL     1       8.769  29.995  60.643  1.00  0.00    -0.324 OA
HETATM   27  C   UNL     1       9.324  30.850  61.540  1.00  0.00     0.142 A 
HETATM   28  C   UNL     1       9.608  32.055  60.943  1.00  0.00     0.027 A 
HETATM   29  C   UNL     1       9.200  31.934  59.592  1.00  0.00     0.037 A 
ENDBRANCH  22  25
ENDBRANCH  21  22
ENDBRANCH  19  21
ENDBRANCH   3  19
TORSDOF 7
ENDMDL
MODEL 3
REMARK VINA RESULT:      -8.7      1.481      2.411
REMARK  7 active torsions:
REMARK  status: ('A' for Active; 'I' for Inactive)
REMARK    1  A    between atoms: C_7  and  C_8 
REMARK    2  A    between atoms: C_8  and  N_9 
REMARK       I    between atoms: N_9  and  C_10 
REMARK       I    between atoms: C_10  and  N_11 
REMARK    3  A    between atoms: N_11  and  C_12 
REMARK    4  A    between atoms: C_12  and  C_13 
REMARK    5  A    between atoms: C_13  and  C_14 
REMARK    6  A    between atoms: C_14  and  O_15 
REMARK    7  A    between atoms: C_14  and  C_16 
ROOT
HETATM    1  N   UNL     1       6.106  28.442  56.940  1.00  0.00    -0.337 N 
HETATM    2  C   UNL     1       7.307  28.519  57.598  1.00  0.00     0.316 C 
HETATM    3  N   UNL     1       7.997  29.648  57.278  1.00  0.00    -0.339 N 
HETATM    4  O   UNL     1       7.683  27.669  58.398  1.00  0.00    -0.247 OA
HETATM    5  H   UNL     1       6.001  29.109  56.188  1.00  0.00     0.164 HD
HETATM    6  H   UNL     1       7.690  30.203  56.483  1.00  0.00     0.164 HD
ENDROOT
BRANCH   1   7
HETATM    7  C   UNL     1       5.422  27.175  56.774  1.00  0.00     0.183 C 
BRANCH   7   8
HETATM    8  C   UNL     1       6.096  26.282  55.799  1.00  0.00     0.044 A 
HETATM    9  N   UNL     1       6.369  26.646  54.488  1.00  0.00    -0.343 N 
HETATM   10  C   UNL     1       6.929  25.650  53.820  1.00  0.00     0.112 A 
HETATM   11  H   UNL     1       6.143  27.577  54.116  1.00  0.00     0.167 HD
HETATM   12  N   UNL     1       7.015  24.595  54.657  1.00  0.00    -0.311 N 
HETATM   13  C   UNL     1       7.396  25.571  52.417  1.00  0.00     0.049 A 
HETATM   14  C   UNL     1       7.523  23.360  54.257  1.00  0.00     0.014 A 
HETATM   15  C   UNL     1       6.518  24.972  55.896  1.00  0.00     0.125 A 
HETATM   16  C   UNL     1       7.572  22.200  55.206  1.00  0.00     0.068 C 
HETATM   17  C   UNL     1       7.948  23.275  52.976  1.00  0.00     0.025 A 
HETATM   18  C   UNL     1       7.899  24.385  52.031  1.00  0.00     0.006 A 
ENDBRANCH   7   8
ENDBRANCH   1   7
BRANCH   3  19
HETATM   19  C   UNL     1       9.388  29.878  57.652  1.00  0.00     0.085 C 
HETATM   20  C   UNL     1      10.303  29.836  56.429  1.00  0.00     0.032 C 
BRANCH  19  21
HETATM   21  C   UNL     1       9.522  31.179  58.471  1.00  0.00     0.063 C 
BRANCH  21  22
HETATM   22  C   UNL     1       8.825  31.234  59.840  1.00  0.00     0.177 C 
BRANCH  22  23
HETATM   23  O   UNL     1       8.637  29.908  60.360  1.00  0.00    -0.389 OA
HETATM   24  H   UNL     1       9.385  29.390  60.000  1.00  0.00     0.210 HD
ENDBRANCH  22  23
BRANCH  22  25
HETATM   25  C   UNL     1       7.506  31.934  59.837  1.00  0.00     0.081 A 
HETATM   26  O   UNL     1       6.882  32.072  58.627  1.00  0.00    -0.324 OA
HETATM   27  C   UNL     1       5.701  32.702  58.856  1.00  0.00     0.142 A 
HETATM   28  C   UNL     1       5.545  32.958  60.197  1.00  0.00     0.027 A 
HETATM   29  C   UNL     1       6.706  32.456  60.834  1.00  0.00     0.037 A 
ENDBRANCH  22  25
ENDBRANCH  21  22
ENDBRANCH  19  21
ENDBRANCH   3  19
TORSDOF 7
ENDMDL
MODEL 4
REMARK VINA RESULT:      -8.7      1.781      2.323
REMARK  7 active torsions:
REMARK  status: ('A' for Active; 'I' for Inactive)
REMARK    1  A    between atoms: C_7  and  C_8 
REMARK    2  A    between atoms: C_8  and  N_9 
REMARK       I    between atoms: N_9  and  C_10 
REMARK       I    between atoms: C_10  and  N_11 
REMARK    3  A    between atoms: N_11  and  C_12 
REMARK    4  A    between atoms: C_12  and  C_13 
REMARK    5  A    between atoms: C_13  and  C_14 
REMARK    6  A    between atoms: C_14  and  O_15 
REMARK    7  A    between atoms: C_14  and  C_16 
ROOT
HETATM    1  N   UNL     1       7.560  25.719  58.040  1.00  0.00    -0.337 N 
HETATM    2  C   UNL     1       7.764  27.019  57.652  1.00  0.00     0.316 C 
HETATM    3  N   UNL     1       6.595  27.696  57.489  1.00  0.00    -0.339 N 
HETATM    4  O   UNL     1       8.882  27.500  57.499  1.00  0.00    -0.247 OA
HETATM    5  H   UNL     1       6.602  25.407  57.957  1.00  0.00     0.164 HD
HETATM    6  H   UNL     1       5.722  27.173  57.469  1.00  0.00     0.164 HD
ENDROOT
BRANCH   1   7
HETATM    7  C   UNL     1       8.582  24.710  57.848  1.00  0.00     0.183 C 
BRANCH   7   8
HETATM    8  C   UNL     1       8.350  23.877  56.642  1.00  0.00     0.044 A 
HETATM    9  N   UNL     1       8.364  22.490  56.655  1.00  0.00    -0.343 N 
HETATM   10  C   UNL     1       8.179  21.996  55.440  1.00  0.00     0.112 A 
HETATM   11  H   UNL     1       8.511  21.948  57.515  1.00  0.00     0.167 HD
HETATM   12  N   UNL     1       8.066  23.038  54.589  1.00  0.00    -0.311 N 
HETATM   13  C   UNL     1       8.111  20.595  54.967  1.00  0.00     0.049 A 
HETATM   14  C   UNL     1       7.904  22.870  53.215  1.00  0.00     0.014 A 
HETATM   15  C   UNL     1       8.152  24.216  55.319  1.00  0.00     0.125 A 
HETATM   16  C   UNL     1       7.815  24.052  52.297  1.00  0.00     0.068 C 
HETATM   17  C   UNL     1       7.845  21.594  52.773  1.00  0.00     0.025 A 
HETATM   18  C   UNL     1       7.941  20.428  53.645  1.00  0.00     0.006 A 
ENDBRANCH   7   8
ENDBRANCH   1   7
BRANCH   3  19
HETATM   19  C   UNL     1       6.504  29.015  56.872  1.00  0.00     0.085 C 
HETATM   20  C   UNL     1       5.253  29.132  56.002  1.00  0.00     0.032 C 
BRANCH  19  21
HETATM   21  C   UNL     1       6.610  30.124  57.940  1.00  0.00     0.063 C 
BRANCH  21  22
HETATM   22  C   UNL     1       7.936  30.895  58.036  1.00  0.00     0.177 C 
BRANCH  22  23
HETATM   23  O   UNL     1       8.975  30.196  57.331  1.00  0.00    -0.389 OA
HETATM   24  H   UNL     1       9.666  30.869  57.173  1.00  0.00     0.210 HD
ENDBRANCH  22  23
BRANCH  22  25
HETATM   25  C   UNL     1       8.403  31.156  59.431  1.00  0.00     0.081 A 
HETATM   26  O   UNL     1       8.736  30.065  60.186  1.00  0.00    -0.324 OA
HETATM   27  C   UNL     1       9.155  30.527  61.392  1.00  0.00     0.142 A 
HETATM   28  C   UNL     1       9.112  31.900  61.422  1.00  0.00     0.027 A 
HETATM   29  C   UNL     1       8.634  32.310  60.153  1.00  0.00     0.037 A 
ENDBRANCH  22  25
ENDBRANCH  21  22
ENDBRANCH  19  21
ENDBRANCH   3  19
TORSDOF 7
ENDMDL
MODEL 5
REMARK VINA RESULT:      -8.6      1.605      2.573
REMARK  7 active torsions:
REMARK  status: ('A' for Active; 'I' for Inactive)
REMARK    1  A    between atoms: C_7  and  C_8 
REMARK    2  A    between atoms: C_8  and  N_9 
REMARK       I    between atoms: N_9  and  C_10 
REMARK       I    between atoms: C_10  and  N_11 
REMARK    3  A    between atoms: N_11  and  C_12 
REMARK    4  A    between atoms: C_12  and  C_13 
REMARK    5  A    between atoms: C_13  and  C_14 
REMARK    6  A    between atoms: C_14  and  O_15 
REMARK    7  A    between atoms: C_14  and  C_16 
ROOT
HETATM    1  N   UNL     1       6.788  26.371  56.513  1.00  0.00    -0.337 N 
HETATM    2  C   UNL     1       7.253  27.627  56.219  1.00  0.00     0.316 C 
HETATM    3  N   UNL     1       7.487  28.363  57.340  1.00  0.00    -0.339 N 
HETATM    4  O   UNL     1       7.451  28.012  55.071  1.00  0.00    -0.247 OA
HETATM    5  H   UNL     1       6.505  26.247  57.475  1.00  0.00     0.164 HD
HETATM    6  H   UNL     1       7.132  28.027  58.232  1.00  0.00     0.164 HD
ENDROOT
BRANCH   1   7
HETATM    7  C   UNL     1       6.068  25.588  55.528  1.00  0.00     0.183 C 
BRANCH   7   8
HETATM    8  C   UNL     1       6.749  24.312  55.197  1.00  0.00     0.044 A 
HETATM    9  N   UNL     1       6.883  23.828  53.904  1.00  0.00    -0.343 N 
HETATM   10  C   UNL     1       7.486  22.649  53.892  1.00  0.00     0.112 A 
HETATM   11  H   UNL     1       6.539  24.343  53.084  1.00  0.00     0.167 HD
HETATM   12  N   UNL     1       7.740  22.308  55.172  1.00  0.00    -0.311 N 
HETATM   13  C   UNL     1       7.848  21.762  52.764  1.00  0.00     0.049 A 
HETATM   14  C   UNL     1       8.335  21.097  55.522  1.00  0.00     0.014 A 
HETATM   15  C   UNL     1       7.306  23.336  55.998  1.00  0.00     0.125 A 
HETATM   16  C   UNL     1       8.572  20.738  56.959  1.00  0.00     0.068 C 
HETATM   17  C   UNL     1       8.666  20.277  54.499  1.00  0.00     0.025 A 
HETATM   18  C   UNL     1       8.434  20.598  53.095  1.00  0.00     0.006 A 
ENDBRANCH   7   8
ENDBRANCH   1   7
BRANCH   3  19
HETATM   19  C   UNL     1       7.769  29.794  57.322  1.00  0.00     0.085 C 
HETATM   20  C   UNL     1       6.495  30.611  57.530  1.00  0.00     0.032 C 
BRANCH  19  21
HETATM   21  C   UNL     1       8.887  30.141  58.328  1.00  0.00     0.063 C 
BRANCH  21  22
HETATM   22  C   UNL     1       8.920  31.571  58.891  1.00  0.00     0.177 C 
BRANCH  22  23
HETATM   23  O   UNL     1      10.179  32.197  58.595  1.00  0.00    -0.389 OA
HETATM   24  H   UNL     1      10.710  32.087  59.410  1.00  0.00     0.210 HD
ENDBRANCH  22  23
BRANCH  22  25
HETATM   25  C   UNL     1       8.677  31.665  60.361  1.00  0.00     0.081 A 
HETATM   26  O   UNL     1       7.432  31.314  60.807  1.00  0.00    -0.324 OA
HETATM   27  C   UNL     1       7.440  31.444  62.158  1.00  0.00     0.142 A 
HETATM   28  C   UNL     1       8.675  31.859  62.594  1.00  0.00     0.027 A 
HETATM   29  C   UNL     1       9.479  31.995  61.436  1.00  0.00     0.037 A 
ENDBRANCH  22  25
ENDBRANCH  21  22
ENDBRANCH  19  21
ENDBRANCH   3  19
TORSDOF 7
ENDMDL
MODEL 6
REMARK VINA RESULT:      -8.5      2.631      8.699
REMARK  7 active torsions:
REMARK  status: ('A' for Active; 'I' for Inactive)
REMARK    1  A    between atoms: C_7  and  C_8 
REMARK    2  A    between atoms: C_8  and  N_9 
REMARK       I    between atoms: N_9  and  C_10 
REMARK       I    between atoms: C_10  and  N_11 
REMARK    3  A    between atoms: N_11  and  C_12 
REMARK    4  A    between atoms: C_12  and  C_13 
REMARK    5  A    between atoms: C_13  and  C_14 
REMARK    6  A    between atoms: C_14  and  O_15 
REMARK    7  A    between atoms: C_14  and  C_16 
ROOT
HETATM    1  N   UNL     1       5.564  28.305  55.548  1.00  0.00    -0.337 N 
HETATM    2  C   UNL     1       5.717  26.946  55.447  1.00  0.00     0.316 C 
HETATM    3  N   UNL     1       5.649  26.516  54.158  1.00  0.00    -0.339 N 
HETATM    4  O   UNL     1       5.916  26.224  56.419  1.00  0.00    -0.247 OA
HETATM    5  H   UNL     1       5.234  28.750  54.703  1.00  0.00     0.164 HD
HETATM    6  H   UNL     1       5.311  27.156  53.443  1.00  0.00     0.164 HD
ENDROOT
BRANCH   1   7
HETATM    7  C   UNL     1       5.164  28.924  56.796  1.00  0.00     0.183 C 
BRANCH   7   8
HETATM    8  C   UNL     1       6.285  29.613  57.482  1.00  0.00     0.044 A 
HETATM    9  N   UNL     1       6.107  30.549  58.491  1.00  0.00    -0.343 N 
HETATM   10  C   UNL     1       7.265  31.046  58.895  1.00  0.00     0.112 A 
HETATM   11  H   UNL     1       5.177  30.806  58.847  1.00  0.00     0.167 HD
HETATM   12  N   UNL     1       8.236  30.477  58.150  1.00  0.00    -0.311 N 
HETATM   13  C   UNL     1       7.573  32.053  59.937  1.00  0.00     0.049 A 
HETATM   14  C   UNL     1       9.582  30.811  58.290  1.00  0.00     0.014 A 
HETATM   15  C   UNL     1       7.649  29.571  57.278  1.00  0.00     0.125 A 
HETATM   16  C   UNL     1      10.629  30.181  57.421  1.00  0.00     0.068 C 
HETATM   17  C   UNL     1       9.873  31.732  59.236  1.00  0.00     0.025 A 
HETATM   18  C   UNL     1       8.871  32.368  60.085  1.00  0.00     0.006 A 
ENDBRANCH   7   8
ENDBRANCH   1   7
BRANCH   3  19
HETATM   19  C   UNL     1       5.556  25.110  53.779  1.00  0.00     0.085 C 
HETATM   20  C   UNL     1       4.880  24.949  52.417  1.00  0.00     0.032 C 
BRANCH  19  21
HETATM   21  C   UNL     1       6.940  24.432  53.857  1.00  0.00     0.063 C 
BRANCH  21  22
HETATM   22  C   UNL     1       7.120  23.296  54.876  1.00  0.00     0.177 C 
BRANCH  22  23
HETATM   23  O   UNL     1       7.873  23.755  56.011  1.00  0.00    -0.389 OA
HETATM   24  H   UNL     1       8.103  22.942  56.503  1.00  0.00     0.210 HD
ENDBRANCH  22  23
BRANCH  22  25
HETATM   25  C   UNL     1       7.782  22.073  54.331  1.00  0.00     0.081 A 
HETATM   26  O   UNL     1       8.223  21.150  55.240  1.00  0.00    -0.324 OA
HETATM   27  C   UNL     1       8.758  20.120  54.537  1.00  0.00     0.142 A 
HETATM   28  C   UNL     1       8.655  20.355  53.187  1.00  0.00     0.027 A 
HETATM   29  C   UNL     1       8.017  21.613  53.051  1.00  0.00     0.037 A 
ENDBRANCH  22  25
ENDBRANCH  21  22
ENDBRANCH  19  21
ENDBRANCH   3  19
TORSDOF 7
ENDMDL
MODEL 7
REMARK VINA RESULT:      -8.5      1.963      3.158
REMARK  7 active torsions:
REMARK  status: ('A' for Active; 'I' for Inactive)
REMARK    1  A    between atoms: C_7  and  C_8 
REMARK    2  A    between atoms: C_8  and  N_9 
REMARK       I    between atoms: N_9  and  C_10 
REMARK       I    between atoms: C_10  and  N_11 
REMARK    3  A    between atoms: N_11  and  C_12 
REMARK    4  A    between atoms: C_12  and  C_13 
REMARK    5  A    between atoms: C_13  and  C_14 
REMARK    6  A    between atoms: C_14  and  O_15 
REMARK    7  A    between atoms: C_14  and  C_16 
ROOT
HETATM    1  N   UNL     1       6.233  26.376  55.117  1.00  0.00    -0.337 N 
HETATM    2  C   UNL     1       6.636  27.687  55.088  1.00  0.00     0.316 C 
HETATM    3  N   UNL     1       6.169  28.391  56.155  1.00  0.00    -0.339 N 
HETATM    4  O   UNL     1       7.356  28.143  54.206  1.00  0.00    -0.247 OA
HETATM    5  H   UNL     1       5.509  26.179  55.793  1.00  0.00     0.164 HD
HETATM    6  H   UNL     1       5.444  27.979  56.737  1.00  0.00     0.164 HD
ENDROOT
BRANCH   1   7
HETATM    7  C   UNL     1       6.224  25.568  53.914  1.00  0.00     0.183 C 
BRANCH   7   8
HETATM    8  C   UNL     1       6.884  24.252  54.100  1.00  0.00     0.044 A 
HETATM    9  N   UNL     1       7.159  23.379  53.057  1.00  0.00    -0.343 N 
HETATM   10  C   UNL     1       7.705  22.257  53.501  1.00  0.00     0.112 A 
HETATM   11  H   UNL     1       6.943  23.604  52.078  1.00  0.00     0.167 HD
HETATM   12  N   UNL     1       7.781  22.345  54.845  1.00  0.00    -0.311 N 
HETATM   13  C   UNL     1       8.167  21.054  52.772  1.00  0.00     0.049 A 
HETATM   14  C   UNL     1       8.273  21.309  55.638  1.00  0.00     0.014 A 
HETATM   15  C   UNL     1       7.292  23.584  55.236  1.00  0.00     0.125 A 
HETATM   16  C   UNL     1       8.311  21.430  57.132  1.00  0.00     0.068 C 
HETATM   17  C   UNL     1       8.693  20.204  54.982  1.00  0.00     0.025 A 
HETATM   18  C   UNL     1       8.654  20.058  53.531  1.00  0.00     0.006 A 
ENDBRANCH   7   8
ENDBRANCH   1   7
BRANCH   3  19
HETATM   19  C   UNL     1       6.254  29.844  56.263  1.00  0.00     0.085 C 
HETATM   20  C   UNL     1       4.927  30.504  55.891  1.00  0.00     0.032 C 
BRANCH  19  21
HETATM   21  C   UNL     1       6.770  30.255  57.659  1.00  0.00     0.063 C 
BRANCH  21  22
HETATM   22  C   UNL     1       8.251  29.991  57.977  1.00  0.00     0.177 C 
BRANCH  22  23
HETATM   23  O   UNL     1       8.489  28.580  58.116  1.00  0.00    -0.389 OA
HETATM   24  H   UNL     1       7.999  28.170  57.376  1.00  0.00     0.210 HD
ENDBRANCH  22  23
BRANCH  22  25
HETATM   25  C   UNL     1       8.756  30.681  59.201  1.00  0.00     0.081 A 
HETATM   26  O   UNL     1       8.652  29.999  60.383  1.00  0.00    -0.324 OA
HETATM   27  C   UNL     1       9.190  30.788  61.347  1.00  0.00     0.142 A 
HETATM   28  C   UNL     1       9.653  31.963  60.805  1.00  0.00     0.027 A 
HETATM   29  C   UNL     1       9.382  31.892  59.417  1.00  0.00     0.037 A 
ENDBRANCH  22  25
ENDBRANCH  21  22
ENDBRANCH  19  21
ENDBRANCH   3  19
TORSDOF 7
ENDMDL
MODEL 8
REMARK VINA RESULT:      -8.3      2.967      8.204
REMARK  7 active torsions:
REMARK  status: ('A' for Active; 'I' for Inactive)
REMARK    1  A    between atoms: C_7  and  C_8 
REMARK    2  A    between atoms: C_8  and  N_9 
REMARK       I    between atoms: N_9  and  C_10 
REMARK       I    between atoms: C_10  and  N_11 
REMARK    3  A    between atoms: N_11  and  C_12 
REMARK    4  A    between atoms: C_12  and  C_13 
REMARK    5  A    between atoms: C_13  and  C_14 
REMARK    6  A    between atoms: C_14  and  O_15 
REMARK    7  A    between atoms: C_14  and  C_16 
ROOT
HETATM    1  N   UNL     1       4.480  27.756  55.516  1.00  0.00    -0.337 N 
HETATM    2  C   UNL     1       4.981  26.981  54.500  1.00  0.00     0.316 C 
HETATM    3  N   UNL     1       4.961  25.656  54.808  1.00  0.00    -0.339 N 
HETATM    4  O   UNL     1       5.372  27.450  53.437  1.00  0.00    -0.247 OA
HETATM    5  H   UNL     1       4.360  27.266  56.391  1.00  0.00     0.164 HD
HETATM    6  H   UNL     1       4.783  25.377  55.770  1.00  0.00     0.164 HD
ENDROOT
BRANCH   1   7
HETATM    7  C   UNL     1       4.798  29.167  55.609  1.00  0.00     0.183 C 
BRANCH   7   8
HETATM    8  C   UNL     1       6.171  29.415  56.115  1.00  0.00     0.044 A 
HETATM    9  N   UNL     1       7.313  29.239  55.348  1.00  0.00    -0.343 N 
HETATM   10  C   UNL     1       8.408  29.481  56.053  1.00  0.00     0.112 A 
HETATM   11  H   UNL     1       7.277  28.949  54.363  1.00  0.00     0.167 HD
HETATM   12  N   UNL     1       8.023  29.794  57.308  1.00  0.00    -0.311 N 
HETATM   13  C   UNL     1       9.836  29.431  55.667  1.00  0.00     0.049 A 
HETATM   14  C   UNL     1       8.935  30.066  58.326  1.00  0.00     0.014 A 
HETATM   15  C   UNL     1       6.636  29.775  57.363  1.00  0.00     0.125 A 
HETATM   16  C   UNL     1       8.471  30.377  59.718  1.00  0.00     0.068 C 
HETATM   17  C   UNL     1      10.242  30.019  57.985  1.00  0.00     0.025 A 
HETATM   18  C   UNL     1      10.719  29.706  56.642  1.00  0.00     0.006 A 
ENDBRANCH   7   8
ENDBRANCH   1   7
BRANCH   3  19
HETATM   19  C   UNL     1       5.632  24.632  54.014  1.00  0.00     0.085 C 
HETATM   20  C   UNL     1       5.301  24.780  52.530  1.00  0.00     0.032 C 
BRANCH  19  21
HETATM   21  C   UNL     1       7.148  24.626  54.304  1.00  0.00     0.063 C 
BRANCH  21  22
HETATM   22  C   UNL     1       7.706  23.473  55.153  1.00  0.00     0.177 C 
BRANCH  22  23
HETATM   23  O   UNL     1       8.890  23.892  55.852  1.00  0.00    -0.389 OA
HETATM   24  H   UNL     1       9.558  24.028  55.151  1.00  0.00     0.210 HD
ENDBRANCH  22  23
BRANCH  22  25
HETATM   25  C   UNL     1       8.023  22.233  54.383  1.00  0.00     0.081 A 
HETATM   26  O   UNL     1       8.467  21.155  55.100  1.00  0.00    -0.324 OA
HETATM   27  C   UNL     1       8.665  20.143  54.219  1.00  0.00     0.142 A 
HETATM   28  C   UNL     1       8.341  20.544  52.945  1.00  0.00     0.027 A 
HETATM   29  C   UNL     1       7.918  21.892  53.050  1.00  0.00     0.037 A 
ENDBRANCH  22  25
ENDBRANCH  21  22
ENDBRANCH  19  21
ENDBRANCH   3  19
TORSDOF 7
ENDMDL
MODEL 9
REMARK VINA RESULT:      -8.1      3.932      6.061
REMARK  7 active torsions:
REMARK  status: ('A' for Active; 'I' for Inactive)
REMARK    1  A    between atoms: C_7  and  C_8 
REMARK    2  A    between atoms: C_8  and  N_9 
REMARK       I    between atoms: N_9  and  C_10 
REMARK       I    between atoms: C_10  and  N_11 
REMARK    3  A    between atoms: N_11  and  C_12 
REMARK    4  A    between atoms: C_12  and  C_13 
REMARK    5  A    between atoms: C_13  and  C_14 
REMARK    6  A    between atoms: C_14  and  O_15 
REMARK    7  A    between atoms: C_14  and  C_16 
ROOT
HETATM    1  N   UNL     1       6.039  26.121  57.278  1.00  0.00    -0.337 N 
HETATM    2  C   UNL     1       5.747  27.407  56.901  1.00  0.00     0.316 C 
HETATM    3  N   UNL     1       4.480  27.526  56.419  1.00  0.00    -0.339 N 
HETATM    4  O   UNL     1       6.545  28.332  57.017  1.00  0.00    -0.247 OA
HETATM    5  H   UNL     1       5.366  25.434  56.968  1.00  0.00     0.164 HD
HETATM    6  H   UNL     1       3.956  26.682  56.199  1.00  0.00     0.164 HD
ENDROOT
BRANCH   1   7
HETATM    7  C   UNL     1       7.410  25.667  57.395  1.00  0.00     0.183 C 
BRANCH   7   8
HETATM    8  C   UNL     1       7.635  24.347  56.754  1.00  0.00     0.044 A 
HETATM    9  N   UNL     1       8.071  23.225  57.445  1.00  0.00    -0.343 N 
HETATM   10  C   UNL     1       8.238  22.194  56.630  1.00  0.00     0.112 A 
HETATM   11  H   UNL     1       8.241  23.233  58.458  1.00  0.00     0.167 HD
HETATM   12  N   UNL     1       7.947  22.611  55.380  1.00  0.00    -0.311 N 
HETATM   13  C   UNL     1       8.677  20.808  56.906  1.00  0.00     0.049 A 
HETATM   14  C   UNL     1       8.060  21.780  54.267  1.00  0.00     0.014 A 
HETATM   15  C   UNL     1       7.554  23.941  55.438  1.00  0.00     0.125 A 
HETATM   16  C   UNL     1       7.760  22.288  52.889  1.00  0.00     0.068 C 
HETATM   17  C   UNL     1       8.464  20.512  54.507  1.00  0.00     0.025 A 
HETATM   18  C   UNL     1       8.775  19.998  55.837  1.00  0.00     0.006 A 
ENDBRANCH   7   8
ENDBRANCH   1   7
BRANCH   3  19
HETATM   19  C   UNL     1       3.981  28.719  55.744  1.00  0.00     0.085 C 
HETATM   20  C   UNL     1       3.893  29.902  56.708  1.00  0.00     0.032 C 
BRANCH  19  21
HETATM   21  C   UNL     1       4.817  29.020  54.482  1.00  0.00     0.063 C 
BRANCH  21  22
HETATM   22  C   UNL     1       4.583  28.138  53.245  1.00  0.00     0.177 C 
BRANCH  22  23
HETATM   23  O   UNL     1       3.380  27.367  53.400  1.00  0.00    -0.389 OA
HETATM   24  H   UNL     1       3.688  26.450  53.542  1.00  0.00     0.210 HD
ENDBRANCH  22  23
BRANCH  22  25
HETATM   25  C   UNL     1       5.706  27.206  52.927  1.00  0.00     0.081 A 
HETATM   26  O   UNL     1       5.492  26.299  51.925  1.00  0.00    -0.324 OA
HETATM   27  C   UNL     1       6.636  25.581  51.785  1.00  0.00     0.142 A 
HETATM   28  C   UNL     1       7.591  26.021  52.670  1.00  0.00     0.027 A 
HETATM   29  C   UNL     1       6.995  27.077  53.403  1.00  0.00     0.037 A 
ENDBRANCH  22  25
ENDBRANCH  21  22
ENDBRANCH  19  21
ENDBRANCH   3  19
TORSDOF 7
ENDMDL
MODEL 10
REMARK VINA RESULT:      -8.1      2.490      3.450
REMARK  7 active torsions:
REMARK  status: ('A' for Active; 'I' for Inactive)
REMARK    1  A    between atoms: C_7  and  C_8 
REMARK    2  A    between atoms: C_8  and  N_9 
REMARK       I    between atoms: N_9  and  C_10 
REMARK       I    between atoms: C_10  and  N_11 
REMARK    3  A    between atoms: N_11  and  C_12 
REMARK    4  A    between atoms: C_12  and  C_13 
REMARK    5  A    between atoms: C_13  and  C_14 
REMARK    6  A    between atoms: C_14  and  O_15 
REMARK    7  A    between atoms: C_14  and  C_16 
ROOT
HETATM    1  N   UNL     1       5.032  28.687  57.497  1.00  0.00    -0.337 N 
HETATM    2  C   UNL     1       5.651  29.903  57.356  1.00  0.00     0.316 C 
HETATM    3  N   UNL     1       5.619  30.633  58.504  1.00  0.00    -0.339 N 
HETATM    4  O   UNL     1       6.188  30.259  56.312  1.00  0.00    -0.247 OA
HETATM    5  H   UNL     1       4.486  28.596  58.342  1.00  0.00     0.164 HD
HETATM    6  H   UNL     1       5.007  30.333  59.260  1.00  0.00     0.164 HD
ENDROOT
BRANCH   1   7
HETATM    7  C   UNL     1       4.558  27.948  56.344  1.00  0.00     0.183 C 
BRANCH   7   8
HETATM    8  C   UNL     1       5.475  26.849  55.949  1.00  0.00     0.044 A 
HETATM    9  N   UNL     1       5.315  26.098  54.794  1.00  0.00    -0.343 N 
HETATM   10  C   UNL     1       6.238  25.151  54.705  1.00  0.00     0.112 A 
HETATM   11  H   UNL     1       4.560  26.276  54.120  1.00  0.00     0.167 HD
HETATM   12  N   UNL     1       7.011  25.232  55.808  1.00  0.00    -0.311 N 
HETATM   13  C   UNL     1       6.471  24.126  53.664  1.00  0.00     0.049 A 
HETATM   14  C   UNL     1       8.060  24.348  56.054  1.00  0.00     0.014 A 
HETATM   15  C   UNL     1       6.564  26.291  56.585  1.00  0.00     0.125 A 
HETATM   16  C   UNL     1       8.878  24.447  57.307  1.00  0.00     0.068 C 
HETATM   17  C   UNL     1       8.280  23.404  55.110  1.00  0.00     0.025 A 
HETATM   18  C   UNL     1       7.490  23.279  53.890  1.00  0.00     0.006 A 
ENDBRANCH   7   8
ENDBRANCH   1   7
BRANCH   3  19
HETATM   19  C   UNL     1       5.999  32.039  58.578  1.00  0.00     0.085 C 
HETATM   20  C   UNL     1       5.112  32.899  57.678  1.00  0.00     0.032 C 
BRANCH  19  21
HETATM   21  C   UNL     1       6.026  32.518  60.046  1.00  0.00     0.063 C 
BRANCH  21  22
HETATM   22  C   UNL     1       7.284  32.207  60.873  1.00  0.00     0.177 C 
BRANCH  22  23
HETATM   23  O   UNL     1       7.516  30.790  60.917  1.00  0.00    -0.389 OA
HETATM   24  H   UNL     1       8.114  30.611  60.164  1.00  0.00     0.210 HD
ENDBRANCH  22  23
BRANCH  22  25
HETATM   25  C   UNL     1       7.250  32.726  62.273  1.00  0.00     0.081 A 
HETATM   26  O   UNL     1       6.160  33.473  62.630  1.00  0.00    -0.324 OA
HETATM   27  C   UNL     1       6.320  33.813  63.934  1.00  0.00     0.142 A 
HETATM   28  C   UNL     1       7.487  33.285  64.430  1.00  0.00     0.027 A 
HETATM   29  C   UNL     1       8.086  32.575  63.361  1.00  0.00     0.037 A 
ENDBRANCH  22  25
ENDBRANCH  21  22
ENDBRANCH  19  21
ENDBRANCH   3  19
TORSDOF 7
ENDMDL
