MODEL 1
REMARK VINA RESULT:      -8.5      0.000      0.000
REMARK  5 active torsions:
REMARK  status: ('A' for Active; 'I' for Inactive)
REMARK    1  A    between atoms: N_3  and  C_4 
REMARK    2  A    between atoms: C_5  and  O_6 
REMARK    3  A    between atoms: C_14  and  C_15 
REMARK    4  A    between atoms: C_15  and  N_16 
REMARK       I    between atoms: N_16  and  C_17 
REMARK       I    between atoms: C_17  and  N_18 
REMARK    5  A    between atoms: N_18  and  C_19 
ROOT
HETATM    1  C   UNL     1       3.390  29.322  52.135  1.00  0.00     0.068 C 
HETATM    2  C   UNL     1       4.499  28.405  52.522  1.00  0.00     0.014 A 
HETATM    3  N   UNL     1       5.176  27.554  51.652  1.00  0.00    -0.317 N 
HETATM    4  C   UNL     1       6.174  26.905  52.383  1.00  0.00     0.021 A 
HETATM    5  C   UNL     1       7.018  25.803  51.828  1.00  0.00     0.069 C 
HETATM    6  C   UNL     1       6.207  27.439  53.665  1.00  0.00    -0.016 A 
HETATM    7  C   UNL     1       5.110  28.326  53.759  1.00  0.00     0.035 A 
ENDROOT
BRANCH   6   8
HETATM    8  C   UNL     1       7.209  27.169  54.732  1.00  0.00     0.165 C 
BRANCH   8   9
HETATM    9  N   UNL     1       6.616  26.414  55.807  1.00  0.00    -0.339 N 
HETATM   10  C   UNL     1       6.539  25.056  55.894  1.00  0.00     0.316 C 
HETATM   11  N   UNL     1       7.288  24.373  54.981  1.00  0.00    -0.339 N 
HETATM   12  O   UNL     1       5.812  24.534  56.730  1.00  0.00    -0.247 OA
HETATM   13  H   UNL     1       8.115  24.855  54.666  1.00  0.00     0.164 HD
HETATM   14  H   UNL     1       5.988  26.899  56.438  1.00  0.00     0.164 HD
BRANCH  11  15
HETATM   15  C   UNL     1       7.351  22.921  54.878  1.00  0.00     0.086 C 
HETATM   16  C   UNL     1       8.137  22.260  56.018  1.00  0.00     0.025 C 
HETATM   17  C   UNL     1       8.076  20.737  55.911  1.00  0.00     0.002 C 
HETATM   18  C   UNL     1       8.542  20.247  54.541  1.00  0.00     0.000 C 
HETATM   19  C   UNL     1       7.784  20.924  53.403  1.00  0.00     0.002 C 
HETATM   20  C   UNL     1       7.846  22.447  53.508  1.00  0.00     0.025 C 
ENDBRANCH  11  15
ENDBRANCH   8   9
ENDBRANCH   6   8
BRANCH   3  21
HETATM   21  C   UNL     1       5.019  27.487  50.233  1.00  0.00     0.072 A 
HETATM   22  C   UNL     1       5.555  28.456  49.368  1.00  0.00     0.095 A 
HETATM   23  C   UNL     1       5.380  28.294  47.986  1.00  0.00     0.039 A 
HETATM   24  C   UNL     1       4.702  27.186  47.472  1.00  0.00     0.003 A 
HETATM   25  C   UNL     1       4.178  26.227  48.332  1.00  0.00     0.002 A 
HETATM   26  C   UNL     1       4.333  26.376  49.707  1.00  0.00     0.033 A 
BRANCH  22  27
HETATM   27  O   UNL     1       6.137  29.567  49.918  1.00  0.00    -0.354 OA
HETATM   28  C   UNL     1       5.634  30.828  49.490  1.00  0.00     0.210 C 
ENDBRANCH  22  27
ENDBRANCH   3  21
TORSDOF 5
ENDMDL
MODEL 2
REMARK VINA RESULT:      -8.4      4.988      8.191
REMARK  5 active torsions:
REMARK  status: ('A' for Active; 'I' for Inactive)
REMARK    1  A    between atoms: N_3  and  C_4 
REMARK    2  A    between atoms: C_5  and  O_6 
REMARK    3  A    between atoms: C_14  and  C_15 
REMARK    4  A    between atoms: C_15  and  N_16 
REMARK       I    between atoms: N_16  and  C_17 
REMARK       I    between atoms: C_17  and  N_18 
REMARK    5  A    between atoms: N_18  and  C_19 
ROOT
HETATM    1  C   UNL     1       7.990  27.787  53.646  1.00  0.00     0.068 C 
HETATM    2  C   UNL     1       7.009  27.764  54.767  1.00  0.00     0.014 A 
HETATM    3  N   UNL     1       6.580  26.618  55.433  1.00  0.00    -0.317 N 
HETATM    4  C   UNL     1       5.708  27.019  56.448  1.00  0.00     0.021 A 
HETATM    5  C   UNL     1       4.925  26.061  57.289  1.00  0.00     0.069 C 
HETATM    6  C   UNL     1       5.692  28.406  56.502  1.00  0.00    -0.016 A 
HETATM    7  C   UNL     1       6.455  28.860  55.402  1.00  0.00     0.035 A 
ENDROOT
BRANCH   6   8
HETATM    8  C   UNL     1       5.035  29.265  57.526  1.00  0.00     0.165 C 
BRANCH   8   9
HETATM    9  N   UNL     1       5.300  30.658  57.267  1.00  0.00    -0.339 N 
HETATM   10  C   UNL     1       5.932  31.528  58.104  1.00  0.00     0.316 C 
HETATM   11  N   UNL     1       6.551  30.956  59.177  1.00  0.00    -0.339 N 
HETATM   12  O   UNL     1       5.894  32.732  57.881  1.00  0.00    -0.247 OA
HETATM   13  H   UNL     1       6.868  30.012  59.029  1.00  0.00     0.164 HD
HETATM   14  H   UNL     1       4.779  31.111  56.526  1.00  0.00     0.164 HD
BRANCH  11  15
HETATM   15  C   UNL     1       7.275  31.689  60.206  1.00  0.00     0.086 C 
HETATM   16  C   UNL     1       8.494  30.936  60.753  1.00  0.00     0.025 C 
HETATM   17  C   UNL     1       9.269  31.800  61.748  1.00  0.00     0.002 C 
HETATM   18  C   UNL     1       8.369  32.314  62.871  1.00  0.00     0.000 C 
HETATM   19  C   UNL     1       7.139  33.039  62.331  1.00  0.00     0.002 C 
HETATM   20  C   UNL     1       6.363  32.176  61.337  1.00  0.00     0.025 C 
ENDBRANCH  11  15
ENDBRANCH   8   9
ENDBRANCH   6   8
BRANCH   3  21
HETATM   21  C   UNL     1       7.076  25.291  55.250  1.00  0.00     0.072 A 
HETATM   22  C   UNL     1       6.593  24.436  54.245  1.00  0.00     0.095 A 
HETATM   23  C   UNL     1       7.161  23.160  54.117  1.00  0.00     0.039 A 
HETATM   24  C   UNL     1       8.197  22.747  54.959  1.00  0.00     0.003 A 
HETATM   25  C   UNL     1       8.675  23.598  55.949  1.00  0.00     0.002 A 
HETATM   26  C   UNL     1       8.117  24.865  56.097  1.00  0.00     0.033 A 
BRANCH  22  27
HETATM   27  O   UNL     1       5.521  24.850  53.501  1.00  0.00    -0.354 OA
HETATM   28  C   UNL     1       5.775  25.163  52.136  1.00  0.00     0.210 C 
ENDBRANCH  22  27
ENDBRANCH   3  21
TORSDOF 5
ENDMDL
MODEL 3
REMARK VINA RESULT:      -8.4      6.113      9.051
REMARK  5 active torsions:
REMARK  status: ('A' for Active; 'I' for Inactive)
REMARK    1  A    between atoms: N_3  and  C_4 
REMARK    2  A    between atoms: C_5  and  O_6 
REMARK    3  A    between atoms: C_14  and  C_15 
REMARK    4  A    between atoms: C_15  and  N_16 
REMARK       I    between atoms: N_16  and  C_17 
REMARK       I    between atoms: C_17  and  N_18 
REMARK    5  A    between atoms: N_18  and  C_19 
ROOT
HETATM    1  C   UNL     1       4.462  27.718  56.155  1.00  0.00     0.068 C 
HETATM    2  C   UNL     1       5.754  28.227  56.697  1.00  0.00     0.014 A 
HETATM    3  N   UNL     1       7.014  27.751  56.343  1.00  0.00    -0.317 N 
HETATM    4  C   UNL     1       7.963  28.518  57.023  1.00  0.00     0.021 A 
HETATM    5  C   UNL     1       9.427  28.214  57.016  1.00  0.00     0.069 C 
HETATM    6  C   UNL     1       7.311  29.545  57.692  1.00  0.00    -0.016 A 
HETATM    7  C   UNL     1       5.926  29.311  57.536  1.00  0.00     0.035 A 
ENDROOT
BRANCH   6   8
HETATM    8  C   UNL     1       7.930  30.694  58.410  1.00  0.00     0.165 C 
BRANCH   8   9
HETATM    9  N   UNL     1       8.714  30.232  59.528  1.00  0.00    -0.339 N 
HETATM   10  C   UNL     1       8.539  30.577  60.834  1.00  0.00     0.316 C 
HETATM   11  N   UNL     1       7.380  31.243  61.109  1.00  0.00    -0.339 N 
HETATM   12  O   UNL     1       9.403  30.311  61.661  1.00  0.00    -0.247 OA
HETATM   13  H   UNL     1       6.613  31.029  60.492  1.00  0.00     0.164 HD
HETATM   14  H   UNL     1       9.617  29.815  59.334  1.00  0.00     0.164 HD
BRANCH  11  15
HETATM   15  C   UNL     1       6.988  31.718  62.428  1.00  0.00     0.086 C 
HETATM   16  C   UNL     1       5.562  32.282  62.479  1.00  0.00     0.025 C 
HETATM   17  C   UNL     1       5.176  32.663  63.908  1.00  0.00     0.002 C 
HETATM   18  C   UNL     1       6.188  33.624  64.529  1.00  0.00     0.000 C 
HETATM   19  C   UNL     1       7.613  33.080  64.455  1.00  0.00     0.002 C 
HETATM   20  C   UNL     1       8.001  32.700  63.027  1.00  0.00     0.025 C 
ENDBRANCH  11  15
ENDBRANCH   8   9
ENDBRANCH   6   8
BRANCH   3  21
HETATM   21  C   UNL     1       7.307  26.787  55.330  1.00  0.00     0.072 A 
HETATM   22  C   UNL     1       7.494  25.424  55.616  1.00  0.00     0.095 A 
HETATM   23  C   UNL     1       7.747  24.542  54.555  1.00  0.00     0.039 A 
HETATM   24  C   UNL     1       7.796  25.001  53.236  1.00  0.00     0.003 A 
HETATM   25  C   UNL     1       7.604  26.349  52.957  1.00  0.00     0.002 A 
HETATM   26  C   UNL     1       7.362  27.241  53.999  1.00  0.00     0.033 A 
BRANCH  22  27
HETATM   27  O   UNL     1       7.523  25.035  56.929  1.00  0.00    -0.354 OA
HETATM   28  C   UNL     1       8.709  24.386  57.375  1.00  0.00     0.210 C 
ENDBRANCH  22  27
ENDBRANCH   3  21
TORSDOF 5
ENDMDL
MODEL 4
REMARK VINA RESULT:      -8.3      4.976      7.750
REMARK  5 active torsions:
REMARK  status: ('A' for Active; 'I' for Inactive)
REMARK    1  A    between atoms: N_3  and  C_4 
REMARK    2  A    between atoms: C_5  and  O_6 
REMARK    3  A    between atoms: C_14  and  C_15 
REMARK    4  A    between atoms: C_15  and  N_16 
REMARK       I    between atoms: N_16  and  C_17 
REMARK       I    between atoms: C_17  and  N_18 
REMARK    5  A    between atoms: N_18  and  C_19 
ROOT
HETATM    1  C   UNL     1       5.374  33.119  58.415  1.00  0.00     0.068 C 
HETATM    2  C   UNL     1       5.752  31.766  57.918  1.00  0.00     0.014 A 
HETATM    3  N   UNL     1       6.805  30.997  58.408  1.00  0.00    -0.317 N 
HETATM    4  C   UNL     1       6.796  29.780  57.722  1.00  0.00     0.021 A 
HETATM    5  C   UNL     1       7.867  28.745  57.866  1.00  0.00     0.069 C 
HETATM    6  C   UNL     1       5.674  29.735  56.905  1.00  0.00    -0.016 A 
HETATM    7  C   UNL     1       5.068  31.009  56.985  1.00  0.00     0.035 A 
ENDROOT
BRANCH   6   8
HETATM    8  C   UNL     1       5.173  28.575  56.118  1.00  0.00     0.165 C 
BRANCH   8   9
HETATM    9  N   UNL     1       4.864  27.467  56.987  1.00  0.00    -0.339 N 
HETATM   10  C   UNL     1       5.248  26.172  56.811  1.00  0.00     0.316 C 
HETATM   11  N   UNL     1       6.190  25.971  55.843  1.00  0.00    -0.339 N 
HETATM   12  O   UNL     1       4.736  25.282  57.480  1.00  0.00    -0.247 OA
HETATM   13  H   UNL     1       6.807  26.751  55.685  1.00  0.00     0.164 HD
HETATM   14  H   UNL     1       4.106  27.581  57.650  1.00  0.00     0.164 HD
BRANCH  11  15
HETATM   15  C   UNL     1       6.739  24.674  55.475  1.00  0.00     0.086 C 
HETATM   16  C   UNL     1       7.988  24.287  56.277  1.00  0.00     0.025 C 
HETATM   17  C   UNL     1       8.451  22.875  55.920  1.00  0.00     0.002 C 
HETATM   18  C   UNL     1       8.670  22.715  54.416  1.00  0.00     0.000 C 
HETATM   19  C   UNL     1       7.440  23.127  53.612  1.00  0.00     0.002 C 
HETATM   20  C   UNL     1       6.977  24.540  53.968  1.00  0.00     0.025 C 
ENDBRANCH  11  15
ENDBRANCH   8   9
ENDBRANCH   6   8
BRANCH   3  21
HETATM   21  C   UNL     1       7.630  31.302  59.534  1.00  0.00     0.072 A 
HETATM   22  C   UNL     1       8.958  31.740  59.400  1.00  0.00     0.095 A 
HETATM   23  C   UNL     1       9.686  32.047  60.559  1.00  0.00     0.039 A 
HETATM   24  C   UNL     1       9.101  31.939  61.824  1.00  0.00     0.003 A 
HETATM   25  C   UNL     1       7.785  31.511  61.951  1.00  0.00     0.002 A 
HETATM   26  C   UNL     1       7.050  31.191  60.812  1.00  0.00     0.033 A 
BRANCH  22  27
HETATM   27  O   UNL     1       9.515  31.748  58.149  1.00  0.00    -0.354 OA
HETATM   28  C   UNL     1      10.709  30.991  57.977  1.00  0.00     0.210 C 
ENDBRANCH  22  27
ENDBRANCH   3  21
TORSDOF 5
ENDMDL
MODEL 5
REMARK VINA RESULT:      -8.2      2.666      4.281
REMARK  5 active torsions:
REMARK  status: ('A' for Active; 'I' for Inactive)
REMARK    1  A    between atoms: N_3  and  C_4 
REMARK    2  A    between atoms: C_5  and  O_6 
REMARK    3  A    between atoms: C_14  and  C_15 
REMARK    4  A    between atoms: C_15  and  N_16 
REMARK       I    between atoms: N_16  and  C_17 
REMARK       I    between atoms: C_17  and  N_18 
REMARK    5  A    between atoms: N_18  and  C_19 
ROOT
HETATM    1  C   UNL     1       5.386  28.198  47.416  1.00  0.00     0.068 C 
HETATM    2  C   UNL     1       4.742  28.458  48.734  1.00  0.00     0.014 A 
HETATM    3  N   UNL     1       3.378  28.651  48.936  1.00  0.00    -0.317 N 
HETATM    4  C   UNL     1       3.170  28.810  50.308  1.00  0.00     0.021 A 
HETATM    5  C   UNL     1       1.850  29.185  50.904  1.00  0.00     0.069 C 
HETATM    6  C   UNL     1       4.370  28.588  50.971  1.00  0.00    -0.016 A 
HETATM    7  C   UNL     1       5.358  28.438  49.971  1.00  0.00     0.035 A 
ENDROOT
BRANCH   6   8
HETATM    8  C   UNL     1       4.588  28.492  52.440  1.00  0.00     0.165 C 
BRANCH   8   9
HETATM    9  N   UNL     1       5.981  28.681  52.761  1.00  0.00    -0.339 N 
HETATM   10  C   UNL     1       6.830  27.738  53.258  1.00  0.00     0.316 C 
HETATM   11  N   UNL     1       6.354  26.458  53.234  1.00  0.00    -0.339 N 
HETATM   12  O   UNL     1       7.919  28.068  53.709  1.00  0.00    -0.247 OA
HETATM   13  H   UNL     1       5.694  26.266  52.499  1.00  0.00     0.164 HD
HETATM   14  H   UNL     1       6.319  29.630  52.866  1.00  0.00     0.164 HD
BRANCH  11  15
HETATM   15  C   UNL     1       7.080  25.294  53.722  1.00  0.00     0.086 C 
HETATM   16  C   UNL     1       7.407  24.271  52.626  1.00  0.00     0.025 C 
HETATM   17  C   UNL     1       8.258  23.130  53.181  1.00  0.00     0.002 C 
HETATM   18  C   UNL     1       7.601  22.472  54.394  1.00  0.00     0.000 C 
HETATM   19  C   UNL     1       7.248  23.490  55.474  1.00  0.00     0.002 C 
HETATM   20  C   UNL     1       6.395  24.631  54.921  1.00  0.00     0.025 C 
ENDBRANCH  11  15
ENDBRANCH   8   9
ENDBRANCH   6   8
BRANCH   3  21
HETATM   21  C   UNL     1       2.346  28.523  47.956  1.00  0.00     0.072 A 
HETATM   22  C   UNL     1       1.759  27.287  47.635  1.00  0.00     0.095 A 
HETATM   23  C   UNL     1       0.730  27.257  46.683  1.00  0.00     0.039 A 
HETATM   24  C   UNL     1       0.281  28.432  46.074  1.00  0.00     0.003 A 
HETATM   25  C   UNL     1       0.860  29.653  46.399  1.00  0.00     0.002 A 
HETATM   26  C   UNL     1       1.890  29.701  47.335  1.00  0.00     0.033 A 
BRANCH  22  27
HETATM   27  O   UNL     1       2.289  26.153  48.192  1.00  0.00    -0.354 OA
HETATM   28  C   UNL     1       2.976  25.271  47.311  1.00  0.00     0.210 C 
ENDBRANCH  22  27
ENDBRANCH   3  21
TORSDOF 5
ENDMDL
MODEL 6
REMARK VINA RESULT:      -8.1      5.649      8.176
REMARK  5 active torsions:
REMARK  status: ('A' for Active; 'I' for Inactive)
REMARK    1  A    between atoms: N_3  and  C_4 
REMARK    2  A    between atoms: C_5  and  O_6 
REMARK    3  A    between atoms: C_14  and  C_15 
REMARK    4  A    between atoms: C_15  and  N_16 
REMARK       I    between atoms: N_16  and  C_17 
REMARK       I    between atoms: C_17  and  N_18 
REMARK    5  A    between atoms: N_18  and  C_19 
ROOT
HETATM    1  C   UNL     1       3.765  28.279  53.417  1.00  0.00     0.068 C 
HETATM    2  C   UNL     1       4.423  28.387  54.750  1.00  0.00     0.014 A 
HETATM    3  N   UNL     1       5.441  27.556  55.211  1.00  0.00    -0.317 N 
HETATM    4  C   UNL     1       5.823  28.014  56.475  1.00  0.00     0.021 A 
HETATM    5  C   UNL     1       6.790  27.290  57.356  1.00  0.00     0.069 C 
HETATM    6  C   UNL     1       5.143  29.194  56.747  1.00  0.00    -0.016 A 
HETATM    7  C   UNL     1       4.221  29.379  55.691  1.00  0.00     0.035 A 
ENDROOT
BRANCH   6   8
HETATM    8  C   UNL     1       5.351  30.113  57.899  1.00  0.00     0.165 C 
BRANCH   8   9
HETATM    9  N   UNL     1       6.709  30.594  57.927  1.00  0.00    -0.339 N 
HETATM   10  C   UNL     1       7.267  31.382  58.889  1.00  0.00     0.316 C 
HETATM   11  N   UNL     1       6.519  31.533  60.021  1.00  0.00    -0.339 N 
HETATM   12  O   UNL     1       8.351  31.917  58.693  1.00  0.00    -0.247 OA
HETATM   13  H   UNL     1       5.911  30.759  60.233  1.00  0.00     0.164 HD
HETATM   14  H   UNL     1       7.241  30.564  57.066  1.00  0.00     0.164 HD
BRANCH  11  15
HETATM   15  C   UNL     1       6.909  32.336  61.172  1.00  0.00     0.086 C 
HETATM   16  C   UNL     1       7.628  31.535  62.264  1.00  0.00     0.025 C 
HETATM   17  C   UNL     1       8.103  32.452  63.391  1.00  0.00     0.002 C 
HETATM   18  C   UNL     1       6.958  33.287  63.962  1.00  0.00     0.000 C 
HETATM   19  C   UNL     1       6.220  34.063  62.874  1.00  0.00     0.002 C 
HETATM   20  C   UNL     1       5.743  33.147  61.748  1.00  0.00     0.025 C 
ENDBRANCH  11  15
ENDBRANCH   8   9
ENDBRANCH   6   8
BRANCH   3  21
HETATM   21  C   UNL     1       6.115  26.541  54.465  1.00  0.00     0.072 A 
HETATM   22  C   UNL     1       7.263  26.804  53.697  1.00  0.00     0.095 A 
HETATM   23  C   UNL     1       7.878  25.741  53.022  1.00  0.00     0.039 A 
HETATM   24  C   UNL     1       7.376  24.440  53.119  1.00  0.00     0.003 A 
HETATM   25  C   UNL     1       6.243  24.184  53.883  1.00  0.00     0.002 A 
HETATM   26  C   UNL     1       5.613  25.229  54.554  1.00  0.00     0.033 A 
BRANCH  22  27
HETATM   27  O   UNL     1       7.668  28.105  53.562  1.00  0.00    -0.354 OA
HETATM   28  C   UNL     1       8.718  28.538  54.420  1.00  0.00     0.210 C 
ENDBRANCH  22  27
ENDBRANCH   3  21
TORSDOF 5
ENDMDL
MODEL 7
REMARK VINA RESULT:      -8.1      5.384      8.071
REMARK  5 active torsions:
REMARK  status: ('A' for Active; 'I' for Inactive)
REMARK    1  A    between atoms: N_3  and  C_4 
REMARK    2  A    between atoms: C_5  and  O_6 
REMARK    3  A    between atoms: C_14  and  C_15 
REMARK    4  A    between atoms: C_15  and  N_16 
REMARK       I    between atoms: N_16  and  C_17 
REMARK       I    between atoms: C_17  and  N_18 
REMARK    5  A    between atoms: N_18  and  C_19 
ROOT
HETATM    1  C   UNL     1       5.017  25.297  57.080  1.00  0.00     0.068 C 
HETATM    2  C   UNL     1       5.821  26.516  56.784  1.00  0.00     0.014 A 
HETATM    3  N   UNL     1       6.650  26.680  55.677  1.00  0.00    -0.317 N 
HETATM    4  C   UNL     1       7.180  27.972  55.732  1.00  0.00     0.021 A 
HETATM    5  C   UNL     1       8.232  28.472  54.794  1.00  0.00     0.069 C 
HETATM    6  C   UNL     1       6.588  28.654  56.787  1.00  0.00    -0.016 A 
HETATM    7  C   UNL     1       5.792  27.711  57.478  1.00  0.00     0.035 A 
ENDROOT
BRANCH   6   8
HETATM    8  C   UNL     1       6.725  30.098  57.123  1.00  0.00     0.165 C 
BRANCH   8   9
HETATM    9  N   UNL     1       8.042  30.378  57.637  1.00  0.00    -0.339 N 
HETATM   10  C   UNL     1       8.336  31.097  58.756  1.00  0.00     0.316 C 
HETATM   11  N   UNL     1       7.270  31.378  59.561  1.00  0.00    -0.339 N 
HETATM   12  O   UNL     1       9.484  31.466  58.965  1.00  0.00    -0.247 OA
HETATM   13  H   UNL     1       6.522  30.705  59.525  1.00  0.00     0.164 HD
HETATM   14  H   UNL     1       8.831  30.253  57.013  1.00  0.00     0.164 HD
BRANCH  11  15
HETATM   15  C   UNL     1       7.344  32.142  60.799  1.00  0.00     0.086 C 
HETATM   16  C   UNL     1       7.990  31.370  61.958  1.00  0.00     0.025 C 
HETATM   17  C   UNL     1       8.134  32.259  63.193  1.00  0.00     0.002 C 
HETATM   18  C   UNL     1       6.800  32.882  63.600  1.00  0.00     0.000 C 
HETATM   19  C   UNL     1       6.139  33.626  62.442  1.00  0.00     0.002 C 
HETATM   20  C   UNL     1       5.993  32.738  61.207  1.00  0.00     0.025 C 
ENDBRANCH  11  15
ENDBRANCH   8   9
ENDBRANCH   6   8
BRANCH   3  21
HETATM   21  C   UNL     1       6.794  25.777  54.580  1.00  0.00     0.072 A 
HETATM   22  C   UNL     1       6.018  25.877  53.413  1.00  0.00     0.095 A 
HETATM   23  C   UNL     1       6.248  24.966  52.371  1.00  0.00     0.039 A 
HETATM   24  C   UNL     1       7.239  23.987  52.479  1.00  0.00     0.003 A 
HETATM   25  C   UNL     1       8.008  23.895  53.633  1.00  0.00     0.002 A 
HETATM   26  C   UNL     1       7.787  24.785  54.682  1.00  0.00     0.033 A 
BRANCH  22  27
HETATM   27  O   UNL     1       5.002  26.796  53.386  1.00  0.00    -0.354 OA
HETATM   28  C   UNL     1       5.188  27.926  52.541  1.00  0.00     0.210 C 
ENDBRANCH  22  27
ENDBRANCH   3  21
TORSDOF 5
ENDMDL
MODEL 8
REMARK VINA RESULT:      -8.1      4.471      7.495
REMARK  5 active torsions:
REMARK  status: ('A' for Active; 'I' for Inactive)
REMARK    1  A    between atoms: N_3  and  C_4 
REMARK    2  A    between atoms: C_5  and  O_6 
REMARK    3  A    between atoms: C_14  and  C_15 
REMARK    4  A    between atoms: C_15  and  N_16 
REMARK       I    between atoms: N_16  and  C_17 
REMARK       I    between atoms: C_17  and  N_18 
REMARK    5  A    between atoms: N_18  and  C_19 
ROOT
HETATM    1  C   UNL     1      10.399  31.042  57.833  1.00  0.00     0.068 C 
HETATM    2  C   UNL     1       9.367  30.075  57.362  1.00  0.00     0.014 A 
HETATM    3  N   UNL     1       8.063  29.996  57.846  1.00  0.00    -0.317 N 
HETATM    4  C   UNL     1       7.400  29.007  57.116  1.00  0.00     0.021 A 
HETATM    5  C   UNL     1       6.021  28.527  57.442  1.00  0.00     0.069 C 
HETATM    6  C   UNL     1       8.237  28.562  56.101  1.00  0.00    -0.016 A 
HETATM    7  C   UNL     1       9.487  29.189  56.309  1.00  0.00     0.035 A 
ENDROOT
BRANCH   6   8
HETATM    8  C   UNL     1       7.896  27.636  54.987  1.00  0.00     0.165 C 
BRANCH   8   9
HETATM    9  N   UNL     1       6.641  26.974  55.241  1.00  0.00    -0.339 N 
HETATM   10  C   UNL     1       6.378  25.649  55.068  1.00  0.00     0.316 C 
HETATM   11  N   UNL     1       7.473  24.864  54.845  1.00  0.00    -0.339 N 
HETATM   12  O   UNL     1       5.223  25.243  55.091  1.00  0.00    -0.247 OA
HETATM   13  H   UNL     1       8.327  25.203  55.255  1.00  0.00     0.164 HD
HETATM   14  H   UNL     1       5.810  27.548  55.321  1.00  0.00     0.164 HD
BRANCH  11  15
HETATM   15  C   UNL     1       7.431  23.425  54.621  1.00  0.00     0.086 C 
HETATM   16  C   UNL     1       7.969  22.606  55.801  1.00  0.00     0.025 C 
HETATM   17  C   UNL     1       7.800  21.108  55.548  1.00  0.00     0.002 C 
HETATM   18  C   UNL     1       8.435  20.683  54.226  1.00  0.00     0.000 C 
HETATM   19  C   UNL     1       7.925  21.515  53.052  1.00  0.00     0.002 C 
HETATM   20  C   UNL     1       8.095  23.013  53.303  1.00  0.00     0.025 C 
ENDBRANCH  11  15
ENDBRANCH   8   9
ENDBRANCH   6   8
BRANCH   3  21
HETATM   21  C   UNL     1       7.446  30.884  58.780  1.00  0.00     0.072 A 
HETATM   22  C   UNL     1       7.840  30.954  60.127  1.00  0.00     0.095 A 
HETATM   23  C   UNL     1       7.201  31.877  60.968  1.00  0.00     0.039 A 
HETATM   24  C   UNL     1       6.203  32.724  60.478  1.00  0.00     0.003 A 
HETATM   25  C   UNL     1       5.821  32.655  59.143  1.00  0.00     0.002 A 
HETATM   26  C   UNL     1       6.438  31.737  58.296  1.00  0.00     0.033 A 
BRANCH  22  27
HETATM   27  O   UNL     1       8.760  30.047  60.583  1.00  0.00    -0.354 OA
HETATM   28  C   UNL     1       9.427  30.371  61.798  1.00  0.00     0.210 C 
ENDBRANCH  22  27
ENDBRANCH   3  21
TORSDOF 5
ENDMDL
MODEL 9
REMARK VINA RESULT:      -8.0      3.361      6.119
REMARK  5 active torsions:
REMARK  status: ('A' for Active; 'I' for Inactive)
REMARK    1  A    between atoms: N_3  and  C_4 
REMARK    2  A    between atoms: C_5  and  O_6 
REMARK    3  A    between atoms: C_14  and  C_15 
REMARK    4  A    between atoms: C_15  and  N_16 
REMARK       I    between atoms: N_16  and  C_17 
REMARK       I    between atoms: C_17  and  N_18 
REMARK    5  A    between atoms: N_18  and  C_19 
ROOT
HETATM    1  C   UNL     1       7.504  25.906  58.233  1.00  0.00     0.068 C 
HETATM    2  C   UNL     1       6.891  26.386  56.963  1.00  0.00     0.014 A 
HETATM    3  N   UNL     1       7.085  27.648  56.406  1.00  0.00    -0.317 N 
HETATM    4  C   UNL     1       6.389  27.690  55.196  1.00  0.00     0.021 A 
HETATM    5  C   UNL     1       6.236  28.931  54.375  1.00  0.00     0.069 C 
HETATM    6  C   UNL     1       5.872  26.428  54.934  1.00  0.00    -0.016 A 
HETATM    7  C   UNL     1       6.135  25.641  56.078  1.00  0.00     0.035 A 
ENDROOT
BRANCH   6   8
HETATM    8  C   UNL     1       5.201  25.965  53.688  1.00  0.00     0.165 C 
BRANCH   8   9
HETATM    9  N   UNL     1       6.169  25.717  52.650  1.00  0.00    -0.339 N 
HETATM   10  C   UNL     1       7.133  24.754  52.659  1.00  0.00     0.316 C 
HETATM   11  N   UNL     1       7.009  23.817  53.644  1.00  0.00    -0.339 N 
HETATM   12  O   UNL     1       8.041  24.786  51.837  1.00  0.00    -0.247 OA
HETATM   13  H   UNL     1       6.065  23.649  53.951  1.00  0.00     0.164 HD
HETATM   14  H   UNL     1       6.328  26.447  51.965  1.00  0.00     0.164 HD
BRANCH  11  15
HETATM   15  C   UNL     1       7.926  22.705  53.852  1.00  0.00     0.086 C 
HETATM   16  C   UNL     1       7.642  21.499  52.948  1.00  0.00     0.025 C 
HETATM   17  C   UNL     1       8.700  20.412  53.139  1.00  0.00     0.002 C 
HETATM   18  C   UNL     1       8.831  20.003  54.605  1.00  0.00     0.000 C 
HETATM   19  C   UNL     1       9.084  21.204  55.513  1.00  0.00     0.002 C 
HETATM   20  C   UNL     1       8.026  22.291  55.324  1.00  0.00     0.025 C 
ENDBRANCH  11  15
ENDBRANCH   8   9
ENDBRANCH   6   8
BRANCH   3  21
HETATM   21  C   UNL     1       7.982  28.657  56.876  1.00  0.00     0.072 A 
HETATM   22  C   UNL     1       7.575  29.683  57.746  1.00  0.00     0.095 A 
HETATM   23  C   UNL     1       8.530  30.613  58.182  1.00  0.00     0.039 A 
HETATM   24  C   UNL     1       9.864  30.518  57.776  1.00  0.00     0.003 A 
HETATM   25  C   UNL     1      10.262  29.498  56.919  1.00  0.00     0.002 A 
HETATM   26  C   UNL     1       9.326  28.571  56.468  1.00  0.00     0.033 A 
BRANCH  22  27
HETATM   27  O   UNL     1       6.243  29.787  58.048  1.00  0.00    -0.354 OA
HETATM   28  C   UNL     1       5.566  30.938  57.555  1.00  0.00     0.210 C 
ENDBRANCH  22  27
ENDBRANCH   3  21
TORSDOF 5
ENDMDL
MODEL 10
REMARK VINA RESULT:      -7.9      2.482      3.627
REMARK  5 active torsions:
REMARK  status: ('A' for Active; 'I' for Inactive)
REMARK    1  A    between atoms: N_3  and  C_4 
REMARK    2  A    between atoms: C_5  and  O_6 
REMARK    3  A    between atoms: C_14  and  C_15 
REMARK    4  A    between atoms: C_15  and  N_16 
REMARK       I    between atoms: N_16  and  C_17 
REMARK       I    between atoms: C_17  and  N_18 
REMARK    5  A    between atoms: N_18  and  C_19 
ROOT
HETATM    1  C   UNL     1       3.731  30.478  51.078  1.00  0.00     0.068 C 
HETATM    2  C   UNL     1       3.961  29.050  50.720  1.00  0.00     0.014 A 
HETATM    3  N   UNL     1       3.859  28.519  49.436  1.00  0.00    -0.317 N 
HETATM    4  C   UNL     1       4.202  27.166  49.509  1.00  0.00     0.021 A 
HETATM    5  C   UNL     1       4.070  26.220  48.358  1.00  0.00     0.069 C 
HETATM    6  C   UNL     1       4.639  26.884  50.796  1.00  0.00    -0.016 A 
HETATM    7  C   UNL     1       4.419  28.053  51.560  1.00  0.00     0.035 A 
ENDROOT
BRANCH   6   8
HETATM    8  C   UNL     1       5.253  25.619  51.287  1.00  0.00     0.165 C 
BRANCH   8   9
HETATM    9  N   UNL     1       6.690  25.723  51.303  1.00  0.00    -0.339 N 
HETATM   10  C   UNL     1       7.545  24.979  52.059  1.00  0.00     0.316 C 
HETATM   11  N   UNL     1       6.982  23.901  52.680  1.00  0.00    -0.339 N 
HETATM   12  O   UNL     1       8.719  25.310  52.165  1.00  0.00    -0.247 OA
HETATM   13  H   UNL     1       6.187  23.507  52.205  1.00  0.00     0.164 HD
HETATM   14  H   UNL     1       7.109  26.563  50.921  1.00  0.00     0.164 HD
BRANCH  11  15
HETATM   15  C   UNL     1       7.699  22.974  53.545  1.00  0.00     0.086 C 
HETATM   16  C   UNL     1       7.734  21.537  53.009  1.00  0.00     0.025 C 
HETATM   17  C   UNL     1       8.588  20.641  53.904  1.00  0.00     0.002 C 
HETATM   18  C   UNL     1       8.127  20.692  55.360  1.00  0.00     0.000 C 
HETATM   19  C   UNL     1       8.063  22.122  55.889  1.00  0.00     0.002 C 
HETATM   20  C   UNL     1       7.207  23.019  54.995  1.00  0.00     0.025 C 
ENDBRANCH  11  15
ENDBRANCH   8   9
ENDBRANCH   6   8
BRANCH   3  21
HETATM   21  C   UNL     1       3.635  29.248  48.229  1.00  0.00     0.072 A 
HETATM   22  C   UNL     1       2.358  29.387  47.657  1.00  0.00     0.095 A 
HETATM   23  C   UNL     1       2.225  30.147  46.486  1.00  0.00     0.039 A 
HETATM   24  C   UNL     1       3.332  30.771  45.904  1.00  0.00     0.003 A 
HETATM   25  C   UNL     1       4.591  30.635  46.476  1.00  0.00     0.002 A 
HETATM   26  C   UNL     1       4.745  29.875  47.633  1.00  0.00     0.033 A 
BRANCH  22  27
HETATM   27  O   UNL     1       1.319  28.689  48.213  1.00  0.00    -0.354 OA
HETATM   28  C   UNL     1       0.752  27.652  47.420  1.00  0.00     0.210 C 
ENDBRANCH  22  27
ENDBRANCH   3  21
TORSDOF 5
ENDMDL
