MODEL 1
REMARK VINA RESULT:     -10.6      0.000      0.000
REMARK  7 active torsions:
REMARK  status: ('A' for Active; 'I' for Inactive)
REMARK    1  A    between atoms: C_6  and  N_7 
REMARK    2  A    between atoms: N_7  and  C_8 
REMARK    3  A    between atoms: C_13  and  C_14 
REMARK       I    between atoms: C_14  and  N_15 
REMARK    4  A    between atoms: N_15  and  C_16 
REMARK    5  A    between atoms: C_16  and  C_17 
REMARK    6  A    between atoms: C_17  and  N_18 
REMARK       I    between atoms: N_18  and  C_19 
REMARK    7  A    between atoms: C_19  and  C_20 
ROOT
HETATM    1  C   UNL     1       7.594  28.219  57.745  1.00  0.00     0.255 C 
HETATM    2  N   UNL     1       6.441  28.627  57.110  1.00  0.00    -0.355 N 
HETATM    3  O   UNL     1       7.712  27.135  58.309  1.00  0.00    -0.268 OA
HETATM    4  H   UNL     1       6.432  29.479  56.565  1.00  0.00     0.162 HD
ENDROOT
BRANCH   1   5
HETATM    5  C   UNL     1       8.728  29.173  57.726  1.00  0.00     0.077 A 
HETATM    6  C   UNL     1       8.835  30.170  58.712  1.00  0.00     0.143 A 
HETATM    7  N   UNL     1       9.861  31.057  58.676  1.00  0.00    -0.242 NA
HETATM    8  C   UNL     1      10.756  30.985  57.665  1.00  0.00     0.119 A 
HETATM    9  C   UNL     1      10.701  30.045  56.654  1.00  0.00     0.020 A 
HETATM   10  C   UNL     1       9.665  29.122  56.684  1.00  0.00     0.022 A 
BRANCH   6  11
HETATM   11  N   UNL     1       7.911  30.194  59.783  1.00  0.00    -0.340 N 
HETATM   12  H   UNL     1       7.195  29.479  59.635  1.00  0.00     0.167 HD
BRANCH  11  13
HETATM   13  C   UNL     1       7.475  31.248  60.611  1.00  0.00     0.036 A 
HETATM   14  C   UNL     1       8.133  31.458  61.832  1.00  0.00     0.071 A 
HETATM   15  C   UNL     1       7.776  32.522  62.658  1.00  0.00     0.118 A 
HETATM   16  C   UNL     1       6.779  33.412  62.291  1.00  0.00     0.042 A 
HETATM   17  F   UNL     1       8.414  32.691  63.824  1.00  0.00    -0.206 F 
HETATM   18  C   UNL     1       6.135  33.240  61.071  1.00  0.00     0.005 A 
HETATM   19  C   UNL     1       6.491  32.173  60.236  1.00  0.00     0.029 A 
ENDBRANCH  11  13
ENDBRANCH   6  11
ENDBRANCH   1   5
BRANCH   2  20
HETATM   20  C   UNL     1       5.257  27.789  57.068  1.00  0.00     0.142 C 
BRANCH  20  21
HETATM   21  C   UNL     1       4.883  27.386  55.637  1.00  0.00     0.142 C 
BRANCH  21  22
HETATM   22  N   UNL     1       5.434  26.101  55.246  1.00  0.00    -0.355 N 
HETATM   23  C   UNL     1       6.697  26.002  54.702  1.00  0.00     0.251 C 
HETATM   24  O   UNL     1       7.437  26.966  54.545  1.00  0.00    -0.268 OA
HETATM   25  H   UNL     1       4.799  25.316  55.212  1.00  0.00     0.162 HD
BRANCH  23  26
HETATM   26  C   UNL     1       7.136  24.647  54.269  1.00  0.00     0.033 A 
HETATM   27  C   UNL     1       7.201  23.634  55.233  1.00  0.00     0.042 A 
HETATM   28  C   UNL     1       7.605  22.343  54.876  1.00  0.00     0.056 A 
HETATM   29 CL   UNL     1       7.675  21.149  56.121  1.00  0.00    -0.083 Cl
HETATM   30  C   UNL     1       7.935  22.059  53.546  1.00  0.00     0.055 A 
HETATM   31 CL   UNL     1       8.443  20.491  53.030  1.00  0.00    -0.083 Cl
HETATM   32  C   UNL     1       7.853  23.066  52.579  1.00  0.00     0.026 A 
HETATM   33  C   UNL     1       7.450  24.357  52.935  1.00  0.00     0.019 A 
ENDBRANCH  23  26
ENDBRANCH  21  22
ENDBRANCH  20  21
ENDBRANCH   2  20
TORSDOF 7
ENDMDL
MODEL 2
REMARK VINA RESULT:      -9.9      5.121     10.343
REMARK  7 active torsions:
REMARK  status: ('A' for Active; 'I' for Inactive)
REMARK    1  A    between atoms: C_6  and  N_7 
REMARK    2  A    between atoms: N_7  and  C_8 
REMARK    3  A    between atoms: C_13  and  C_14 
REMARK       I    between atoms: C_14  and  N_15 
REMARK    4  A    between atoms: N_15  and  C_16 
REMARK    5  A    between atoms: C_16  and  C_17 
REMARK    6  A    between atoms: C_17  and  N_18 
REMARK       I    between atoms: N_18  and  C_19 
REMARK    7  A    between atoms: C_19  and  C_20 
ROOT
HETATM    1  C   UNL     1       7.395  26.853  56.065  1.00  0.00     0.255 C 
HETATM    2  N   UNL     1       8.094  28.040  56.040  1.00  0.00    -0.355 N 
HETATM    3  O   UNL     1       7.501  26.020  56.960  1.00  0.00    -0.268 OA
HETATM    4  H   UNL     1       7.886  28.740  55.340  1.00  0.00     0.162 HD
ENDROOT
BRANCH   1   5
HETATM    5  C   UNL     1       6.476  26.607  54.928  1.00  0.00     0.077 A 
HETATM    6  C   UNL     1       6.711  25.540  54.041  1.00  0.00     0.143 A 
HETATM    7  N   UNL     1       5.882  25.334  52.988  1.00  0.00    -0.242 NA
HETATM    8  C   UNL     1       4.850  26.184  52.789  1.00  0.00     0.119 A 
HETATM    9  C   UNL     1       4.572  27.262  53.606  1.00  0.00     0.020 A 
HETATM   10  C   UNL     1       5.403  27.479  54.697  1.00  0.00     0.022 A 
BRANCH   6  11
HETATM   11  N   UNL     1       7.771  24.639  54.300  1.00  0.00    -0.340 N 
HETATM   12  H   UNL     1       8.645  25.022  53.929  1.00  0.00     0.167 HD
BRANCH  11  13
HETATM   13  C   UNL     1       7.790  23.236  54.418  1.00  0.00     0.036 A 
HETATM   14  C   UNL     1       8.052  22.469  53.274  1.00  0.00     0.071 A 
HETATM   15  C   UNL     1       8.137  21.080  53.353  1.00  0.00     0.118 A 
HETATM   16  C   UNL     1       7.986  20.419  54.562  1.00  0.00     0.042 A 
HETATM   17  F   UNL     1       8.378  20.372  52.241  1.00  0.00    -0.206 F 
HETATM   18  C   UNL     1       7.756  21.162  55.714  1.00  0.00     0.005 A 
HETATM   19  C   UNL     1       7.670  22.559  55.641  1.00  0.00     0.029 A 
ENDBRANCH  11  13
ENDBRANCH   6  11
ENDBRANCH   1   5
BRANCH   2  20
HETATM   20  C   UNL     1       9.033  28.393  57.088  1.00  0.00     0.142 C 
BRANCH  20  21
HETATM   21  C   UNL     1       9.193  29.911  57.234  1.00  0.00     0.142 C 
BRANCH  21  22
HETATM   22  N   UNL     1       8.649  30.423  58.478  1.00  0.00    -0.355 N 
HETATM   23  C   UNL     1       9.169  31.554  59.073  1.00  0.00     0.251 C 
HETATM   24  O   UNL     1      10.083  32.208  58.585  1.00  0.00    -0.268 OA
HETATM   25  H   UNL     1       8.010  29.827  58.985  1.00  0.00     0.162 HD
BRANCH  23  26
HETATM   26  C   UNL     1       8.584  31.951  60.383  1.00  0.00     0.033 A 
HETATM   27  C   UNL     1       7.291  32.488  60.395  1.00  0.00     0.042 A 
HETATM   28  C   UNL     1       6.697  32.873  61.601  1.00  0.00     0.056 A 
HETATM   29 CL   UNL     1       5.105  33.540  61.537  1.00  0.00    -0.083 Cl
HETATM   30  C   UNL     1       7.394  32.713  62.804  1.00  0.00     0.055 A 
HETATM   31 CL   UNL     1       6.726  33.167  64.331  1.00  0.00    -0.083 Cl
HETATM   32  C   UNL     1       8.679  32.161  62.795  1.00  0.00     0.026 A 
HETATM   33  C   UNL     1       9.273  31.775  61.590  1.00  0.00     0.019 A 
ENDBRANCH  23  26
ENDBRANCH  21  22
ENDBRANCH  20  21
ENDBRANCH   2  20
TORSDOF 7
ENDMDL
MODEL 3
REMARK VINA RESULT:      -9.2      5.013     10.243
REMARK  7 active torsions:
REMARK  status: ('A' for Active; 'I' for Inactive)
REMARK    1  A    between atoms: C_6  and  N_7 
REMARK    2  A    between atoms: N_7  and  C_8 
REMARK    3  A    between atoms: C_13  and  C_14 
REMARK       I    between atoms: C_14  and  N_15 
REMARK    4  A    between atoms: N_15  and  C_16 
REMARK    5  A    between atoms: C_16  and  C_17 
REMARK    6  A    between atoms: C_17  and  N_18 
REMARK       I    between atoms: N_18  and  C_19 
REMARK    7  A    between atoms: C_19  and  C_20 
ROOT
HETATM    1  C   UNL     1       7.726  29.378  56.494  1.00  0.00     0.255 C 
HETATM    2  N   UNL     1       7.677  29.783  57.810  1.00  0.00    -0.355 N 
HETATM    3  O   UNL     1       8.771  29.218  55.871  1.00  0.00    -0.268 OA
HETATM    4  H   UNL     1       6.797  29.790  58.310  1.00  0.00     0.162 HD
ENDROOT
BRANCH   1   5
HETATM    5  C   UNL     1       6.422  29.133  55.833  1.00  0.00     0.077 A 
HETATM    6  C   UNL     1       6.163  27.900  55.207  1.00  0.00     0.143 A 
HETATM    7  N   UNL     1       4.978  27.688  54.582  1.00  0.00    -0.242 NA
HETATM    8  C   UNL     1       4.068  28.687  54.545  1.00  0.00     0.119 A 
HETATM    9  C   UNL     1       4.264  29.928  55.120  1.00  0.00     0.020 A 
HETATM   10  C   UNL     1       5.465  30.156  55.775  1.00  0.00     0.022 A 
BRANCH   6  11
HETATM   11  N   UNL     1       7.114  26.856  55.301  1.00  0.00    -0.340 N 
HETATM   12  H   UNL     1       7.946  27.193  55.793  1.00  0.00     0.167 HD
BRANCH  11  13
HETATM   13  C   UNL     1       7.380  25.762  54.454  1.00  0.00     0.036 A 
HETATM   14  C   UNL     1       7.247  24.465  54.971  1.00  0.00     0.071 A 
HETATM   15  C   UNL     1       7.442  23.351  54.157  1.00  0.00     0.118 A 
HETATM   16  C   UNL     1       7.753  23.490  52.813  1.00  0.00     0.042 A 
HETATM   17  F   UNL     1       7.320  22.124  54.681  1.00  0.00    -0.206 F 
HETATM   18  C   UNL     1       7.860  24.767  52.273  1.00  0.00     0.005 A 
HETATM   19  C   UNL     1       7.663  25.890  53.087  1.00  0.00     0.029 A 
ENDBRANCH  11  13
ENDBRANCH   6  11
ENDBRANCH   1   5
BRANCH   2  20
HETATM   20  C   UNL     1       8.883  30.066  58.566  1.00  0.00     0.142 C 
BRANCH  20  21
HETATM   21  C   UNL     1       9.032  31.559  58.880  1.00  0.00     0.142 C 
BRANCH  21  22
HETATM   22  N   UNL     1       8.181  31.999  59.971  1.00  0.00    -0.355 N 
HETATM   23  C   UNL     1       8.667  32.109  61.256  1.00  0.00     0.251 C 
HETATM   24  O   UNL     1       9.834  31.880  61.554  1.00  0.00    -0.268 OA
HETATM   25  H   UNL     1       7.187  32.041  59.795  1.00  0.00     0.162 HD
BRANCH  23  26
HETATM   26  C   UNL     1       7.692  32.498  62.311  1.00  0.00     0.033 A 
HETATM   27  C   UNL     1       6.334  32.541  61.972  1.00  0.00     0.042 A 
HETATM   28  C   UNL     1       5.378  32.898  62.929  1.00  0.00     0.056 A 
HETATM   29 CL   UNL     1       3.723  32.942  62.435  1.00  0.00    -0.083 Cl
HETATM   30  C   UNL     1       5.778  33.204  64.234  1.00  0.00     0.055 A 
HETATM   31 CL   UNL     1       4.656  33.655  65.467  1.00  0.00    -0.083 Cl
HETATM   32  C   UNL     1       7.132  33.145  64.578  1.00  0.00     0.026 A 
HETATM   33  C   UNL     1       8.089  32.789  63.622  1.00  0.00     0.019 A 
ENDBRANCH  23  26
ENDBRANCH  21  22
ENDBRANCH  20  21
ENDBRANCH   2  20
TORSDOF 7
ENDMDL
MODEL 4
REMARK VINA RESULT:      -9.1      3.105      4.730
REMARK  7 active torsions:
REMARK  status: ('A' for Active; 'I' for Inactive)
REMARK    1  A    between atoms: C_6  and  N_7 
REMARK    2  A    between atoms: N_7  and  C_8 
REMARK    3  A    between atoms: C_13  and  C_14 
REMARK       I    between atoms: C_14  and  N_15 
REMARK    4  A    between atoms: N_15  and  C_16 
REMARK    5  A    between atoms: C_16  and  C_17 
REMARK    6  A    between atoms: C_17  and  N_18 
REMARK       I    between atoms: N_18  and  C_19 
REMARK    7  A    between atoms: C_19  and  C_20 
ROOT
HETATM    1  C   UNL     1       4.403  29.316  55.193  1.00  0.00     0.255 C 
HETATM    2  N   UNL     1       5.192  29.437  54.070  1.00  0.00    -0.355 N 
HETATM    3  O   UNL     1       3.971  28.245  55.608  1.00  0.00    -0.268 OA
HETATM    4  H   UNL     1       5.614  30.327  53.835  1.00  0.00     0.162 HD
ENDROOT
BRANCH   1   5
HETATM    5  C   UNL     1       4.079  30.574  55.907  1.00  0.00     0.077 A 
HETATM    6  C   UNL     1       4.488  30.759  57.241  1.00  0.00     0.143 A 
HETATM    7  N   UNL     1       4.169  31.901  57.899  1.00  0.00    -0.242 NA
HETATM    8  C   UNL     1       3.431  32.840  57.265  1.00  0.00     0.119 A 
HETATM    9  C   UNL     1       2.980  32.716  55.966  1.00  0.00     0.020 A 
HETATM   10  C   UNL     1       3.309  31.559  55.273  1.00  0.00     0.022 A 
BRANCH   6  11
HETATM   11  N   UNL     1       5.298  29.780  57.864  1.00  0.00    -0.340 N 
HETATM   12  H   UNL     1       4.902  29.537  58.775  1.00  0.00     0.167 HD
BRANCH  11  13
HETATM   13  C   UNL     1       6.681  29.527  57.778  1.00  0.00     0.036 A 
HETATM   14  C   UNL     1       7.107  28.240  57.421  1.00  0.00     0.071 A 
HETATM   15  C   UNL     1       8.463  27.955  57.266  1.00  0.00     0.118 A 
HETATM   16  C   UNL     1       9.426  28.937  57.441  1.00  0.00     0.042 A 
HETATM   17  F   UNL     1       8.840  26.713  56.936  1.00  0.00    -0.206 F 
HETATM   18  C   UNL     1       9.024  30.228  57.766  1.00  0.00     0.005 A 
HETATM   19  C   UNL     1       7.662  30.519  57.921  1.00  0.00     0.029 A 
ENDBRANCH  11  13
ENDBRANCH   6  11
ENDBRANCH   1   5
BRANCH   2  20
HETATM   20  C   UNL     1       5.570  28.283  53.275  1.00  0.00     0.142 C 
BRANCH  20  21
HETATM   21  C   UNL     1       7.039  27.895  53.480  1.00  0.00     0.142 C 
BRANCH  21  22
HETATM   22  N   UNL     1       7.203  26.576  54.062  1.00  0.00    -0.355 N 
HETATM   23  C   UNL     1       7.752  25.540  53.337  1.00  0.00     0.251 C 
HETATM   24  O   UNL     1       8.160  25.666  52.189  1.00  0.00    -0.268 OA
HETATM   25  H   UNL     1       6.738  26.396  54.940  1.00  0.00     0.162 HD
BRANCH  23  26
HETATM   26  C   UNL     1       7.808  24.210  54.005  1.00  0.00     0.033 A 
HETATM   27  C   UNL     1       7.963  23.073  53.203  1.00  0.00     0.042 A 
HETATM   28  C   UNL     1       8.024  21.802  53.784  1.00  0.00     0.056 A 
HETATM   29 CL   UNL     1       8.202  20.445  52.732  1.00  0.00    -0.083 Cl
HETATM   30  C   UNL     1       7.941  21.666  55.174  1.00  0.00     0.055 A 
HETATM   31 CL   UNL     1       8.007  20.130  55.962  1.00  0.00    -0.083 Cl
HETATM   32  C   UNL     1       7.804  22.803  55.977  1.00  0.00     0.026 A 
HETATM   33  C   UNL     1       7.742  24.074  55.398  1.00  0.00     0.019 A 
ENDBRANCH  23  26
ENDBRANCH  21  22
ENDBRANCH  20  21
ENDBRANCH   2  20
TORSDOF 7
ENDMDL
MODEL 5
REMARK VINA RESULT:      -9.0      5.223      9.778
REMARK  7 active torsions:
REMARK  status: ('A' for Active; 'I' for Inactive)
REMARK    1  A    between atoms: C_6  and  N_7 
REMARK    2  A    between atoms: N_7  and  C_8 
REMARK    3  A    between atoms: C_13  and  C_14 
REMARK       I    between atoms: C_14  and  N_15 
REMARK    4  A    between atoms: N_15  and  C_16 
REMARK    5  A    between atoms: C_16  and  C_17 
REMARK    6  A    between atoms: C_17  and  N_18 
REMARK       I    between atoms: N_18  and  C_19 
REMARK    7  A    between atoms: C_19  and  C_20 
ROOT
HETATM    1  C   UNL     1       4.702  28.808  53.869  1.00  0.00     0.255 C 
HETATM    2  N   UNL     1       5.829  29.262  54.518  1.00  0.00    -0.355 N 
HETATM    3  O   UNL     1       3.611  28.673  54.415  1.00  0.00    -0.268 OA
HETATM    4  H   UNL     1       6.673  29.463  53.997  1.00  0.00     0.162 HD
ENDROOT
BRANCH   1   5
HETATM    5  C   UNL     1       4.860  28.474  52.433  1.00  0.00     0.077 A 
HETATM    6  C   UNL     1       4.845  27.133  52.009  1.00  0.00     0.143 A 
HETATM    7  N   UNL     1       5.015  26.831  50.698  1.00  0.00    -0.242 NA
HETATM    8  C   UNL     1       5.227  27.833  49.815  1.00  0.00     0.119 A 
HETATM    9  C   UNL     1       5.273  29.168  50.164  1.00  0.00     0.020 A 
HETATM   10  C   UNL     1       5.088  29.496  51.500  1.00  0.00     0.022 A 
BRANCH   6  11
HETATM   11  N   UNL     1       4.576  26.108  52.947  1.00  0.00    -0.340 N 
HETATM   12  H   UNL     1       3.730  26.339  53.474  1.00  0.00     0.167 HD
BRANCH  11  13
HETATM   13  C   UNL     1       5.436  25.232  53.638  1.00  0.00     0.036 A 
HETATM   14  C   UNL     1       6.202  24.320  52.898  1.00  0.00     0.071 A 
HETATM   15  C   UNL     1       7.109  23.473  53.532  1.00  0.00     0.118 A 
HETATM   16  C   UNL     1       7.295  23.520  54.905  1.00  0.00     0.042 A 
HETATM   17  F   UNL     1       7.819  22.604  52.800  1.00  0.00    -0.206 F 
HETATM   18  C   UNL     1       6.568  24.438  55.655  1.00  0.00     0.005 A 
HETATM   19  C   UNL     1       5.656  25.293  55.022  1.00  0.00     0.029 A 
ENDBRANCH  11  13
ENDBRANCH   6  11
ENDBRANCH   1   5
BRANCH   2  20
HETATM   20  C   UNL     1       5.809  29.612  55.927  1.00  0.00     0.142 C 
BRANCH  20  21
HETATM   21  C   UNL     1       7.218  29.686  56.525  1.00  0.00     0.142 C 
BRANCH  21  22
HETATM   22  N   UNL     1       7.252  30.341  57.820  1.00  0.00    -0.355 N 
HETATM   23  C   UNL     1       8.406  30.371  58.574  1.00  0.00     0.251 C 
HETATM   24  O   UNL     1       9.467  29.887  58.197  1.00  0.00    -0.268 OA
HETATM   25  H   UNL     1       6.368  30.607  58.229  1.00  0.00     0.162 HD
BRANCH  23  26
HETATM   26  C   UNL     1       8.313  31.004  59.918  1.00  0.00     0.033 A 
HETATM   27  C   UNL     1       7.300  31.947  60.135  1.00  0.00     0.042 A 
HETATM   28  C   UNL     1       7.168  32.568  61.381  1.00  0.00     0.056 A 
HETATM   29 CL   UNL     1       5.904  33.729  61.572  1.00  0.00    -0.083 Cl
HETATM   30  C   UNL     1       8.046  32.239  62.421  1.00  0.00     0.055 A 
HETATM   31 CL   UNL     1       7.946  32.965  63.985  1.00  0.00    -0.083 Cl
HETATM   32  C   UNL     1       9.047  31.285  62.210  1.00  0.00     0.026 A 
HETATM   33  C   UNL     1       9.179  30.664  60.964  1.00  0.00     0.019 A 
ENDBRANCH  23  26
ENDBRANCH  21  22
ENDBRANCH  20  21
ENDBRANCH   2  20
TORSDOF 7
ENDMDL
MODEL 6
REMARK VINA RESULT:      -8.9      4.817      9.606
REMARK  7 active torsions:
REMARK  status: ('A' for Active; 'I' for Inactive)
REMARK    1  A    between atoms: C_6  and  N_7 
REMARK    2  A    between atoms: N_7  and  C_8 
REMARK    3  A    between atoms: C_13  and  C_14 
REMARK       I    between atoms: C_14  and  N_15 
REMARK    4  A    between atoms: N_15  and  C_16 
REMARK    5  A    between atoms: C_16  and  C_17 
REMARK    6  A    between atoms: C_17  and  N_18 
REMARK       I    between atoms: N_18  and  C_19 
REMARK    7  A    between atoms: C_19  and  C_20 
ROOT
HETATM    1  C   UNL     1       6.431  25.333  56.179  1.00  0.00     0.255 C 
HETATM    2  N   UNL     1       7.009  26.577  56.314  1.00  0.00    -0.355 N 
HETATM    3  O   UNL     1       5.422  24.984  56.783  1.00  0.00    -0.268 OA
HETATM    4  H   UNL     1       7.773  26.854  55.711  1.00  0.00     0.162 HD
ENDROOT
BRANCH   1   5
HETATM    5  C   UNL     1       7.098  24.397  55.244  1.00  0.00     0.077 A 
HETATM    6  C   UNL     1       6.501  24.078  54.011  1.00  0.00     0.143 A 
HETATM    7  N   UNL     1       7.102  23.201  53.168  1.00  0.00    -0.242 NA
HETATM    8  C   UNL     1       8.264  22.621  53.544  1.00  0.00     0.119 A 
HETATM    9  C   UNL     1       8.896  22.873  54.746  1.00  0.00     0.020 A 
HETATM   10  C   UNL     1       8.300  23.778  55.614  1.00  0.00     0.022 A 
BRANCH   6  11
HETATM   11  N   UNL     1       5.308  24.734  53.623  1.00  0.00    -0.340 N 
HETATM   12  H   UNL     1       4.525  24.077  53.667  1.00  0.00     0.167 HD
BRANCH  11  13
HETATM   13  C   UNL     1       5.083  25.802  52.733  1.00  0.00     0.036 A 
HETATM   14  C   UNL     1       4.749  27.057  53.261  1.00  0.00     0.071 A 
HETATM   15  C   UNL     1       4.573  28.158  52.424  1.00  0.00     0.118 A 
HETATM   16  C   UNL     1       4.742  28.050  51.052  1.00  0.00     0.042 A 
HETATM   17  F   UNL     1       4.243  29.342  52.956  1.00  0.00    -0.206 F 
HETATM   18  C   UNL     1       5.102  26.821  50.510  1.00  0.00     0.005 A 
HETATM   19  C   UNL     1       5.282  25.712  51.347  1.00  0.00     0.029 A 
ENDBRANCH  11  13
ENDBRANCH   6  11
ENDBRANCH   1   5
BRANCH   2  20
HETATM   20  C   UNL     1       6.459  27.580  57.208  1.00  0.00     0.142 C 
BRANCH  20  21
HETATM   21  C   UNL     1       7.223  28.907  57.128  1.00  0.00     0.142 C 
BRANCH  21  22
HETATM   22  N   UNL     1       7.206  29.649  58.376  1.00  0.00    -0.355 N 
HETATM   23  C   UNL     1       8.324  30.321  58.822  1.00  0.00     0.251 C 
HETATM   24  O   UNL     1       9.375  30.365  58.194  1.00  0.00    -0.268 OA
HETATM   25  H   UNL     1       6.417  29.503  58.991  1.00  0.00     0.162 HD
BRANCH  23  26
HETATM   26  C   UNL     1       8.220  30.988  60.148  1.00  0.00     0.033 A 
HETATM   27  C   UNL     1       7.245  31.980  60.314  1.00  0.00     0.042 A 
HETATM   28  C   UNL     1       7.106  32.634  61.543  1.00  0.00     0.056 A 
HETATM   29 CL   UNL     1       5.891  33.855  61.670  1.00  0.00    -0.083 Cl
HETATM   30  C   UNL     1       7.937  32.290  62.615  1.00  0.00     0.055 A 
HETATM   31 CL   UNL     1       7.825  33.055  64.159  1.00  0.00    -0.083 Cl
HETATM   32  C   UNL     1       8.899  31.288  62.455  1.00  0.00     0.026 A 
HETATM   33  C   UNL     1       9.040  30.633  61.227  1.00  0.00     0.019 A 
ENDBRANCH  23  26
ENDBRANCH  21  22
ENDBRANCH  20  21
ENDBRANCH   2  20
TORSDOF 7
ENDMDL
MODEL 7
REMARK VINA RESULT:      -8.9      2.556      3.566
REMARK  7 active torsions:
REMARK  status: ('A' for Active; 'I' for Inactive)
REMARK    1  A    between atoms: C_6  and  N_7 
REMARK    2  A    between atoms: N_7  and  C_8 
REMARK    3  A    between atoms: C_13  and  C_14 
REMARK       I    between atoms: C_14  and  N_15 
REMARK    4  A    between atoms: N_15  and  C_16 
REMARK    5  A    between atoms: C_16  and  C_17 
REMARK    6  A    between atoms: C_17  and  N_18 
REMARK       I    between atoms: N_18  and  C_19 
REMARK    7  A    between atoms: C_19  and  C_20 
ROOT
HETATM    1  C   UNL     1       7.092  31.188  58.877  1.00  0.00     0.255 C 
HETATM    2  N   UNL     1       7.264  29.885  58.463  1.00  0.00    -0.355 N 
HETATM    3  O   UNL     1       6.553  32.053  58.193  1.00  0.00    -0.268 OA
HETATM    4  H   UNL     1       7.611  29.186  59.106  1.00  0.00     0.162 HD
ENDROOT
BRANCH   1   5
HETATM    5  C   UNL     1       7.602  31.520  60.228  1.00  0.00     0.077 A 
HETATM    6  C   UNL     1       6.723  31.971  61.230  1.00  0.00     0.143 A 
HETATM    7  N   UNL     1       7.197  32.297  62.458  1.00  0.00    -0.242 NA
HETATM    8  C   UNL     1       8.526  32.211  62.692  1.00  0.00     0.119 A 
HETATM    9  C   UNL     1       9.448  31.795  61.751  1.00  0.00     0.020 A 
HETATM   10  C   UNL     1       8.977  31.445  60.494  1.00  0.00     0.022 A 
BRANCH   6  11
HETATM   11  N   UNL     1       5.331  32.008  60.971  1.00  0.00    -0.340 N 
HETATM   12  H   UNL     1       5.114  31.401  60.176  1.00  0.00     0.167 HD
BRANCH  11  13
HETATM   13  C   UNL     1       4.377  33.025  61.167  1.00  0.00     0.036 A 
HETATM   14  C   UNL     1       3.513  32.933  62.267  1.00  0.00     0.071 A 
HETATM   15  C   UNL     1       2.591  33.943  62.535  1.00  0.00     0.118 A 
HETATM   16  C   UNL     1       2.514  35.074  61.737  1.00  0.00     0.042 A 
HETATM   17  F   UNL     1       1.770  33.822  63.587  1.00  0.00    -0.206 F 
HETATM   18  C   UNL     1       3.383  35.201  60.659  1.00  0.00     0.005 A 
HETATM   19  C   UNL     1       4.312  34.188  60.386  1.00  0.00     0.029 A 
ENDBRANCH  11  13
ENDBRANCH   6  11
ENDBRANCH   1   5
BRANCH   2  20
HETATM   20  C   UNL     1       6.818  29.436  57.156  1.00  0.00     0.142 C 
BRANCH  20  21
HETATM   21  C   UNL     1       5.930  28.189  57.245  1.00  0.00     0.142 C 
BRANCH  21  22
HETATM   22  N   UNL     1       6.396  27.098  56.408  1.00  0.00    -0.355 N 
HETATM   23  C   UNL     1       5.788  25.861  56.445  1.00  0.00     0.251 C 
HETATM   24  O   UNL     1       4.814  25.613  57.145  1.00  0.00    -0.268 OA
HETATM   25  H   UNL     1       7.285  27.217  55.944  1.00  0.00     0.162 HD
BRANCH  23  26
HETATM   26  C   UNL     1       6.391  24.793  55.601  1.00  0.00     0.033 A 
HETATM   27  C   UNL     1       7.098  23.766  56.239  1.00  0.00     0.042 A 
HETATM   28  C   UNL     1       7.680  22.738  55.490  1.00  0.00     0.056 A 
HETATM   29 CL   UNL     1       8.547  21.513  56.344  1.00  0.00    -0.083 Cl
HETATM   30  C   UNL     1       7.548  22.729  54.097  1.00  0.00     0.055 A 
HETATM   31 CL   UNL     1       8.240  21.495  53.107  1.00  0.00    -0.083 Cl
HETATM   32  C   UNL     1       6.828  23.745  53.461  1.00  0.00     0.026 A 
HETATM   33  C   UNL     1       6.245  24.773  54.208  1.00  0.00     0.019 A 
ENDBRANCH  23  26
ENDBRANCH  21  22
ENDBRANCH  20  21
ENDBRANCH   2  20
TORSDOF 7
ENDMDL
MODEL 8
REMARK VINA RESULT:      -8.9      2.006      2.440
REMARK  7 active torsions:
REMARK  status: ('A' for Active; 'I' for Inactive)
REMARK    1  A    between atoms: C_6  and  N_7 
REMARK    2  A    between atoms: N_7  and  C_8 
REMARK    3  A    between atoms: C_13  and  C_14 
REMARK       I    between atoms: C_14  and  N_15 
REMARK    4  A    between atoms: N_15  and  C_16 
REMARK    5  A    between atoms: C_16  and  C_17 
REMARK    6  A    between atoms: C_17  and  N_18 
REMARK       I    between atoms: N_18  and  C_19 
REMARK    7  A    between atoms: C_19  and  C_20 
ROOT
HETATM    1  C   UNL     1       7.467  28.752  56.528  1.00  0.00     0.255 C 
HETATM    2  N   UNL     1       7.086  29.109  55.253  1.00  0.00    -0.355 N 
HETATM    3  O   UNL     1       6.949  27.836  57.161  1.00  0.00    -0.268 OA
HETATM    4  H   UNL     1       7.619  29.796  54.734  1.00  0.00     0.162 HD
ENDROOT
BRANCH   1   5
HETATM    5  C   UNL     1       8.563  29.545  57.133  1.00  0.00     0.077 A 
HETATM    6  C   UNL     1       8.287  30.487  58.142  1.00  0.00     0.143 A 
HETATM    7  N   UNL     1       9.290  31.228  58.675  1.00  0.00    -0.242 NA
HETATM    8  C   UNL     1      10.547  31.069  58.203  1.00  0.00     0.119 A 
HETATM    9  C   UNL     1      10.886  30.179  57.202  1.00  0.00     0.020 A 
HETATM   10  C   UNL     1       9.874  29.403  56.655  1.00  0.00     0.022 A 
BRANCH   6  11
HETATM   11  N   UNL     1       6.971  30.600  58.649  1.00  0.00    -0.340 N 
HETATM   12  H   UNL     1       6.553  29.669  58.730  1.00  0.00     0.167 HD
BRANCH  11  13
HETATM   13  C   UNL     1       6.014  31.626  58.527  1.00  0.00     0.036 A 
HETATM   14  C   UNL     1       5.713  32.401  59.657  1.00  0.00     0.071 A 
HETATM   15  C   UNL     1       4.816  33.464  59.572  1.00  0.00     0.118 A 
HETATM   16  C   UNL     1       4.211  33.799  58.370  1.00  0.00     0.042 A 
HETATM   17  F   UNL     1       4.539  34.179  60.671  1.00  0.00    -0.206 F 
HETATM   18  C   UNL     1       4.519  33.063  57.231  1.00  0.00     0.005 A 
HETATM   19  C   UNL     1       5.422  31.994  57.311  1.00  0.00     0.029 A 
ENDBRANCH  11  13
ENDBRANCH   6  11
ENDBRANCH   1   5
BRANCH   2  20
HETATM   20  C   UNL     1       6.018  28.418  54.555  1.00  0.00     0.142 C 
BRANCH  20  21
HETATM   21  C   UNL     1       6.531  27.629  53.345  1.00  0.00     0.142 C 
BRANCH  21  22
HETATM   22  N   UNL     1       7.106  26.346  53.705  1.00  0.00    -0.355 N 
HETATM   23  C   UNL     1       6.646  25.175  53.141  1.00  0.00     0.251 C 
HETATM   24  O   UNL     1       5.763  25.141  52.293  1.00  0.00    -0.268 OA
HETATM   25  H   UNL     1       7.717  26.321  54.509  1.00  0.00     0.162 HD
BRANCH  23  26
HETATM   26  C   UNL     1       7.255  23.909  53.634  1.00  0.00     0.033 A 
HETATM   27  C   UNL     1       7.458  23.767  55.012  1.00  0.00     0.042 A 
HETATM   28  C   UNL     1       8.025  22.595  55.525  1.00  0.00     0.056 A 
HETATM   29 CL   UNL     1       8.258  22.496  57.233  1.00  0.00    -0.083 Cl
HETATM   30  C   UNL     1       8.380  21.555  54.659  1.00  0.00     0.055 A 
HETATM   31 CL   UNL     1       9.086  20.081  55.218  1.00  0.00    -0.083 Cl
HETATM   32  C   UNL     1       8.161  21.690  53.284  1.00  0.00     0.026 A 
HETATM   33  C   UNL     1       7.596  22.861  52.770  1.00  0.00     0.019 A 
ENDBRANCH  23  26
ENDBRANCH  21  22
ENDBRANCH  20  21
ENDBRANCH   2  20
TORSDOF 7
ENDMDL
MODEL 9
REMARK VINA RESULT:      -8.8      2.693      3.948
REMARK  7 active torsions:
REMARK  status: ('A' for Active; 'I' for Inactive)
REMARK    1  A    between atoms: C_6  and  N_7 
REMARK    2  A    between atoms: N_7  and  C_8 
REMARK    3  A    between atoms: C_13  and  C_14 
REMARK       I    between atoms: C_14  and  N_15 
REMARK    4  A    between atoms: N_15  and  C_16 
REMARK    5  A    between atoms: C_16  and  C_17 
REMARK    6  A    between atoms: C_17  and  N_18 
REMARK       I    between atoms: N_18  and  C_19 
REMARK    7  A    between atoms: C_19  and  C_20 
ROOT
HETATM    1  C   UNL     1       8.744  30.191  58.670  1.00  0.00     0.255 C 
HETATM    2  N   UNL     1       8.148  28.991  58.349  1.00  0.00    -0.355 N 
HETATM    3  O   UNL     1       9.626  30.714  57.996  1.00  0.00    -0.268 OA
HETATM    4  H   UNL     1       7.350  28.660  58.875  1.00  0.00     0.162 HD
ENDROOT
BRANCH   1   5
HETATM    5  C   UNL     1       8.264  30.853  59.906  1.00  0.00     0.077 A 
HETATM    6  C   UNL     1       7.310  31.885  59.836  1.00  0.00     0.143 A 
HETATM    7  N   UNL     1       6.891  32.504  60.968  1.00  0.00    -0.242 NA
HETATM    8  C   UNL     1       7.425  32.136  62.154  1.00  0.00     0.119 A 
HETATM    9  C   UNL     1       8.378  31.146  62.294  1.00  0.00     0.020 A 
HETATM   10  C   UNL     1       8.807  30.492  61.147  1.00  0.00     0.022 A 
BRANCH   6  11
HETATM   11  N   UNL     1       6.734  32.219  58.587  1.00  0.00    -0.340 N 
HETATM   12  H   UNL     1       7.037  33.156  58.310  1.00  0.00     0.167 HD
BRANCH  11  13
HETATM   13  C   UNL     1       5.518  31.832  57.992  1.00  0.00     0.036 A 
HETATM   14  C   UNL     1       4.689  32.826  57.451  1.00  0.00     0.071 A 
HETATM   15  C   UNL     1       3.504  32.488  56.801  1.00  0.00     0.118 A 
HETATM   16  C   UNL     1       3.119  31.164  56.653  1.00  0.00     0.042 A 
HETATM   17  F   UNL     1       2.726  33.460  56.304  1.00  0.00    -0.206 F 
HETATM   18  C   UNL     1       3.940  30.161  57.156  1.00  0.00     0.005 A 
HETATM   19  C   UNL     1       5.134  30.496  57.809  1.00  0.00     0.029 A 
ENDBRANCH  11  13
ENDBRANCH   6  11
ENDBRANCH   1   5
BRANCH   2  20
HETATM   20  C   UNL     1       8.537  28.238  57.170  1.00  0.00     0.142 C 
BRANCH  20  21
HETATM   21  C   UNL     1       7.330  27.629  56.448  1.00  0.00     0.142 C 
BRANCH  21  22
HETATM   22  N   UNL     1       7.652  26.408  55.732  1.00  0.00    -0.355 N 
HETATM   23  C   UNL     1       6.684  25.465  55.459  1.00  0.00     0.251 C 
HETATM   24  O   UNL     1       5.507  25.603  55.765  1.00  0.00    -0.268 OA
HETATM   25  H   UNL     1       8.630  26.189  55.606  1.00  0.00     0.162 HD
BRANCH  23  26
HETATM   26  C   UNL     1       7.137  24.218  54.783  1.00  0.00     0.033 A 
HETATM   27  C   UNL     1       7.257  23.054  55.553  1.00  0.00     0.042 A 
HETATM   28  C   UNL     1       7.675  21.857  54.964  1.00  0.00     0.056 A 
HETATM   29 CL   UNL     1       7.813  20.466  55.978  1.00  0.00    -0.083 Cl
HETATM   30  C   UNL     1       7.965  21.817  53.595  1.00  0.00     0.055 A 
HETATM   31 CL   UNL     1       8.489  20.377  52.799  1.00  0.00    -0.083 Cl
HETATM   32  C   UNL     1       7.829  22.974  52.822  1.00  0.00     0.026 A 
HETATM   33  C   UNL     1       7.411  24.172  53.410  1.00  0.00     0.019 A 
ENDBRANCH  23  26
ENDBRANCH  21  22
ENDBRANCH  20  21
ENDBRANCH   2  20
TORSDOF 7
ENDMDL
MODEL 10
REMARK VINA RESULT:      -8.8      6.972     10.136
REMARK  7 active torsions:
REMARK  status: ('A' for Active; 'I' for Inactive)
REMARK    1  A    between atoms: C_6  and  N_7 
REMARK    2  A    between atoms: N_7  and  C_8 
REMARK    3  A    between atoms: C_13  and  C_14 
REMARK       I    between atoms: C_14  and  N_15 
REMARK    4  A    between atoms: N_15  and  C_16 
REMARK    5  A    between atoms: C_16  and  C_17 
REMARK    6  A    between atoms: C_17  and  N_18 
REMARK       I    between atoms: N_18  and  C_19 
REMARK    7  A    between atoms: C_19  and  C_20 
ROOT
HETATM    1  C   UNL     1       6.517  26.521  53.359  1.00  0.00     0.255 C 
HETATM    2  N   UNL     1       5.442  26.713  52.520  1.00  0.00    -0.355 N 
HETATM    3  O   UNL     1       7.687  26.626  53.001  1.00  0.00    -0.268 OA
HETATM    4  H   UNL     1       4.500  26.725  52.890  1.00  0.00     0.162 HD
ENDROOT
BRANCH   1   5
HETATM    5  C   UNL     1       6.200  26.167  54.763  1.00  0.00     0.077 A 
HETATM    6  C   UNL     1       6.733  25.000  55.341  1.00  0.00     0.143 A 
HETATM    7  N   UNL     1       6.420  24.667  56.618  1.00  0.00    -0.242 NA
HETATM    8  C   UNL     1       5.569  25.455  57.312  1.00  0.00     0.119 A 
HETATM    9  C   UNL     1       4.994  26.603  56.802  1.00  0.00     0.020 A 
HETATM   10  C   UNL     1       5.314  26.965  55.501  1.00  0.00     0.022 A 
BRANCH   6  11
HETATM   11  N   UNL     1       7.657  24.218  54.607  1.00  0.00    -0.340 N 
HETATM   12  H   UNL     1       7.794  24.629  53.680  1.00  0.00     0.167 HD
BRANCH  11  13
HETATM   13  C   UNL     1       7.948  22.841  54.649  1.00  0.00     0.036 A 
HETATM   14  C   UNL     1       7.955  22.119  53.447  1.00  0.00     0.071 A 
HETATM   15  C   UNL     1       8.293  20.767  53.431  1.00  0.00     0.118 A 
HETATM   16  C   UNL     1       8.650  20.103  54.594  1.00  0.00     0.042 A 
HETATM   17  F   UNL     1       8.280  20.100  52.269  1.00  0.00    -0.206 F 
HETATM   18  C   UNL     1       8.679  20.807  55.793  1.00  0.00     0.005 A 
HETATM   19  C   UNL     1       8.341  22.167  55.814  1.00  0.00     0.029 A 
ENDBRANCH  11  13
ENDBRANCH   6  11
ENDBRANCH   1   5
BRANCH   2  20
HETATM   20  C   UNL     1       5.619  27.052  51.119  1.00  0.00     0.142 C 
BRANCH  20  21
HETATM   21  C   UNL     1       4.895  26.071  50.190  1.00  0.00     0.142 C 
BRANCH  21  22
HETATM   22  N   UNL     1       3.764  26.667  49.503  1.00  0.00    -0.355 N 
HETATM   23  C   UNL     1       3.805  26.919  48.148  1.00  0.00     0.251 C 
HETATM   24  O   UNL     1       4.764  26.633  47.441  1.00  0.00    -0.268 OA
HETATM   25  H   UNL     1       3.029  27.059  50.074  1.00  0.00     0.162 HD
BRANCH  23  26
HETATM   26  C   UNL     1       2.620  27.600  47.557  1.00  0.00     0.033 A 
HETATM   27  C   UNL     1       2.768  28.921  47.117  1.00  0.00     0.042 A 
HETATM   28  C   UNL     1       1.684  29.602  46.552  1.00  0.00     0.056 A 
HETATM   29 CL   UNL     1       1.937  31.233  46.045  1.00  0.00    -0.083 Cl
HETATM   30  C   UNL     1       0.449  28.958  46.415  1.00  0.00     0.055 A 
HETATM   31 CL   UNL     1      -0.932  29.735  45.730  1.00  0.00    -0.083 Cl
HETATM   32  C   UNL     1       0.306  27.633  46.839  1.00  0.00     0.026 A 
HETATM   33  C   UNL     1       1.388  26.951  47.404  1.00  0.00     0.019 A 
ENDBRANCH  23  26
ENDBRANCH  21  22
ENDBRANCH  20  21
ENDBRANCH   2  20
TORSDOF 7
ENDMDL
