MODEL 1
REMARK VINA RESULT:      -7.1      0.000      0.000
REMARK  5 active torsions:
REMARK  status: ('A' for Active; 'I' for Inactive)
REMARK    1  A    between atoms: C_2  and  O_3 
REMARK    2  A    between atoms: C_4  and  C_5 
REMARK    3  A    between atoms: C_5  and  O_6 
REMARK    4  A    between atoms: C_9  and  C_10 
REMARK    5  A    between atoms: C_22  and  O_23 
ROOT
HETATM    1  C   UNL     1       2.826  28.537  51.669  1.00  0.00     0.047 C 
HETATM    2  C   UNL     1       3.911  28.147  52.687  1.00  0.00     0.073 C 
HETATM    3  C   UNL     1       5.277  27.822  51.995  1.00  0.00     0.133 C 
HETATM    4  C   UNL     1       6.517  27.654  52.924  1.00  0.00     0.074 C 
HETATM    5  C   UNL     1       6.375  28.408  54.198  1.00  0.00     0.030 A 
HETATM    6  C   UNL     1       5.240  29.093  54.572  1.00  0.00     0.042 A 
HETATM    7  N   UNL     1       5.512  29.689  55.772  1.00  0.00    -0.279 N 
HETATM    8  H   UNL     1       4.913  30.286  56.335  1.00  0.00     0.189 HD
HETATM    9  N   UNL     1       6.764  29.437  56.208  1.00  0.00    -0.149 NA
HETATM   10  C   UNL     1       7.268  28.692  55.233  1.00  0.00     0.190 A 
HETATM   11  C   UNL     1       3.985  29.238  53.795  1.00  0.00     0.097 C 
ENDROOT
BRANCH   4  12
HETATM   12  C   UNL     1       6.826  26.194  53.254  1.00  0.00    -0.048 A 
HETATM   13  C   UNL     1       7.617  25.470  52.340  1.00  0.00     0.009 A 
HETATM   14  C   UNL     1       7.937  24.128  52.562  1.00  0.00     0.019 A 
HETATM   15  C   UNL     1       7.460  23.484  53.698  1.00  0.00     0.011 A 
HETATM   16 BR   UNL     1       7.893  21.670  54.005  1.00  0.00    -0.051 Br
HETATM   17  C   UNL     1       6.671  24.172  54.615  1.00  0.00     0.019 A 
HETATM   18  C   UNL     1       6.358  25.517  54.394  1.00  0.00     0.009 A 
ENDBRANCH   4  12
BRANCH   3  19
HETATM   19  C   UNL     1       5.625  28.907  50.996  1.00  0.00     0.266 C 
HETATM   20  O   UNL     1       5.856  30.074  51.283  1.00  0.00    -0.265 OA
BRANCH  19  21
HETATM   21  O   UNL     1       5.639  28.398  49.733  1.00  0.00    -0.326 OA
HETATM   22  C   UNL     1       5.073  29.259  48.744  1.00  0.00     0.213 C 
ENDBRANCH  19  21
ENDBRANCH   3  19
BRANCH   2  23
HETATM   23  O   UNL     1       3.407  26.931  53.277  1.00  0.00    -0.389 OA
HETATM   24  H   UNL     1       3.577  26.202  52.658  1.00  0.00     0.210 HD
ENDBRANCH   2  23
BRANCH  10  25
HETATM   25  O   UNL     1       8.538  28.335  55.386  1.00  0.00    -0.343 OA
HETATM   26  H   UNL     1       8.501  27.525  55.923  1.00  0.00     0.219 HD
ENDBRANCH  10  25
TORSDOF 5
ENDMDL
MODEL 2
REMARK VINA RESULT:      -6.9     10.966     13.408
REMARK  5 active torsions:
REMARK  status: ('A' for Active; 'I' for Inactive)
REMARK    1  A    between atoms: C_2  and  O_3 
REMARK    2  A    between atoms: C_4  and  C_5 
REMARK    3  A    between atoms: C_5  and  O_6 
REMARK    4  A    between atoms: C_9  and  C_10 
REMARK    5  A    between atoms: C_22  and  O_23 
ROOT
HETATM    1  C   UNL     1       5.324  38.166  64.776  1.00  0.00     0.047 C 
HETATM    2  C   UNL     1       5.085  36.929  63.894  1.00  0.00     0.073 C 
HETATM    3  C   UNL     1       5.336  35.594  64.673  1.00  0.00     0.133 C 
HETATM    4  C   UNL     1       4.893  34.274  63.973  1.00  0.00     0.074 C 
HETATM    5  C   UNL     1       3.784  34.491  63.006  1.00  0.00     0.030 A 
HETATM    6  C   UNL     1       3.269  35.727  62.681  1.00  0.00     0.042 A 
HETATM    7  N   UNL     1       2.241  35.511  61.805  1.00  0.00    -0.279 N 
HETATM    8  H   UNL     1       1.625  36.191  61.369  1.00  0.00     0.189 HD
HETATM    9  N   UNL     1       2.048  34.202  61.539  1.00  0.00    -0.149 NA
HETATM   10  C   UNL     1       2.966  33.612  62.293  1.00  0.00     0.190 A 
HETATM   11  C   UNL     1       3.681  37.042  63.230  1.00  0.00     0.097 C 
ENDROOT
BRANCH   4  12
HETATM   12  C   UNL     1       6.038  33.567  63.249  1.00  0.00    -0.048 A 
HETATM   13  C   UNL     1       7.006  32.911  64.036  1.00  0.00     0.009 A 
HETATM   14  C   UNL     1       8.089  32.249  63.453  1.00  0.00     0.019 A 
HETATM   15  C   UNL     1       8.229  32.241  62.069  1.00  0.00     0.011 A 
HETATM   16 BR   UNL     1       9.690  31.344  61.275  1.00  0.00    -0.051 Br
HETATM   17  C   UNL     1       7.293  32.886  61.267  1.00  0.00     0.019 A 
HETATM   18  C   UNL     1       6.206  33.542  61.852  1.00  0.00     0.009 A 
ENDBRANCH   4  12
BRANCH   3  19
HETATM   19  C   UNL     1       4.631  35.634  66.013  1.00  0.00     0.266 C 
HETATM   20  O   UNL     1       3.436  35.843  66.169  1.00  0.00    -0.265 OA
BRANCH  19  21
HETATM   21  O   UNL     1       5.520  35.408  67.020  1.00  0.00    -0.326 OA
HETATM   22  C   UNL     1       5.146  34.355  67.910  1.00  0.00     0.213 C 
ENDBRANCH  19  21
ENDBRANCH   3  19
BRANCH   2  23
HETATM   23  O   UNL     1       6.088  37.042  62.864  1.00  0.00    -0.389 OA
HETATM   24  H   UNL     1       6.060  37.947  62.514  1.00  0.00     0.210 HD
ENDBRANCH   2  23
BRANCH  10  25
HETATM   25  O   UNL     1       2.965  32.285  62.258  1.00  0.00    -0.343 OA
HETATM   26  H   UNL     1       2.265  32.057  61.624  1.00  0.00     0.219 HD
ENDBRANCH  10  25
TORSDOF 5
ENDMDL
MODEL 3
REMARK VINA RESULT:      -6.8      2.763      4.706
REMARK  5 active torsions:
REMARK  status: ('A' for Active; 'I' for Inactive)
REMARK    1  A    between atoms: C_2  and  O_3 
REMARK    2  A    between atoms: C_4  and  C_5 
REMARK    3  A    between atoms: C_5  and  O_6 
REMARK    4  A    between atoms: C_9  and  C_10 
REMARK    5  A    between atoms: C_22  and  O_23 
ROOT
HETATM    1  C   UNL     1       7.464  28.941  55.338  1.00  0.00     0.047 C 
HETATM    2  C   UNL     1       7.151  27.803  54.352  1.00  0.00     0.073 C 
HETATM    3  C   UNL     1       6.301  26.668  55.015  1.00  0.00     0.133 C 
HETATM    4  C   UNL     1       5.712  25.581  54.066  1.00  0.00     0.074 C 
HETATM    5  C   UNL     1       5.510  26.089  52.682  1.00  0.00     0.030 A 
HETATM    6  C   UNL     1       5.892  27.340  52.251  1.00  0.00     0.042 A 
HETATM    7  N   UNL     1       5.497  27.449  50.947  1.00  0.00    -0.279 N 
HETATM    8  H   UNL     1       5.598  28.238  50.316  1.00  0.00     0.189 HD
HETATM    9  N   UNL     1       4.870  26.341  50.497  1.00  0.00    -0.149 NA
HETATM   10  C   UNL     1       4.867  25.554  51.564  1.00  0.00     0.190 A 
HETATM   11  C   UNL     1       6.535  28.407  53.056  1.00  0.00     0.097 C 
ENDROOT
BRANCH   4  12
HETATM   12  C   UNL     1       6.565  24.315  54.000  1.00  0.00    -0.048 A 
HETATM   13  C   UNL     1       6.748  23.585  55.191  1.00  0.00     0.009 A 
HETATM   14  C   UNL     1       7.522  22.422  55.219  1.00  0.00     0.019 A 
HETATM   15  C   UNL     1       8.137  21.976  54.054  1.00  0.00     0.011 A 
HETATM   16 BR   UNL     1       9.182  20.401  54.085  1.00  0.00    -0.051 Br
HETATM   17  C   UNL     1       7.981  22.680  52.864  1.00  0.00     0.019 A 
HETATM   18  C   UNL     1       7.200  23.839  52.838  1.00  0.00     0.009 A 
ENDBRANCH   4  12
BRANCH   3  19
HETATM   19  C   UNL     1       5.133  27.267  55.770  1.00  0.00     0.266 C 
HETATM   20  O   UNL     1       4.256  27.957  55.270  1.00  0.00    -0.265 OA
BRANCH  19  21
HETATM   21  O   UNL     1       5.202  26.930  57.088  1.00  0.00    -0.326 OA
HETATM   22  C   UNL     1       4.827  25.582  57.372  1.00  0.00     0.213 C 
ENDBRANCH  19  21
ENDBRANCH   3  19
BRANCH   2  23
HETATM   23  O   UNL     1       8.449  27.261  54.030  1.00  0.00    -0.389 OA
HETATM   24  H   UNL     1       8.346  26.659  53.276  1.00  0.00     0.210 HD
ENDBRANCH   2  23
BRANCH  10  25
HETATM   25  O   UNL     1       4.252  24.386  51.410  1.00  0.00    -0.343 OA
HETATM   26  H   UNL     1       3.810  24.455  50.547  1.00  0.00     0.219 HD
ENDBRANCH  10  25
TORSDOF 5
ENDMDL
MODEL 4
REMARK VINA RESULT:      -6.7      3.718      5.792
REMARK  5 active torsions:
REMARK  status: ('A' for Active; 'I' for Inactive)
REMARK    1  A    between atoms: C_2  and  O_3 
REMARK    2  A    between atoms: C_4  and  C_5 
REMARK    3  A    between atoms: C_5  and  O_6 
REMARK    4  A    between atoms: C_9  and  C_10 
REMARK    5  A    between atoms: C_22  and  O_23 
ROOT
HETATM    1  C   UNL     1       6.255  28.218  52.435  1.00  0.00     0.047 C 
HETATM    2  C   UNL     1       6.938  27.841  53.761  1.00  0.00     0.073 C 
HETATM    3  C   UNL     1       6.096  28.288  55.003  1.00  0.00     0.133 C 
HETATM    4  C   UNL     1       6.552  27.753  56.394  1.00  0.00     0.074 C 
HETATM    5  C   UNL     1       7.285  26.463  56.291  1.00  0.00     0.030 A 
HETATM    6  C   UNL     1       7.620  25.854  55.101  1.00  0.00     0.042 A 
HETATM    7  N   UNL     1       8.238  24.675  55.418  1.00  0.00    -0.279 N 
HETATM    8  H   UNL     1       8.603  23.962  54.795  1.00  0.00     0.189 HD
HETATM    9  N   UNL     1       8.323  24.473  56.750  1.00  0.00    -0.149 NA
HETATM   10  C   UNL     1       7.720  25.544  57.248  1.00  0.00     0.190 A 
HETATM   11  C   UNL     1       7.305  26.328  53.732  1.00  0.00     0.097 C 
ENDROOT
BRANCH   4  12
HETATM   12  C   UNL     1       7.422  28.746  57.163  1.00  0.00    -0.048 A 
HETATM   13  C   UNL     1       6.769  29.712  57.955  1.00  0.00     0.009 A 
HETATM   14  C   UNL     1       7.490  30.662  58.682  1.00  0.00     0.019 A 
HETATM   15  C   UNL     1       8.879  30.670  58.619  1.00  0.00     0.011 A 
HETATM   16 BR   UNL     1       9.860  31.951  59.604  1.00  0.00    -0.051 Br
HETATM   17  C   UNL     1       9.551  29.733  57.840  1.00  0.00     0.019 A 
HETATM   18  C   UNL     1       8.827  28.778  57.119  1.00  0.00     0.009 A 
ENDBRANCH   4  12
BRANCH   3  19
HETATM   19  C   UNL     1       4.650  27.872  54.828  1.00  0.00     0.266 C 
HETATM   20  O   UNL     1       4.269  26.945  54.126  1.00  0.00    -0.265 OA
BRANCH  19  21
HETATM   21  O   UNL     1       3.836  28.680  55.560  1.00  0.00    -0.326 OA
HETATM   22  C   UNL     1       3.893  30.060  55.197  1.00  0.00     0.213 C 
ENDBRANCH  19  21
ENDBRANCH   3  19
BRANCH   2  23
HETATM   23  O   UNL     1       8.160  28.608  53.748  1.00  0.00    -0.389 OA
HETATM   24  H   UNL     1       8.753  28.242  54.424  1.00  0.00     0.210 HD
ENDBRANCH   2  23
BRANCH  10  25
HETATM   25  O   UNL     1       7.618  25.577  58.572  1.00  0.00    -0.343 OA
HETATM   26  H   UNL     1       8.536  25.520  58.889  1.00  0.00     0.219 HD
ENDBRANCH  10  25
TORSDOF 5
ENDMDL
MODEL 5
REMARK VINA RESULT:      -6.6     10.262     12.316
REMARK  5 active torsions:
REMARK  status: ('A' for Active; 'I' for Inactive)
REMARK    1  A    between atoms: C_2  and  O_3 
REMARK    2  A    between atoms: C_4  and  C_5 
REMARK    3  A    between atoms: C_5  and  O_6 
REMARK    4  A    between atoms: C_9  and  C_10 
REMARK    5  A    between atoms: C_22  and  O_23 
ROOT
HETATM    1  C   UNL     1       4.213  37.413  59.659  1.00  0.00     0.047 C 
HETATM    2  C   UNL     1       4.229  36.205  60.610  1.00  0.00     0.073 C 
HETATM    3  C   UNL     1       5.395  36.293  61.652  1.00  0.00     0.133 C 
HETATM    4  C   UNL     1       5.375  35.264  62.822  1.00  0.00     0.074 C 
HETATM    5  C   UNL     1       4.002  34.785  63.131  1.00  0.00     0.030 A 
HETATM    6  C   UNL     1       2.880  35.124  62.406  1.00  0.00     0.042 A 
HETATM    7  N   UNL     1       1.814  34.531  63.023  1.00  0.00    -0.279 N 
HETATM    8  H   UNL     1       0.830  34.577  62.775  1.00  0.00     0.189 HD
HETATM    9  N   UNL     1       2.170  33.824  64.116  1.00  0.00    -0.149 NA
HETATM   10  C   UNL     1       3.481  34.016  64.174  1.00  0.00     0.190 A 
HETATM   11  C   UNL     1       2.813  36.026  61.231  1.00  0.00     0.097 C 
ENDROOT
BRANCH   4  12
HETATM   12  C   UNL     1       6.268  34.050  62.567  1.00  0.00    -0.048 A 
HETATM   13  C   UNL     1       7.152  33.660  63.594  1.00  0.00     0.009 A 
HETATM   14  C   UNL     1       8.008  32.567  63.437  1.00  0.00     0.019 A 
HETATM   15  C   UNL     1       8.004  31.852  62.244  1.00  0.00     0.011 A 
HETATM   16 BR   UNL     1       9.158  30.371  62.029  1.00  0.00    -0.051 Br
HETATM   17  C   UNL     1       7.147  32.219  61.211  1.00  0.00     0.019 A 
HETATM   18  C   UNL     1       6.286  33.308  61.373  1.00  0.00     0.009 A 
ENDBRANCH   4  12
BRANCH   3  19
HETATM   19  C   UNL     1       5.424  37.670  62.284  1.00  0.00     0.266 C 
HETATM   20  O   UNL     1       4.551  38.126  63.010  1.00  0.00    -0.265 OA
BRANCH  19  21
HETATM   21  O   UNL     1       6.560  38.329  61.924  1.00  0.00    -0.326 OA
HETATM   22  C   UNL     1       6.886  39.441  62.759  1.00  0.00     0.213 C 
ENDBRANCH  19  21
ENDBRANCH   3  19
BRANCH   2  23
HETATM   23  O   UNL     1       4.491  35.086  59.739  1.00  0.00    -0.389 OA
HETATM   24  H   UNL     1       5.369  34.732  59.957  1.00  0.00     0.210 HD
ENDBRANCH   2  23
BRANCH  10  25
HETATM   25  O   UNL     1       4.094  33.456  65.210  1.00  0.00    -0.343 OA
HETATM   26  H   UNL     1       4.190  32.521  64.961  1.00  0.00     0.219 HD
ENDBRANCH  10  25
TORSDOF 5
ENDMDL
MODEL 6
REMARK VINA RESULT:      -6.4     10.086     12.222
REMARK  5 active torsions:
REMARK  status: ('A' for Active; 'I' for Inactive)
REMARK    1  A    between atoms: C_2  and  O_3 
REMARK    2  A    between atoms: C_4  and  C_5 
REMARK    3  A    between atoms: C_5  and  O_6 
REMARK    4  A    between atoms: C_9  and  C_10 
REMARK    5  A    between atoms: C_22  and  O_23 
ROOT
HETATM    1  C   UNL     1       3.431  31.579  60.432  1.00  0.00     0.047 C 
HETATM    2  C   UNL     1       3.765  32.865  61.207  1.00  0.00     0.073 C 
HETATM    3  C   UNL     1       5.262  32.901  61.666  1.00  0.00     0.133 C 
HETATM    4  C   UNL     1       5.791  34.249  62.242  1.00  0.00     0.074 C 
HETATM    5  C   UNL     1       5.040  35.421  61.718  1.00  0.00     0.030 A 
HETATM    6  C   UNL     1       3.936  35.332  60.899  1.00  0.00     0.042 A 
HETATM    7  N   UNL     1       3.561  36.612  60.596  1.00  0.00    -0.279 N 
HETATM    8  H   UNL     1       2.799  36.928  60.004  1.00  0.00     0.189 HD
HETATM    9  N   UNL     1       4.361  37.539  61.166  1.00  0.00    -0.149 NA
HETATM   10  C   UNL     1       5.254  36.798  61.808  1.00  0.00     0.190 A 
HETATM   11  C   UNL     1       3.310  34.096  60.370  1.00  0.00     0.097 C 
ENDROOT
BRANCH   4  12
HETATM   12  C   UNL     1       5.767  34.299  63.769  1.00  0.00    -0.048 A 
HETATM   13  C   UNL     1       6.913  33.852  64.457  1.00  0.00     0.009 A 
HETATM   14  C   UNL     1       6.969  33.856  65.853  1.00  0.00     0.019 A 
HETATM   15  C   UNL     1       5.873  34.297  66.586  1.00  0.00     0.011 A 
HETATM   16 BR   UNL     1       5.945  34.309  68.474  1.00  0.00    -0.051 Br
HETATM   17  C   UNL     1       4.726  34.738  65.934  1.00  0.00     0.019 A 
HETATM   18  C   UNL     1       4.675  34.740  64.537  1.00  0.00     0.009 A 
ENDBRANCH   4  12
BRANCH   3  19
HETATM   19  C   UNL     1       6.169  32.535  60.509  1.00  0.00     0.266 C 
HETATM   20  O   UNL     1       6.126  33.043  59.398  1.00  0.00    -0.265 OA
BRANCH  19  21
HETATM   21  O   UNL     1       7.038  31.555  60.884  1.00  0.00    -0.326 OA
HETATM   22  C   UNL     1       7.877  31.077  59.831  1.00  0.00     0.213 C 
ENDBRANCH  19  21
ENDBRANCH   3  19
BRANCH   2  23
HETATM   23  O   UNL     1       2.937  32.782  62.385  1.00  0.00    -0.389 OA
HETATM   24  H   UNL     1       2.131  32.293  62.153  1.00  0.00     0.210 HD
ENDBRANCH   2  23
BRANCH  10  25
HETATM   25  O   UNL     1       6.213  37.474  62.431  1.00  0.00    -0.343 OA
HETATM   26  H   UNL     1       5.871  38.382  62.494  1.00  0.00     0.219 HD
ENDBRANCH  10  25
TORSDOF 5
ENDMDL
MODEL 7
REMARK VINA RESULT:      -6.1     10.962     13.051
REMARK  5 active torsions:
REMARK  status: ('A' for Active; 'I' for Inactive)
REMARK    1  A    between atoms: C_2  and  O_3 
REMARK    2  A    between atoms: C_4  and  C_5 
REMARK    3  A    between atoms: C_5  and  O_6 
REMARK    4  A    between atoms: C_9  and  C_10 
REMARK    5  A    between atoms: C_22  and  O_23 
ROOT
HETATM    1  C   UNL     1       7.273  33.852  64.869  1.00  0.00     0.047 C 
HETATM    2  C   UNL     1       5.998  34.370  64.182  1.00  0.00     0.073 C 
HETATM    3  C   UNL     1       5.946  33.980  62.667  1.00  0.00     0.133 C 
HETATM    4  C   UNL     1       4.602  34.229  61.919  1.00  0.00     0.074 C 
HETATM    5  C   UNL     1       3.432  34.205  62.837  1.00  0.00     0.030 A 
HETATM    6  C   UNL     1       3.522  34.083  64.206  1.00  0.00     0.042 A 
HETATM    7  N   UNL     1       2.242  34.053  64.687  1.00  0.00    -0.279 N 
HETATM    8  H   UNL     1       1.927  33.955  65.648  1.00  0.00     0.189 HD
HETATM    9  N   UNL     1       1.315  34.145  63.711  1.00  0.00    -0.149 NA
HETATM   10  C   UNL     1       2.054  34.206  62.611  1.00  0.00     0.190 A 
HETATM   11  C   UNL     1       4.757  33.927  65.012  1.00  0.00     0.097 C 
ENDROOT
BRANCH   4  12
HETATM   12  C   UNL     1       4.583  35.544  61.141  1.00  0.00    -0.048 A 
HETATM   13  C   UNL     1       4.128  35.510  59.808  1.00  0.00     0.009 A 
HETATM   14  C   UNL     1       4.088  36.666  59.024  1.00  0.00     0.019 A 
HETATM   15  C   UNL     1       4.516  37.877  59.559  1.00  0.00     0.011 A 
HETATM   16 BR   UNL     1       4.460  39.444  58.505  1.00  0.00    -0.051 Br
HETATM   17  C   UNL     1       4.977  37.939  60.870  1.00  0.00     0.019 A 
HETATM   18  C   UNL     1       5.009  36.783  61.654  1.00  0.00     0.009 A 
ENDBRANCH   4  12
BRANCH   3  19
HETATM   19  C   UNL     1       6.274  32.511  62.497  1.00  0.00     0.266 C 
HETATM   20  O   UNL     1       5.573  31.588  62.886  1.00  0.00    -0.265 OA
BRANCH  19  21
HETATM   21  O   UNL     1       7.465  32.366  61.851  1.00  0.00    -0.326 OA
HETATM   22  C   UNL     1       8.241  31.251  62.291  1.00  0.00     0.213 C 
ENDBRANCH  19  21
ENDBRANCH   3  19
BRANCH   2  23
HETATM   23  O   UNL     1       6.118  35.805  64.272  1.00  0.00    -0.389 OA
HETATM   24  H   UNL     1       6.437  36.026  65.163  1.00  0.00     0.210 HD
ENDBRANCH   2  23
BRANCH  10  25
HETATM   25  O   UNL     1       1.375  34.254  61.470  1.00  0.00    -0.343 OA
HETATM   26  H   UNL     1       1.963  33.833  60.820  1.00  0.00     0.219 HD
ENDBRANCH  10  25
TORSDOF 5
ENDMDL
MODEL 8
REMARK VINA RESULT:      -6.1      3.415      4.920
REMARK  5 active torsions:
REMARK  status: ('A' for Active; 'I' for Inactive)
REMARK    1  A    between atoms: C_2  and  O_3 
REMARK    2  A    between atoms: C_4  and  C_5 
REMARK    3  A    between atoms: C_5  and  O_6 
REMARK    4  A    between atoms: C_9  and  C_10 
REMARK    5  A    between atoms: C_22  and  O_23 
ROOT
HETATM    1  C   UNL     1       0.870  27.380  47.849  1.00  0.00     0.047 C 
HETATM    2  C   UNL     1       1.880  28.068  48.782  1.00  0.00     0.073 C 
HETATM    3  C   UNL     1       3.257  27.324  48.808  1.00  0.00     0.133 C 
HETATM    4  C   UNL     1       4.439  28.051  49.518  1.00  0.00     0.074 C 
HETATM    5  C   UNL     1       4.278  29.530  49.512  1.00  0.00     0.030 A 
HETATM    6  C   UNL     1       3.168  30.188  49.031  1.00  0.00     0.042 A 
HETATM    7  N   UNL     1       3.415  31.527  49.152  1.00  0.00    -0.279 N 
HETATM    8  H   UNL     1       2.825  32.309  48.883  1.00  0.00     0.189 HD
HETATM    9  N   UNL     1       4.628  31.787  49.682  1.00  0.00    -0.149 NA
HETATM   10  C   UNL     1       5.135  30.575  49.862  1.00  0.00     0.190 A 
HETATM   11  C   UNL     1       1.962  29.579  48.417  1.00  0.00     0.097 C 
ENDROOT
BRANCH   4  12
HETATM   12  C   UNL     1       4.647  27.591  50.960  1.00  0.00    -0.048 A 
HETATM   13  C   UNL     1       5.437  26.443  51.174  1.00  0.00     0.009 A 
HETATM   14  C   UNL     1       5.668  25.951  52.461  1.00  0.00     0.019 A 
HETATM   15  C   UNL     1       5.102  26.593  53.557  1.00  0.00     0.011 A 
HETATM   16 BR   UNL     1       5.416  25.933  55.300  1.00  0.00    -0.051 Br
HETATM   17  C   UNL     1       4.312  27.724  53.376  1.00  0.00     0.019 A 
HETATM   18  C   UNL     1       4.089  28.219  52.088  1.00  0.00     0.009 A 
ENDBRANCH   4  12
BRANCH   3  19
HETATM   19  C   UNL     1       3.714  27.026  47.395  1.00  0.00     0.266 C 
HETATM   20  O   UNL     1       4.398  27.773  46.709  1.00  0.00    -0.265 OA
BRANCH  19  21
HETATM   21  O   UNL     1       3.251  25.809  46.997  1.00  0.00    -0.326 OA
HETATM   22  C   UNL     1       3.280  24.806  48.014  1.00  0.00     0.213 C 
ENDBRANCH  19  21
ENDBRANCH   3  19
BRANCH   2  23
HETATM   23  O   UNL     1       1.279  27.946  50.088  1.00  0.00    -0.389 OA
HETATM   24  H   UNL     1       0.633  27.222  50.056  1.00  0.00     0.210 HD
ENDBRANCH   2  23
BRANCH  10  25
HETATM   25  O   UNL     1       6.374  30.540  50.340  1.00  0.00    -0.343 OA
HETATM   26  H   UNL     1       6.923  30.895  49.620  1.00  0.00     0.219 HD
ENDBRANCH  10  25
TORSDOF 5
ENDMDL
MODEL 9
REMARK VINA RESULT:      -5.9      3.440      5.186
REMARK  5 active torsions:
REMARK  status: ('A' for Active; 'I' for Inactive)
REMARK    1  A    between atoms: C_2  and  O_3 
REMARK    2  A    between atoms: C_4  and  C_5 
REMARK    3  A    between atoms: C_5  and  O_6 
REMARK    4  A    between atoms: C_9  and  C_10 
REMARK    5  A    between atoms: C_22  and  O_23 
ROOT
HETATM    1  C   UNL     1       5.938  28.893  51.664  1.00  0.00     0.047 C 
HETATM    2  C   UNL     1       6.109  28.305  53.074  1.00  0.00     0.073 C 
HETATM    3  C   UNL     1       5.148  28.978  54.112  1.00  0.00     0.133 C 
HETATM    4  C   UNL     1       5.046  28.309  55.516  1.00  0.00     0.074 C 
HETATM    5  C   UNL     1       5.358  26.856  55.474  1.00  0.00     0.030 A 
HETATM    6  C   UNL     1       5.791  26.187  54.350  1.00  0.00     0.042 A 
HETATM    7  N   UNL     1       5.923  24.871  54.696  1.00  0.00    -0.279 N 
HETATM    8  H   UNL     1       6.205  24.086  54.116  1.00  0.00     0.189 HD
HETATM    9  N   UNL     1       5.595  24.635  55.984  1.00  0.00    -0.149 NA
HETATM   10  C   UNL     1       5.234  25.835  56.418  1.00  0.00     0.190 A 
HETATM   11  C   UNL     1       5.999  26.754  52.995  1.00  0.00     0.097 C 
ENDROOT
BRANCH   4  12
HETATM   12  C   UNL     1       5.943  28.970  56.561  1.00  0.00    -0.048 A 
HETATM   13  C   UNL     1       7.169  28.342  56.863  1.00  0.00     0.009 A 
HETATM   14  C   UNL     1       8.042  28.876  57.814  1.00  0.00     0.019 A 
HETATM   15  C   UNL     1       7.698  30.042  58.489  1.00  0.00     0.011 A 
HETATM   16 BR   UNL     1       8.878  30.770  59.774  1.00  0.00    -0.051 Br
HETATM   17  C   UNL     1       6.492  30.679  58.217  1.00  0.00     0.019 A 
HETATM   18  C   UNL     1       5.623  30.148  57.260  1.00  0.00     0.009 A 
ENDBRANCH   4  12
BRANCH   3  19
HETATM   19  C   UNL     1       3.742  29.039  53.554  1.00  0.00     0.266 C 
HETATM   20  O   UNL     1       3.048  28.065  53.295  1.00  0.00    -0.265 OA
BRANCH  19  21
HETATM   21  O   UNL     1       3.360  30.335  53.378  1.00  0.00    -0.326 OA
HETATM   22  C   UNL     1       3.130  31.051  54.592  1.00  0.00     0.213 C 
ENDBRANCH  19  21
ENDBRANCH   3  19
BRANCH   2  23
HETATM   23  O   UNL     1       7.464  28.649  53.429  1.00  0.00    -0.389 OA
HETATM   24  H   UNL     1       7.458  29.007  54.331  1.00  0.00     0.210 HD
ENDBRANCH   2  23
BRANCH  10  25
HETATM   25  O   UNL     1       4.808  25.882  57.675  1.00  0.00    -0.343 OA
HETATM   26  H   UNL     1       5.058  26.769  57.985  1.00  0.00     0.219 HD
ENDBRANCH  10  25
TORSDOF 5
ENDMDL
MODEL 10
REMARK VINA RESULT:      -5.8      3.544      5.205
REMARK  5 active torsions:
REMARK  status: ('A' for Active; 'I' for Inactive)
REMARK    1  A    between atoms: C_2  and  O_3 
REMARK    2  A    between atoms: C_4  and  C_5 
REMARK    3  A    between atoms: C_5  and  O_6 
REMARK    4  A    between atoms: C_9  and  C_10 
REMARK    5  A    between atoms: C_22  and  O_23 
ROOT
HETATM    1  C   UNL     1       4.785  30.857  49.077  1.00  0.00     0.047 C 
HETATM    2  C   UNL     1       5.036  29.853  50.215  1.00  0.00     0.073 C 
HETATM    3  C   UNL     1       3.856  29.824  51.244  1.00  0.00     0.133 C 
HETATM    4  C   UNL     1       3.872  28.682  52.304  1.00  0.00     0.074 C 
HETATM    5  C   UNL     1       4.607  27.480  51.828  1.00  0.00     0.030 A 
HETATM    6  C   UNL     1       5.289  27.409  50.633  1.00  0.00     0.042 A 
HETATM    7  N   UNL     1       5.787  26.139  50.534  1.00  0.00    -0.279 N 
HETATM    8  H   UNL     1       6.327  25.726  49.779  1.00  0.00     0.189 HD
HETATM    9  N   UNL     1       5.466  25.368  51.594  1.00  0.00    -0.149 NA
HETATM   10  C   UNL     1       4.736  26.187  52.340  1.00  0.00     0.190 A 
HETATM   11  C   UNL     1       5.401  28.470  49.603  1.00  0.00     0.097 C 
ENDROOT
BRANCH   4  12
HETATM   12  C   UNL     1       4.464  29.115  53.644  1.00  0.00    -0.048 A 
HETATM   13  C   UNL     1       3.743  30.057  54.405  1.00  0.00     0.009 A 
HETATM   14  C   UNL     1       4.219  30.513  55.637  1.00  0.00     0.019 A 
HETATM   15  C   UNL     1       5.434  30.042  56.124  1.00  0.00     0.011 A 
HETATM   16 BR   UNL     1       6.081  30.653  57.791  1.00  0.00    -0.051 Br
HETATM   17  C   UNL     1       6.171  29.117  55.391  1.00  0.00     0.019 A 
HETATM   18  C   UNL     1       5.689  28.657  54.162  1.00  0.00     0.009 A 
ENDBRANCH   4  12
BRANCH   3  19
HETATM   19  C   UNL     1       2.533  29.724  50.514  1.00  0.00     0.266 C 
HETATM   20  O   UNL     1       2.138  28.734  49.914  1.00  0.00    -0.265 OA
BRANCH  19  21
HETATM   21  O   UNL     1       1.847  30.896  50.619  1.00  0.00    -0.326 OA
HETATM   22  C   UNL     1       0.703  30.987  49.769  1.00  0.00     0.213 C 
ENDBRANCH  19  21
ENDBRANCH   3  19
BRANCH   2  23
HETATM   23  O   UNL     1       6.202  30.378  50.885  1.00  0.00    -0.389 OA
HETATM   24  H   UNL     1       6.354  29.849  51.684  1.00  0.00     0.210 HD
ENDBRANCH   2  23
BRANCH  10  25
HETATM   25  O   UNL     1       4.238  25.655  53.451  1.00  0.00    -0.343 OA
HETATM   26  H   UNL     1       4.304  24.695  53.312  1.00  0.00     0.219 HD
ENDBRANCH  10  25
TORSDOF 5
ENDMDL
